@<TRIPOS>MOLECULE
tmp/5o9vB01.pdb
 247 247 0 0 0
SMALL
GASTEIGER

@<TRIPOS>ATOM
      1  N         -4.1620  -13.9800   66.4490 N.3     2  PRO2       -0.2116
      2  CA        -4.9360  -13.0620   65.6150 C.3     2  PRO2        0.1372
      3  C         -5.6640  -11.9940   66.4180 C.2     2  PRO2        0.2244
      4  O         -5.9360  -12.1360   67.6120 O.2     2  PRO2       -0.2868
      5  CB        -5.9370  -14.0020   64.9330 C.3     2  PRO2        0.0268
      6  CG        -6.2290  -15.0110   65.9940 C.3     2  PRO2        0.0207
      7  CD        -4.9340  -15.1930   66.7780 C.3     2  PRO2        0.0892
      8  N         -0.6350   -4.4940   66.0940 N.3    12  ARG12      -0.1245
      9  CA         0.3630   -5.4730   65.7100 C.3    12  ARG12       0.1563
     10  C          0.9350   -5.1810   64.3210 C.2    12  ARG12       0.2260
     11  O          0.6070   -4.1830   63.6740 O.2    12  ARG12      -0.2867
     12  CB        -0.2450   -6.8670   65.7650 C.3    12  ARG12       0.0307
     13  CG        -1.6270   -6.9590   65.1670 C.3    12  ARG12       0.0489
     14  CD        -1.8950   -8.4110   64.7800 C.3    12  ARG12       0.2205
     15  NE        -0.7350   -8.9520   64.0730 N.pl3  12  ARG12      -0.0865
     16  CZ        -0.5780  -10.2200   63.7130 C.cat  12  ARG12       0.5346
     17  NH1       -1.4970  -11.1560   63.9830 N.pl3  12  ARG12       0.1354
     18  NH2        0.5310  -10.6000   63.0760 N.pl3  12  ARG12       0.1354
     19  N          2.1790   -7.2690   60.5020 N.3    14  TYR14      -0.1227
     20  CA         1.7710   -8.4040   59.6740 C.3    14  TYR14       0.1736
     21  C          2.9200   -8.7940   58.7490 C.2    14  TYR14       0.2595
     22  O          3.0320   -8.2920   57.6290 O.2    14  TYR14      -0.2718
     23  CB         0.5070   -8.0630   58.8960 C.3    14  TYR14       0.0548
     24  CG        -0.6900   -7.8760   59.7950 C.ar   14  TYR14      -0.0200
     25  CD1       -0.9180   -6.6650   60.4350 C.ar   14  TYR14      -0.0009
     26  CD2       -1.5830   -8.9140   60.0200 C.ar   14  TYR14      -0.0009
     27  CE1       -2.0030   -6.4930   61.2670 C.ar   14  TYR14       0.0417
     28  CE2       -2.6750   -8.7490   60.8490 C.ar   14  TYR14       0.0417
     29  CZ        -2.8810   -7.5350   61.4680 C.ar   14  TYR14       0.1957
     30  OH        -3.9670   -7.3680   62.2950 O.3    14  TYR14      -0.2866
     31  N          3.7520   -9.7250   59.2170 N.am   15  GLN15      -0.1965
     32  CA         4.9630  -10.0810   58.4880 C.3    15  GLN15       0.1733
     33  C          4.6540  -10.7010   57.1280 C.2    15  GLN15       0.2616
     34  O          5.4190  -10.5100   56.1750 O.2    15  GLN15      -0.2715
     35  CB         5.8150  -11.0110   59.3530 C.3    15  GLN15       0.0408
     36  CG         6.6050  -12.0590   58.6130 C.3    15  GLN15       0.0908
     37  CD         7.4710  -12.8720   59.5460 C.2    15  GLN15       0.2608
     38  OE1        8.0880  -12.3370   60.4700 O.2    15  GLN15      -0.2717
     39  NE2        7.5160  -14.1760   59.3210 N.am   15  GLN15      -0.0878
     40  N          3.5380  -11.4190   57.0010 N.am   16  PHE16      -0.1960
     41  CA         3.1560  -11.9370   55.6910 C.3    16  PHE16       0.1771
     42  C          2.3470  -10.9270   54.8850 C.2    16  PHE16       0.2619
     43  O          2.6770  -10.6430   53.7290 O.2    16  PHE16      -0.2715
     44  CB         2.3570  -13.2370   55.8280 C.3    16  PHE16       0.0574
     45  CG         1.6730  -13.6590   54.5530 C.ar   16  PHE16      -0.0200
     46  CD1        2.4130  -14.1120   53.4710 C.ar   16  PHE16      -0.0042
     47  CD2        0.2930  -13.5970   54.4330 C.ar   16  PHE16      -0.0042
     48  CE1        1.7910  -14.4970   52.2960 C.ar   16  PHE16      -0.0003
     49  CE2       -0.3360  -13.9800   53.2610 C.ar   16  PHE16      -0.0003
     50  CZ         0.4140  -14.4310   52.1910 C.ar   16  PHE16      -0.0000
     51  N          1.2870  -10.3770   55.4780 N.am   17  TRP17      -0.1974
     52  CA         0.3720   -9.5400   54.7150 C.3    17  TRP17       0.1640
     53  C          0.9790   -8.1990   54.3250 C.2    17  TRP17       0.2290
     54  O          0.4690   -7.5530   53.4040 O.2    17  TRP17      -0.2864
     55  CB        -0.9260   -9.3420   55.4980 C.3    17  TRP17       0.0576
     56  CG        -1.8010  -10.5520   55.4270 C.ar   17  TRP17       0.0006
     57  CD1       -2.0420  -11.4580   56.4210 C.ar   17  TRP17       0.0946
     58  CD2       -2.5240  -11.0120   54.2810 C.ar   17  TRP17       0.0152
     59  NE1       -2.8870  -12.4430   55.9670 N.ar   17  TRP17      -0.2442
     60  CE2       -3.1950  -12.1930   54.6550 C.ar   17  TRP17       0.0810
     61  CE3       -2.6740  -10.5340   52.9760 C.ar   17  TRP17       0.0012
     62  CZ2       -4.0030  -12.9010   53.7700 C.ar   17  TRP17       0.0191
     63  CZ3       -3.4760  -11.2380   52.1000 C.ar   17  TRP17       0.0001
     64  CH2       -4.1310  -12.4080   52.5000 C.ar   17  TRP17       0.0015
     65  N        -10.4870  -29.8210   62.1640 N.3    76  ASN76      -0.1225
     66  CA        -9.5160  -28.7400   62.2950 C.3    76  ASN76       0.1785
     67  C         -9.9850  -27.3900   61.7610 C.2    76  ASN76       0.2597
     68  O         -9.1770  -26.4530   61.7230 O.2    76  ASN76      -0.2718
     69  CB        -8.2020  -29.1120   61.5900 C.3    76  ASN76       0.1169
     70  CG        -7.6500  -30.4480   62.0420 C.2    76  ASN76       0.2627
     71  OD1       -6.8490  -30.5170   62.9730 O.2    76  ASN76      -0.2716
     72  ND2       -8.0710  -31.5180   61.3780 N.am   76  ASN76      -0.0877
     73  N        -11.2430  -27.2410   61.3540 N.am   77  TYR77      -0.1962
     74  CA       -11.6650  -25.9990   60.7170 C.3    77  TYR77       0.1771
     75  C        -12.1620  -25.0120   61.7800 C.2    77  TYR77       0.2619
     76  O        -11.8150  -25.1220   62.9590 O.2    77  TYR77      -0.2715
     77  CB       -12.7050  -26.2910   59.6290 C.3    77  TYR77       0.0574
     78  CG       -12.8910  -25.1480   58.6510 C.ar   77  TYR77      -0.0198
     79  CD1      -11.7950  -24.5130   58.0820 C.ar   77  TYR77      -0.0009
     80  CD2      -14.1590  -24.6990   58.3030 C.ar   77  TYR77      -0.0009
     81  CE1      -11.9540  -23.4650   57.1950 C.ar   77  TYR77       0.0417
     82  CE2      -14.3270  -23.6510   57.4140 C.ar   77  TYR77       0.0417
     83  CZ       -13.2210  -23.0390   56.8640 C.ar   77  TYR77       0.1957
     84  OH       -13.3880  -21.9990   55.9800 O.3    77  TYR77      -0.2866
     85  N        -12.9790  -24.0380   61.3690 N.am   78  VAL78      -0.1963
     86  CA       -13.2950  -22.8870   62.2060 C.3    78  VAL78       0.1727
     87  C        -14.1060  -23.3140   63.4210 C.2    78  VAL78       0.2616
     88  O        -15.0360  -24.1260   63.3240 O.2    78  VAL78      -0.2715
     89  CB       -14.0490  -21.8240   61.3870 C.3    78  VAL78       0.0290
     90  CG1      -14.4510  -20.6430   62.2650 C.3    78  VAL78       0.0023
     91  CG2      -13.2030  -21.3570   60.2150 C.3    78  VAL78       0.0023
     92  N        -13.7560  -22.7560   64.5760 N.am   79  GLU79      -0.1977
     93  CA       -14.4770  -22.9740   65.8180 C.3    79  GLU79       0.1602
     94  C        -14.9850  -21.6450   66.3600 C.2    79  GLU79       0.2287
     95  O        -14.4540  -20.5760   66.0430 O.2    79  GLU79      -0.2864
     96  CB       -13.5850  -23.6560   66.8650 C.3    79  GLU79       0.0415
     97  CG       -13.1560  -25.0650   66.4950 C.3    79  GLU79       0.1163
     98  CD       -12.1560  -25.6440   67.4770 C.2    79  GLU79       0.3649
     99  OE1      -11.8940  -24.9940   68.5120 O.co2  79  GLU79      -0.2457
    100  OE2      -11.6350  -26.7490   67.2180 O.co2  79  GLU79      -0.2457
    101  N        -12.1080  -22.1070   52.9620 N.3   144  PHE144     -0.1227
    102  CA       -11.6950  -23.3640   53.5870 C.3   144  PHE144      0.1736
    103  C        -10.1850  -23.4510   53.7910 C.2   144  PHE144      0.2595
    104  O         -9.5990  -24.5330   53.6960 O.2   144  PHE144     -0.2718
    105  CB       -12.1940  -24.5680   52.7830 C.3   144  PHE144      0.0547
    106  CG       -13.6820  -24.6000   52.6160 C.ar  144  PHE144     -0.0202
    107  CD1      -14.5040  -24.9040   53.6880 C.ar  144  PHE144     -0.0042
    108  CD2      -14.2610  -24.3220   51.3900 C.ar  144  PHE144     -0.0042
    109  CE1      -15.8760  -24.9320   53.5400 C.ar  144  PHE144     -0.0003
    110  CE2      -15.6320  -24.3490   51.2350 C.ar  144  PHE144     -0.0003
    111  CZ       -16.4410  -24.6540   52.3110 C.ar  144  PHE144     -0.0000
    112  N         -9.5410  -22.3200   54.0740 N.am  145  LEU145     -0.1966
    113  CA        -8.1540  -22.3500   54.5220 C.3   145  LEU145      0.1728
    114  C         -8.0770  -23.0730   55.8580 C.2   145  LEU145      0.2616
    115  O         -8.7380  -22.6810   56.8240 O.2   145  LEU145     -0.2715
    116  CB        -7.6020  -20.9290   54.6430 C.3   145  LEU145      0.0311
    117  CG        -6.2380  -20.7650   55.3200 C.3   145  LEU145      0.0022
    118  CD1       -5.1640  -21.5580   54.5920 C.3   145  LEU145      0.0001
    119  CD2       -5.8500  -19.2960   55.4090 C.3   145  LEU145      0.0001
    120  N         -7.2800  -24.1380   55.9130 N.am  146  CYS146     -0.1954
    121  CA        -7.2810  -25.0130   57.0770 C.3   146  CYS146      0.1843
    122  C         -5.9330  -25.7030   57.2130 C.2   146  CYS146      0.2625
    123  O         -5.4460  -26.3140   56.2580 O.2   146  CYS146     -0.2714
    124  CB        -8.4010  -26.0540   56.9690 C.3   146  CYS146      0.0997
    125  SG        -8.5610  -27.1480   58.3960 S.3   146  CYS146     -0.0797
    126  N         -5.3460  -25.6040   58.4020 N.am  147  VAL147     -0.1977
    127  CA        -4.1000  -26.2790   58.7440 C.3   147  VAL147      0.1596
    128  C         -4.3680  -27.1660   59.9510 C.2   147  VAL147      0.2287
    129  O         -5.0000  -26.7270   60.9190 O.2   147  VAL147     -0.2864
    130  CB        -2.9710  -25.2730   59.0350 C.3   147  VAL147      0.0276
    131  CG1       -1.7780  -25.9700   59.6680 C.3   147  VAL147      0.0022
    132  CG2       -2.5600  -24.5570   57.7590 C.3   147  VAL147      0.0022
    133  N         -0.0970  -28.9930   63.0810 N.3   151  LEU151     -0.1231
    134  CA         0.7920  -28.2690   62.1810 C.3   151  LEU151      0.1693
    135  C          0.6590  -26.7570   62.3310 C.2   151  LEU151      0.2592
    136  O          1.2650  -26.0070   61.5590 O.2   151  LEU151     -0.2718
    137  CB         0.5140  -28.6970   60.7350 C.3   151  LEU151      0.0284
    138  CG         1.4830  -28.3540   59.6000 C.3   151  LEU151      0.0019
    139  CD1        2.9230  -28.5830   60.0220 C.3   151  LEU151      0.0001
    140  CD2        1.1550  -29.1690   58.3610 C.3   151  LEU151      0.0001
    141  N         -0.1060  -26.2950   63.3170 N.am  152  ARG152     -0.1966
    142  CA        -0.3950  -24.8770   63.4710 C.3   152  ARG152      0.1729
    143  C          0.8570  -24.0900   63.8480 C.2   152  ARG152      0.2617
    144  O          1.8250  -24.6260   64.3950 O.2   152  ARG152     -0.2715
    145  CB        -1.4660  -24.6620   64.5400 C.3   152  ARG152      0.0348
    146  CG        -2.8120  -25.2690   64.2050 C.3   152  ARG152      0.0492
    147  CD        -3.6410  -24.3440   63.3370 C.3   152  ARG152      0.2205
    148  NE        -4.8880  -24.9750   62.9170 N.pl3 152  ARG152     -0.0865
    149  CZ        -6.0020  -24.9810   63.6400 C.cat 152  ARG152      0.5346
    150  NH1       -6.0280  -24.3890   64.8270 N.pl3 152  ARG152      0.1354
    151  NH2       -7.0900  -25.5810   63.1780 N.pl3 152  ARG152      0.1354
    152  N          0.8170  -22.7910   63.5430 N.am  153  SER153     -0.1936
    153  CA         1.8410  -21.8300   63.9570 C.3   153  SER153      0.2055
    154  C          3.2260  -22.2020   63.4360 C.2   153  SER153      0.2643
    155  O          4.2400  -21.9120   64.0750 O.2   153  SER153     -0.2714
    156  CB         1.8670  -21.6730   65.4810 C.3   153  SER153      0.2130
    157  OG         0.6190  -21.2030   65.9610 O.3   153  SER153     -0.2179
    158  N          3.2840  -22.8440   62.2690 N.am  154  LYS154     -0.1963
    159  CA         4.5480  -23.1970   61.6360 C.3   154  LYS154      0.1728
    160  C          4.6470  -22.6050   60.2330 C.2   154  LYS154      0.2616
    161  O          5.2560  -23.2000   59.3400 O.2   154  LYS154     -0.2715
    162  CB         4.7380  -24.7140   61.6150 C.3   154  LYS154      0.0311
    163  CG         4.5860  -25.3400   62.9950 C.3   154  LYS154      0.0038
    164  CD         5.3340  -26.6520   63.1300 C.3   154  LYS154      0.0206
    165  CE         5.6120  -26.9550   64.5940 C.3   154  LYS154      0.1093
    166  NZ         6.4740  -25.9090   65.2120 N.3   154  LYS154     -0.1314
    167  N          4.0710  -21.4230   60.0150 N.am  155  ARG155     -0.1963
    168  CA         4.2030  -20.6820   58.7590 C.3   155  ARG155      0.1729
    169  C          3.5450  -21.3740   57.5680 C.2   155  ARG155      0.2616
    170  O          3.8200  -21.0090   56.4210 O.2   155  ARG155     -0.2715
    171  CB         5.6710  -20.4120   58.4020 C.3   155  ARG155      0.0348
    172  CG         6.4190  -19.4360   59.2730 C.3   155  ARG155      0.0492
    173  CD         7.3900  -18.6790   58.3860 C.3   155  ARG155      0.2205
    174  NE         8.7000  -18.4730   58.9880 N.pl3 155  ARG155     -0.0865
    175  CZ         8.9590  -17.5460   59.9000 C.cat 155  ARG155      0.5346
    176  NH1        7.9890  -16.7570   60.3350 N.pl3 155  ARG155      0.1354
    177  NH2       10.1830  -17.4150   60.3830 N.pl3 155  ARG155      0.1354
    178  N          2.6870  -22.3690   57.7920 N.am  156  VAL156     -0.1963
    179  CA         2.1440  -23.1170   56.6630 C.3   156  VAL156      0.1727
    180  C          1.0410  -22.3270   55.9650 C.2   156  VAL156      0.2616
    181  O          0.9080  -22.3810   54.7370 O.2   156  VAL156     -0.2715
    182  CB         1.6560  -24.5010   57.1280 C.3   156  VAL156      0.0290
    183  CG1        0.9050  -25.2060   56.0120 C.3   156  VAL156      0.0023
    184  CG2        2.8360  -25.3430   57.5850 C.3   156  VAL156      0.0023
    185  N          0.2460  -21.5740   56.7260 N.am  157  ALA157     -0.1964
    186  CA        -0.8250  -20.7840   56.1220 C.3   157  ALA157      0.1713
    187  C         -0.3370  -19.7940   55.0680 C.2   157  ALA157      0.2458
    188  O         -0.9840  -19.7010   54.0090 O.2   157  ALA157     -0.2730
    189  CB        -1.6230  -20.0640   57.2170 C.3   157  ALA157      0.0333
    190  N          0.7500  -19.0360   55.2670 N.am  158  PRO158     -0.2727
    191  CA         1.2230  -18.1660   54.1770 C.3   158  PRO158      0.1402
    192  C          1.6570  -18.9280   52.9370 C.2   158  PRO158      0.2269
    193  O          1.5150  -18.4060   51.8230 O.2   158  PRO158     -0.2865
    194  CB         2.3980  -17.4120   54.8150 C.3   158  PRO158      0.0296
    195  CG         2.1260  -17.4520   56.2700 C.3   158  PRO158      0.0237
    196  CD         1.5020  -18.7900   56.5110 C.3   158  PRO158      0.0939
    197  N         -1.4670  -19.7090   50.9770 N.3   161  ILE161     -0.1245
    198  CA        -2.0110  -18.5310   50.3120 C.3   161  ILE161      0.1561
    199  C         -1.2020  -18.1970   49.0650 C.2   161  ILE161      0.2260
    200  O         -1.7650  -17.8660   48.0150 O.2   161  ILE161     -0.2867
    201  CB        -2.0680  -17.3460   51.2930 C.3   161  ILE161      0.0252
    202  CG1       -3.1310  -17.6060   52.3630 C.3   161  ILE161      0.0019
    203  CG2       -2.3660  -16.0480   50.5570 C.3   161  ILE161      0.0019
    204  CD1       -2.8910  -16.8690   53.6590 C.3   161  ILE161      0.0001
    205  N        -12.4670  -12.6880   49.7940 N.3   178  TYR178     -0.1227
    206  CA       -12.4370  -13.6790   50.8590 C.3   178  TYR178      0.1736
    207  C        -12.9250  -13.0380   52.1490 C.2   178  TYR178      0.2596
    208  O        -12.9050  -11.8140   52.3050 O.2   178  TYR178     -0.2718
    209  CB       -11.0320  -14.2720   51.0400 C.3   178  TYR178      0.0548
    210  CG        -9.9240  -13.2570   51.2430 C.ar  178  TYR178     -0.0200
    211  CD1       -9.4060  -12.5370   50.1730 C.ar  178  TYR178     -0.0009
    212  CD2       -9.3770  -13.0390   52.5020 C.ar  178  TYR178     -0.0009
    213  CE1       -8.3900  -11.6160   50.3530 C.ar  178  TYR178      0.0417
    214  CE2       -8.3550  -12.1240   52.6920 C.ar  178  TYR178      0.0417
    215  CZ        -7.8670  -11.4140   51.6130 C.ar  178  TYR178      0.1957
    216  OH        -6.8560  -10.4980   51.7940 O.3   178  TYR178     -0.2866
    217  N        -13.3760  -13.8890   53.0660 N.am  179  THR179     -0.1939
    218  CA       -13.8250  -13.4650   54.3810 C.3   179  THR179      0.2028
    219  C        -12.9690  -14.1220   55.4550 C.2   179  THR179      0.2642
    220  O        -12.2680  -15.1070   55.2070 O.2   179  THR179     -0.2714
    221  CB       -15.3030  -13.8090   54.6190 C.3   179  THR179      0.1808
    222  OG1      -15.4600  -15.2310   54.7060 O.3   179  THR179     -0.2208
    223  CG2      -16.1660  -13.2740   53.4880 C.3   179  THR179      0.0379
    224  N        -13.0380  -13.5590   56.6580 N.am  180  ALA180     -0.1963
    225  CA       -12.3030  -14.0860   57.7980 C.3   180  ALA180      0.1728
    226  C        -12.8920  -13.4990   59.0690 C.2   180  ALA180      0.2617
    227  O        -13.3790  -12.3650   59.0760 O.2   180  ALA180     -0.2715
    228  CB       -10.8060  -13.7680   57.7040 C.3   180  ALA180      0.0334
    229  N        -12.8540  -14.2890   60.1420 N.am  181  GLY181     -0.1940
    230  CA       -13.2820  -13.8020   61.4390 C.3   181  GLY181      0.2014
    231  C        -12.2710  -12.9410   62.1560 C.2   181  GLY181      0.2638
    232  O        -12.6120  -12.2990   63.1540 O.2   181  GLY181     -0.2714
    233  N        -11.0370  -12.9100   61.6670 N.am  182  VAL182     -0.1977
    234  CA        -9.9770  -12.1120   62.2590 C.3   182  VAL182      0.1596
    235  C         -9.7140  -10.9150   61.3560 C.2   182  VAL182      0.2287
    236  O        -10.0600  -10.9070   60.1710 O.2   182  VAL182     -0.2864
    237  CB        -8.6960  -12.9430   62.4720 C.3   182  VAL182      0.0276
    238  CG1       -9.0280  -14.2140   63.2370 C.3   182  VAL182      0.0022
    239  CG2       -8.0490  -13.2730   61.1360 C.3   182  VAL182      0.0022
    240  N         -7.4070   -8.5040   59.2470 N.3   184  LEU184     -0.1245
    241  CA        -6.2010   -8.5060   58.4370 C.3   184  LEU184      0.1561
    242  C         -6.1610   -7.2160   57.6370 C.2   184  LEU184      0.2260
    243  O         -7.1650   -6.5020   57.5520 O.2   184  LEU184     -0.2867
    244  CB        -6.1850   -9.7090   57.4850 C.3   184  LEU184      0.0270
    245  CG        -6.4790  -11.0650   58.1240 C.3   184  LEU184      0.0019
    246  CD1       -6.6570  -12.1170   57.0490 C.3   184  LEU184      0.0001
    247  CD2       -5.3710  -11.4560   59.0880 C.3   184  LEU184      0.0001
@<TRIPOS>BOND
     1   200   199    2
     2   199   198    1
     3   205   206    1
     4   211   213   ar
     5   211   210   ar
     6   198   197    1
     7   198   201    1
     8   213   215   ar
     9   203   201    1
    10   206   209    1
    11   206   207    1
    12   209   210    1
    13   110   108   ar
    14   110   111   ar
    15   210   212   ar
    16   201   202    1
    17   108   106   ar
    18   215   216    1
    19   215   214   ar
    20   193   192    2
    21    63    64   ar
    22    63    61   ar
    23   207   208    2
    24   207   217   am
    25    50    48   ar
    26    50    49   ar
    27    48    46   ar
    28   111   109   ar
    29   202   204    1
    30    64    62   ar
    31   212   214   ar
    32   106   105    1
    33   106   107   ar
    34   105   102    1
    35   192   191    1
    36   101   102    1
    37    61    58   ar
    38   217   218    1
    39    49    47   ar
    40    54    53    2
    41    46    45   ar
    42   223   221    1
    43   109   107   ar
    44   102   103    1
    45   104   103    2
    46    43    42    2
    47    62    60   ar
    48   103   112   am
    49   188   187    2
    50   112   113    1
    51   191   194    1
    52   191   190    1
    53    58    60   ar
    54    58    56   ar
    55    53    52    1
    56   218   221    1
    57   218   219    1
    58    47    45   ar
    59   113   116    1
    60   113   114    1
    61    45    44    1
    62   118   117    1
    63   221   222    1
    64   116   117    1
    65    60    59   ar
    66    52    51    1
    67    52    55    1
    68   181   180    2
    69   194   195    1
    70    42    51   am
    71    42    41    1
    72   187   190   am
    73   187   186    1
    74   220   219    2
    75   190   196    1
    76   117   119    1
    77    56    55    1
    78    56    57   ar
    79   219   224   am
    80    41    44    1
    81    41    40    1
    82   114   120   am
    83   114   115    2
    84   120   121    1
    85   180   179    1
    86   180   185   am
    87    59    57   ar
    88    84    83    1
    89   183   182    1
    90   186   185    1
    91   186   189    1
    92    34    33    2
    93   123   122    2
    94   195   196    1
    95   170   169    2
    96   224   225    1
    97   179   182    1
    98   179   178    1
    99    83    81   ar
   100    83    82   ar
   101   124   121    1
   102   124   125    1
   103    40    33   am
   104   246   245    1
   105   121   122    1
   106   182   184    1
   107    33    32    1
   108    81    79   ar
   109   122   126   am
   110    82    80   ar
   111   244   245    1
   112   244   241    1
   113   243   242    2
   114   169   178   am
   115   169   168    1
   116    22    21    2
   117   242   241    1
   118   228   225    1
   119   132   130    1
   120   225   226    1
   121    79    78   ar
   122   245   247    1
   123    80    78   ar
   124   140   138    1
   125   173   174    1
   126   173   172    1
   127   126   127    1
   128   171   168    1
   129   171   172    1
   130   241   240    1
   131    32    31    1
   132    32    35    1
   133    36    35    1
   134    36    37    1
   135    78    77    1
   136   127   130    1
   137   127   128    1
   138    21    31   am
   139    21    20    1
   140   168   167    1
   141    23    20    1
   142    23    24    1
   143   174   175    2
   144   130   131    1
   145   226   227    2
   146   226   229   am
   147    39    37   am
   148   161   160    2
   149    37    38    2
   150   138   139    1
   151   138   137    1
   152    77    74    1
   153    20    19    1
   154    24    26   ar
   155    24    25   ar
   156   175   176    1
   157   175   177    1
   158   128   129    2
   159   167   160   am
   160    26    28   ar
   161   229   230    1
   162   236   235    2
   163    91    89    1
   164   160   159    1
   165    25    27   ar
   166    74    73    1
   167    74    75    1
   168   137   134    1
   169    28    29   ar
   170   239   237    1
   171    27    29   ar
   172    73    67   am
   173   235   234    1
   174    85    75   am
   175    85    86    1
   176    72    70   am
   177    89    86    1
   178    89    90    1
   179   230   231    1
   180    29    30    1
   181   136   135    2
   182    69    70    1
   183    69    66    1
   184   162   159    1
   185   162   163    1
   186   159   158    1
   187   233   231   am
   188   233   234    1
   189    68    67    2
   190    67    66    1
   191    75    76    2
   192    70    71    2
   193   231   232    2
   194    65    66    1
   195   134   135    1
   196   134   133    1
   197    86    87    1
   198   234   237    1
   199   158   154   am
   200   135   141   am
   201   237   238    1
   202   148   147    1
   203   148   149    2
   204   163   164    1
   205    18    16    1
   206   164   165    1
   207   151   149    1
   208   141   142    1
   209    88    87    2
   210   147   146    1
   211    87    92   am
   212   154   153    1
   213   154   155    2
   214   142   143    1
   215   142   145    1
   216   152   143   am
   217   152   153    1
   218   149   150    1
   219    11    10    2
   220    16    17    1
   221    16    15    2
   222   143   144    2
   223   153   156    1
   224    15    14    1
   225   146   145    1
   226    10     9    1
   227    92    93    1
   228   165   166    1
   229    14    13    1
   230     5     2    1
   231     5     6    1
   232    13    12    1
   233   156   157    1
   234     2     3    1
   235     2     1    1
   236     9    12    1
   237     9     8    1
   238    93    94    1
   239    93    96    1
   240     6     7    1
   241    95    94    2
   242     3     4    2
   243     1     7    1
   244    97    96    1
   245    97    98    1
   246   100    98   ar
   247    98    99   ar
