@<TRIPOS>MOLECULE
tmp/5o9vB02.pdb
 193 189 0 0 0
SMALL
GASTEIGER

@<TRIPOS>ATOM
      1  N          1.2870  -10.3770   55.4780 N.3    17  TRP17      -0.1241
      2  CA         0.3720   -9.5400   54.7150 C.3    17  TRP17       0.1605
      3  C          0.9790   -8.1990   54.3250 C.2    17  TRP17       0.2264
      4  O          0.4690   -7.5530   53.4040 O.2    17  TRP17      -0.2867
      5  CB        -0.9260   -9.3420   55.4980 C.3    17  TRP17       0.0550
      6  CG        -1.8010  -10.5520   55.4270 C.ar   17  TRP17       0.0003
      7  CD1       -2.0420  -11.4580   56.4210 C.ar   17  TRP17       0.0946
      8  CD2       -2.5240  -11.0120   54.2810 C.ar   17  TRP17       0.0152
      9  NE1       -2.8870  -12.4430   55.9670 N.ar   17  TRP17      -0.2442
     10  CE2       -3.1950  -12.1930   54.6550 C.ar   17  TRP17       0.0810
     11  CE3       -2.6740  -10.5340   52.9760 C.ar   17  TRP17       0.0012
     12  CZ2       -4.0030  -12.9010   53.7700 C.ar   17  TRP17       0.0191
     13  CZ3       -3.4760  -11.2380   52.1000 C.ar   17  TRP17       0.0001
     14  CH2       -4.1310  -12.4080   52.5000 C.ar   17  TRP17       0.0015
     15  N        -11.2430  -27.2410   61.3540 N.3    77  TYR77      -0.1241
     16  CA       -11.6650  -25.9990   60.7170 C.3    77  TYR77       0.1605
     17  C        -12.1620  -25.0120   61.7800 C.2    77  TYR77       0.2264
     18  O        -11.8150  -25.1220   62.9590 O.2    77  TYR77      -0.2867
     19  CB       -12.7050  -26.2910   59.6290 C.3    77  TYR77       0.0534
     20  CG       -12.8910  -25.1480   58.6510 C.ar   77  TYR77      -0.0201
     21  CD1      -11.7950  -24.5130   58.0820 C.ar   77  TYR77      -0.0009
     22  CD2      -14.1590  -24.6990   58.3030 C.ar   77  TYR77      -0.0009
     23  CE1      -11.9540  -23.4650   57.1950 C.ar   77  TYR77       0.0417
     24  CE2      -14.3270  -23.6510   57.4140 C.ar   77  TYR77       0.0417
     25  CZ       -13.2210  -23.0390   56.8640 C.ar   77  TYR77       0.1957
     26  OH       -13.3880  -21.9990   55.9800 O.3    77  TYR77      -0.2866
     27  N         -6.6570  -25.3530   51.0150 N.3   123  ILE123     -0.1245
     28  CA        -7.1860  -24.0440   50.6540 C.3   123  ILE123      0.1561
     29  C         -7.7970  -24.1960   49.2720 C.2   123  ILE123      0.2260
     30  O         -7.3560  -25.0260   48.4730 O.2   123  ILE123     -0.2867
     31  CB        -6.0900  -22.9460   50.6970 C.3   123  ILE123      0.0252
     32  CG1       -6.7230  -21.5540   50.6220 C.3   123  ILE123      0.0019
     33  CG2       -5.0820  -23.1420   49.5750 C.3   123  ILE123      0.0019
     34  CD1       -5.7520  -20.4210   50.8930 C.3   123  ILE123      0.0001
     35  N        -11.5880  -14.8870   41.9830 N.3   140  VAL140     -0.1245
     36  CA       -11.8320  -16.1500   42.6580 C.3   140  VAL140      0.1561
     37  C        -12.2990  -15.8460   44.0710 C.2   140  VAL140      0.2260
     38  O        -11.9930  -14.7920   44.6380 O.2   140  VAL140     -0.2867
     39  CB       -10.5890  -17.0670   42.6840 C.3   140  VAL140      0.0252
     40  CG1      -10.2330  -17.5220   41.2780 C.3   140  VAL140      0.0019
     41  CG2       -9.4140  -16.3600   43.3440 C.3   140  VAL140      0.0019
     42  N        -11.8430  -17.3300   47.7820 N.3   142  ILE142     -0.1231
     43  CA       -10.9680  -18.1940   48.5630 C.3   142  ILE142      0.1692
     44  C        -11.7280  -18.6470   49.8000 C.2   142  ILE142      0.2592
     45  O        -12.3760  -17.8360   50.4730 O.2   142  ILE142     -0.2718
     46  CB        -9.6630  -17.4750   48.9430 C.3   142  ILE142      0.0266
     47  CG1       -8.9470  -16.9800   47.6860 C.3   142  ILE142      0.0019
     48  CG2       -8.7540  -18.4050   49.7330 C.3   142  ILE142      0.0020
     49  CD1       -8.4020  -18.0940   46.8160 C.3   142  ILE142      0.0001
     50  N        -11.6500  -19.9410   50.1030 N.am  143  ASN143     -0.1960
     51  CA       -12.4310  -20.5040   51.1910 C.3   143  ASN143      0.1819
     52  C        -11.7160  -21.7280   51.7450 C.2   143  ASN143      0.2621
     53  O        -10.8330  -22.3030   51.1030 O.2   143  ASN143     -0.2715
     54  CB       -13.8430  -20.8730   50.7200 C.3   143  ASN143      0.1195
     55  CG       -14.8760  -20.7670   51.8230 C.2   143  ASN143      0.2630
     56  OD1      -14.5430  -20.7930   53.0060 O.2   143  ASN143     -0.2716
     57  ND2      -16.1410  -20.6380   51.4370 N.am  143  ASN143     -0.0877
     58  N        -12.1080  -22.1070   52.9620 N.am  144  PHE144     -0.1960
     59  CA       -11.6950  -23.3640   53.5870 C.3   144  PHE144      0.1771
     60  C        -10.1850  -23.4510   53.7910 C.2   144  PHE144      0.2619
     61  O         -9.5990  -24.5330   53.6960 O.2   144  PHE144     -0.2715
     62  CB       -12.1940  -24.5680   52.7830 C.3   144  PHE144      0.0574
     63  CG       -13.6820  -24.6000   52.6160 C.ar  144  PHE144     -0.0200
     64  CD1      -14.5040  -24.9040   53.6880 C.ar  144  PHE144     -0.0042
     65  CD2      -14.2610  -24.3220   51.3900 C.ar  144  PHE144     -0.0042
     66  CE1      -15.8760  -24.9320   53.5400 C.ar  144  PHE144     -0.0003
     67  CE2      -15.6320  -24.3490   51.2350 C.ar  144  PHE144     -0.0003
     68  CZ       -16.4410  -24.6540   52.3110 C.ar  144  PHE144     -0.0000
     69  N         -9.5410  -22.3200   54.0740 N.am  145  LEU145     -0.1977
     70  CA        -8.1540  -22.3500   54.5220 C.3   145  LEU145      0.1596
     71  C         -8.0770  -23.0730   55.8580 C.2   145  LEU145      0.2287
     72  O         -8.7380  -22.6810   56.8240 O.2   145  LEU145     -0.2864
     73  CB        -7.6020  -20.9290   54.6430 C.3   145  LEU145      0.0297
     74  CG        -6.2380  -20.7650   55.3200 C.3   145  LEU145      0.0022
     75  CD1       -5.1640  -21.5580   54.5920 C.3   145  LEU145      0.0001
     76  CD2       -5.8500  -19.2960   55.4090 C.3   145  LEU145      0.0001
     77  N         -1.4670  -19.7090   50.9770 N.3   161  ILE161     -0.1245
     78  CA        -2.0110  -18.5310   50.3120 C.3   161  ILE161      0.1561
     79  C         -1.2020  -18.1970   49.0650 C.2   161  ILE161      0.2260
     80  O         -1.7650  -17.8660   48.0150 O.2   161  ILE161     -0.2867
     81  CB        -2.0680  -17.3460   51.2930 C.3   161  ILE161      0.0252
     82  CG1       -3.1310  -17.6060   52.3630 C.3   161  ILE161      0.0019
     83  CG2       -2.3660  -16.0480   50.5570 C.3   161  ILE161      0.0019
     84  CD1       -2.8910  -16.8690   53.6590 C.3   161  ILE161      0.0001
     85  N         -2.0090  -20.9970   46.2340 N.3   164  ILE164     -0.1231
     86  CA        -3.2820  -20.7940   45.5520 C.3   164  ILE164      0.1692
     87  C         -3.2410  -19.5040   44.7430 C.2   164  ILE164      0.2592
     88  O         -3.8470  -19.4200   43.6690 O.2   164  ILE164     -0.2718
     89  CB        -4.4580  -20.8160   46.5520 C.3   164  ILE164      0.0266
     90  CG1       -5.7780  -21.0400   45.8110 C.3   164  ILE164      0.0019
     91  CG2       -4.5260  -19.5340   47.3720 C.3   164  ILE164      0.0020
     92  CD1       -5.8360  -22.3540   45.0620 C.3   164  ILE164      0.0001
     93  N         -2.5100  -18.4930   45.2210 N.am  165  THR165     -0.1953
     94  CA        -2.3160  -17.2800   44.4350 C.3   165  THR165      0.1897
     95  C         -1.5960  -17.5940   43.1310 C.2   165  THR165      0.2313
     96  O         -1.9830  -17.1150   42.0580 O.2   165  THR165     -0.2863
     97  CB        -1.5260  -16.2500   45.2450 C.3   165  THR165      0.1794
     98  OG1       -2.2320  -15.9390   46.4520 O.3   165  THR165     -0.2208
     99  CG2       -1.3190  -14.9760   44.4400 C.3   165  THR165      0.0378
    100  N         -3.9340  -19.5530   40.7670 N.3   168  VAL168     -0.1231
    101  CA        -4.9670  -18.7080   40.1810 C.3   168  VAL168      0.1692
    102  C         -4.3670  -17.7960   39.1180 C.2   168  VAL168      0.2592
    103  O         -4.9710  -17.5690   38.0620 O.2   168  VAL168     -0.2718
    104  CB        -5.6870  -17.9130   41.2850 C.3   168  VAL168      0.0266
    105  CG1       -6.5720  -16.8480   40.6830 C.3   168  VAL168      0.0020
    106  CG2       -6.5140  -18.8520   42.1510 C.3   168  VAL168      0.0020
    107  N         -3.1620  -17.2740   39.3710 N.am  169  HIS169     -0.1976
    108  CA        -2.4860  -16.4350   38.3850 C.3   169  HIS169      0.1656
    109  C         -2.2950  -17.1690   37.0640 C.2   169  HIS169      0.2291
    110  O         -2.4250  -16.5710   35.9890 O.2   169  HIS169     -0.2864
    111  CB        -1.1320  -15.9720   38.9260 C.3   169  HIS169      0.0771
    112  CG        -1.2220  -14.8730   39.9380 C.ar  169  HIS169      0.0820
    113  ND1       -0.1190  -14.3960   40.6130 N.ar  169  HIS169     -0.2267
    114  CD2       -2.2770  -14.1520   40.3840 C.ar  169  HIS169      0.1154
    115  CE1       -0.4920  -13.4300   41.4340 C.ar  169  HIS169      0.1986
    116  NE2       -1.7970  -13.2630   41.3140 N.ar  169  HIS169     -0.2212
    117  N         -6.1120  -14.7830   36.3870 N.3   173  ILE173     -0.1231
    118  CA        -6.9540  -14.0840   37.3490 C.3   173  ILE173      0.1692
    119  C         -6.0500  -13.4710   38.4080 C.2   173  ILE173      0.2592
    120  O         -5.1390  -14.1370   38.9140 O.2   173  ILE173     -0.2718
    121  CB        -7.9900  -15.0310   37.9800 C.3   173  ILE173      0.0266
    122  CG1       -8.9460  -15.5530   36.9050 C.3   173  ILE173      0.0019
    123  CG2       -8.7510  -14.3280   39.0940 C.3   173  ILE173      0.0020
    124  CD1       -9.9850  -16.5260   37.4250 C.3   173  ILE173      0.0001
    125  N         -6.3000  -12.2040   38.7420 N.am  174  PHE174     -0.1962
    126  CA        -5.3930  -11.4540   39.6010 C.3   174  PHE174      0.1771
    127  C         -6.1040  -10.7160   40.7300 C.2   174  PHE174      0.2619
    128  O         -5.4740   -9.8970   41.4090 O.2   174  PHE174     -0.2715
    129  CB        -4.5750  -10.4740   38.7550 C.3   174  PHE174      0.0574
    130  CG        -3.7460  -11.1480   37.7000 C.ar  174  PHE174     -0.0200
    131  CD1       -2.4980  -11.6640   38.0080 C.ar  174  PHE174     -0.0042
    132  CD2       -4.2270  -11.2930   36.4080 C.ar  174  PHE174     -0.0042
    133  CE1       -1.7360  -12.2960   37.0450 C.ar  174  PHE174     -0.0003
    134  CE2       -3.4700  -11.9240   35.4390 C.ar  174  PHE174     -0.0003
    135  CZ        -2.2220  -12.4260   35.7580 C.ar  174  PHE174     -0.0000
    136  N         -7.3890  -10.9820   40.9500 N.am  175  GLN175     -0.1963
    137  CA        -8.1200  -10.4540   42.0920 C.3   175  GLN175      0.1733
    138  C         -8.8290  -11.5960   42.8030 C.2   175  GLN175      0.2616
    139  O         -9.1510  -12.6210   42.1970 O.2   175  GLN175     -0.2715
    140  CB        -9.1450   -9.3810   41.6800 C.3   175  GLN175      0.0408
    141  CG        -8.5620   -7.9890   41.4820 C.3   175  GLN175      0.0908
    142  CD        -7.7040   -7.8820   40.2370 C.2   175  GLN175      0.2608
    143  OE1       -8.0070   -8.4840   39.2060 O.2   175  GLN175     -0.2717
    144  NE2       -6.6280   -7.1090   40.3260 N.am  175  GLN175     -0.0878
    145  N         -9.0690  -11.4120   44.0990 N.am  176  ALA176     -0.1977
    146  CA        -9.7590  -12.4160   44.8940 C.3   176  ALA176      0.1597
    147  C        -10.5680  -11.7300   45.9820 C.2   176  ALA176      0.2287
    148  O        -10.2070  -10.6510   46.4590 O.2   176  ALA176     -0.2864
    149  CB        -8.7820  -13.4160   45.5220 C.3   176  ALA176      0.0319
    150  N        -12.4670  -12.6880   49.7940 N.3   178  TYR178     -0.1227
    151  CA       -12.4370  -13.6790   50.8590 C.3   178  TYR178      0.1736
    152  C        -12.9250  -13.0380   52.1490 C.2   178  TYR178      0.2596
    153  O        -12.9050  -11.8140   52.3050 O.2   178  TYR178     -0.2718
    154  CB       -11.0320  -14.2720   51.0400 C.3   178  TYR178      0.0548
    155  CG        -9.9240  -13.2570   51.2430 C.ar  178  TYR178     -0.0200
    156  CD1       -9.4060  -12.5370   50.1730 C.ar  178  TYR178     -0.0009
    157  CD2       -9.3770  -13.0390   52.5020 C.ar  178  TYR178     -0.0009
    158  CE1       -8.3900  -11.6160   50.3530 C.ar  178  TYR178      0.0417
    159  CE2       -8.3550  -12.1240   52.6920 C.ar  178  TYR178      0.0417
    160  CZ        -7.8670  -11.4140   51.6130 C.ar  178  TYR178      0.1957
    161  OH        -6.8560  -10.4980   51.7940 O.3   178  TYR178     -0.2866
    162  N        -13.3760  -13.8890   53.0660 N.am  179  THR179     -0.1939
    163  CA       -13.8250  -13.4650   54.3810 C.3   179  THR179      0.2028
    164  C        -12.9690  -14.1220   55.4550 C.2   179  THR179      0.2642
    165  O        -12.2680  -15.1070   55.2070 O.2   179  THR179     -0.2714
    166  CB       -15.3030  -13.8090   54.6190 C.3   179  THR179      0.1808
    167  OG1      -15.4600  -15.2310   54.7060 O.3   179  THR179     -0.2208
    168  CG2      -16.1660  -13.2740   53.4880 C.3   179  THR179      0.0379
    169  N        -13.0380  -13.5590   56.6580 N.am  180  ALA180     -0.1977
    170  CA       -12.3030  -14.0860   57.7980 C.3   180  ALA180      0.1597
    171  C        -12.8920  -13.4990   59.0690 C.2   180  ALA180      0.2287
    172  O        -13.3790  -12.3650   59.0760 O.2   180  ALA180     -0.2864
    173  CB       -10.8060  -13.7680   57.7040 C.3   180  ALA180      0.0319
    174  N         -7.4070   -8.5040   59.2470 N.3   184  LEU184     -0.1245
    175  CA        -6.2010   -8.5060   58.4370 C.3   184  LEU184      0.1561
    176  C         -6.1610   -7.2160   57.6370 C.2   184  LEU184      0.2260
    177  O         -7.1650   -6.5020   57.5520 O.2   184  LEU184     -0.2867
    178  CB        -6.1850   -9.7090   57.4850 C.3   184  LEU184      0.0270
    179  CG        -6.4790  -11.0650   58.1240 C.3   184  LEU184      0.0019
    180  CD1       -6.6570  -12.1170   57.0490 C.3   184  LEU184      0.0001
    181  CD2       -5.3710  -11.4560   59.0880 C.3   184  LEU184      0.0001
    182  N         -8.3450   -9.0860   47.4190 N.3   376  TYR376     -0.1241
    183  CA        -6.9190   -9.2470   47.1680 C.3   376  TYR376      0.1605
    184  C         -6.5620   -8.5330   45.8720 C.2   376  TYR376      0.2264
    185  O         -7.1890   -8.7720   44.8350 O.2   376  TYR376     -0.2867
    186  CB        -6.5450  -10.7300   47.0940 C.3   376  TYR376      0.0534
    187  CG        -5.0670  -11.0150   46.8950 C.ar  376  TYR376     -0.0201
    188  CD1       -4.2170  -11.1860   47.9830 C.ar  376  TYR376     -0.0009
    189  CD2       -4.5280  -11.1340   45.6200 C.ar  376  TYR376     -0.0009
    190  CE1       -2.8690  -11.4540   47.8050 C.ar  376  TYR376      0.0417
    191  CE2       -3.1830  -11.4030   45.4320 C.ar  376  TYR376      0.0417
    192  CZ        -2.3590  -11.5620   46.5260 C.ar  376  TYR376      0.1957
    193  OH        -1.0210  -11.8290   46.3390 O.3   376  TYR376     -0.2866
@<TRIPOS>BOND
     1   134   135   ar
     2   134   132   ar
     3   135   133   ar
     4   110   109    2
     5   117   118    1
     6   132   130   ar
     7   122   124    1
     8   122   121    1
     9   133   131   ar
    10   109   108    1
    11   118   121    1
    12   118   119    1
    13   130   131   ar
    14   130   129    1
    15   121   123    1
    16   103   102    2
    17   108   111    1
    18   108   107    1
    19   119   125   am
    20   119   120    2
    21   125   126    1
    22   129   126    1
    23   111   112    1
    24   102   107   am
    25   102   101    1
    26   143   142    2
    27   126   127    1
    28   112   114   ar
    29   112   113   ar
    30   101   100    1
    31   101   104    1
    32   142   144   am
    33   142   141    1
    34   114   116   ar
    35   113   115   ar
    36   105   104    1
    37   127   136   am
    38   127   128    2
    39   136   137    1
    40    40    39    1
    41   104   106    1
    42   116   115   ar
    43   141   140    1
    44   140   137    1
    45    35    36    1
    46    96    95    2
    47   137   138    1
    48   139   138    2
    49    36    39    1
    50    36    37    1
    51    39    41    1
    52   138   145   am
    53    95    94    1
    54    88    87    2
    55    37    38    2
    56   145   146    1
    57    94    93    1
    58    94    97    1
    59    99    97    1
    60    87    93   am
    61    87    86    1
    62   185   184    2
    63   146   149    1
    64   146   147    1
    65    92    90    1
    66    97    98    1
    67   191   189   ar
    68   191   192   ar
    69    86    85    1
    70    86    89    1
    71   189   187   ar
    72    90    89    1
    73   184   183    1
    74   147   148    2
    75   193   192    1
    76   192   190   ar
    77    89    91    1
    78    49    47    1
    79   187   186    1
    80   187   188   ar
    81   186   183    1
    82   183   182    1
    83    47    46    1
    84    42    43    1
    85   190   188   ar
    86    80    79    2
    87    30    29    2
    88    43    46    1
    89    43    44    1
    90    46    48    1
    91    79    78    1
    92    29    28    1
    93    33    31    1
    94   150   151    1
    95    44    50   am
    96    44    45    2
    97    50    51    1
    98   156   158   ar
    99   156   155   ar
   100    78    77    1
   101    78    81    1
   102   158   160   ar
   103    83    81    1
   104    32    31    1
   105    32    34    1
   106    28    31    1
   107    28    27    1
   108    54    51    1
   109    54    55    1
   110   151   154    1
   111   151   152    1
   112   154   155    1
   113    53    52    2
   114    51    52    1
   115    67    65   ar
   116    67    68   ar
   117   155   157   ar
   118    81    82    1
   119    65    63   ar
   120    57    55   am
   121   160   161    1
   122   160   159   ar
   123    52    58   am
   124    55    56    2
   125    13    14   ar
   126    13    11   ar
   127   152   153    2
   128   152   162   am
   129    68    66   ar
   130    82    84    1
   131    14    12   ar
   132   157   159   ar
   133    63    62    1
   134    63    64   ar
   135    62    59    1
   136    58    59    1
   137    11     8   ar
   138   162   163    1
   139     4     3    2
   140   168   166    1
   141    66    64   ar
   142    59    60    1
   143    61    60    2
   144    12    10   ar
   145    60    69   am
   146    69    70    1
   147     8    10   ar
   148     8     6   ar
   149     3     2    1
   150   163   166    1
   151   163   164    1
   152    70    73    1
   153    70    71    1
   154    75    74    1
   155   166   167    1
   156    73    74    1
   157    10     9   ar
   158     2     1    1
   159     2     5    1
   160   165   164    2
   161    74    76    1
   162     6     5    1
   163     6     7   ar
   164   164   169   am
   165    71    72    2
   166     9     7   ar
   167    26    25    1
   168   169   170    1
   169    25    23   ar
   170    25    24   ar
   171   180   179    1
   172    23    21   ar
   173    24    22   ar
   174   178   179    1
   175   178   175    1
   176   177   176    2
   177   176   175    1
   178   173   170    1
   179   170   171    1
   180    21    20   ar
   181   179   181    1
   182    22    20   ar
   183   175   174    1
   184    20    19    1
   185   171   172    2
   186    19    16    1
   187    16    15    1
   188    16    17    1
   189    17    18    2
