@<TRIPOS>MOLECULE
tmp/5o9wA00.pdb
 139 129 0 0 0
SMALL
GASTEIGER

@<TRIPOS>ATOM
      1  N         29.2540   47.7110   11.4130 N.3   211  ARG211     -0.1245
      2  CA        29.2060   46.3620   10.8810 C.3   211  ARG211      0.1563
      3  C         28.9080   45.4480   12.0660 C.2   211  ARG211      0.2260
      4  O         29.6710   45.3970   13.0100 O.2   211  ARG211     -0.2867
      5  CB        30.5440   46.0050   10.2520 C.3   211  ARG211      0.0307
      6  CG        30.6750   44.5720    9.8110 C.3   211  ARG211      0.0489
      7  CD        32.0200   44.3380    9.1080 C.3   211  ARG211      0.2205
      8  NE        32.0400   42.9880    8.6080 N.pl3 211  ARG211     -0.0865
      9  CZ        32.6240   42.5890    7.4770 C.cat 211  ARG211      0.5346
     10  NH1       33.3440   43.4240    6.7220 N.pl3 211  ARG211      0.1354
     11  NH2       32.5210   41.3170    7.1210 N.pl3 211  ARG211      0.1354
     12  N         28.5100   41.6870   13.2260 N.3   213  ASN213     -0.1240
     13  CA        29.0520   40.4220   12.7840 C.3   213  ASN213      0.1653
     14  C         28.4220   39.2920   13.5730 C.2   213  ASN213      0.2266
     15  O         28.4520   39.3230   14.8200 O.2   213  ASN213     -0.2867
     16  CB        30.5670   40.3730   12.9810 C.3   213  ASN213      0.1155
     17  CG        31.3020   41.4620   12.2320 C.2   213  ASN213      0.2627
     18  OD1       31.3180   41.4780   10.9850 O.2   213  ASN213     -0.2716
     19  ND2       31.9540   42.3750   12.9870 N.am  213  ASN213     -0.0877
     20  N         28.8420   35.2340   13.9380 N.3   215  TYR215     -0.1241
     21  CA        29.7220   34.1160   13.5910 C.3   215  TYR215      0.1605
     22  C         29.1200   32.8260   14.1540 C.2   215  TYR215      0.2264
     23  O         29.2330   32.5700   15.3540 O.2   215  TYR215     -0.2867
     24  CB        31.1080   34.3400   14.1700 C.3   215  TYR215      0.0534
     25  CG        31.7980   35.6340   13.7980 C.ar  215  TYR215     -0.0201
     26  CD1       32.4090   35.7910   12.5660 C.ar  215  TYR215     -0.0009
     27  CD2       31.8610   36.6960   14.6880 C.ar  215  TYR215     -0.0009
     28  CE1       33.0730   36.9570   12.2240 C.ar  215  TYR215      0.0417
     29  CE2       32.5420   37.8620   14.3580 C.ar  215  TYR215      0.0417
     30  CZ        33.1320   37.9840   13.1190 C.ar  215  TYR215      0.1957
     31  OH        33.7980   39.1380   12.8000 O.3   215  TYR215     -0.2866
     32  N         36.0520   36.0520    9.8730 N.3   227  LEU227     -0.1245
     33  CA        36.3140   37.2280    9.0890 C.3   227  LEU227      0.1561
     34  C         37.7690   37.1720    8.6140 C.2   227  LEU227      0.2260
     35  O         38.7000   37.2090    9.4260 O.2   227  LEU227     -0.2867
     36  CB        36.0340   38.4690    9.9160 C.3   227  LEU227      0.0270
     37  CG        36.2540   39.8360    9.2440 C.3   227  LEU227      0.0019
     38  CD1       35.4070   40.0130    7.9970 C.3   227  LEU227      0.0001
     39  CD2       35.9280   40.9460   10.2360 C.3   227  LEU227      0.0001
     40  N         42.4670   41.1780    7.5400 N.3   230  HIS230     -0.1241
     41  CA        42.3860   42.4910    6.9080 C.3   230  HIS230      0.1621
     42  C         42.9340   43.5520    7.8480 C.2   230  HIS230      0.2264
     43  O         43.0200   43.3300    9.0560 O.2   230  HIS230     -0.2867
     44  CB        40.9190   42.8330    6.5720 C.3   230  HIS230      0.0745
     45  CG        40.0510   43.0100    7.7800 C.ar  230  HIS230      0.0817
     46  ND1       39.6110   41.9450    8.5430 N.ar  230  HIS230     -0.2268
     47  CD2       39.6110   44.1300    8.4030 C.ar  230  HIS230      0.1154
     48  CE1       38.9250   42.4050    9.5760 C.ar  230  HIS230      0.1986
     49  NE2       38.9030   43.7280    9.5120 N.ar  230  HIS230     -0.2212
     50  N         41.7110   47.4860    8.8220 N.3   232  ASP232     -0.1239
     51  CA        40.5870   48.3880    8.6220 C.3   232  ASP232      0.1674
     52  C         41.0910   49.5730    7.7810 C.2   232  ASP232      0.2266
     53  O         42.2160   50.0650    7.9580 O.2   232  ASP232     -0.2867
     54  CB        39.9820   48.8690    9.9460 C.3   232  ASP232      0.1410
     55  CG        39.3210   47.7680   10.7390 C.2   232  ASP232      0.3668
     56  OD1       38.9980   46.6810   10.1820 O.co2 232  ASP232     -0.2456
     57  OD2       39.1240   47.9820   11.9590 O.co2 232  ASP232     -0.2456
     58  N         38.4750   52.4290   14.5540 N.3   237  THR237     -0.1218
     59  CA        37.4320   51.4410   14.7690 C.3   237  THR237      0.1862
     60  C         37.2470   51.2410   16.2730 C.2   237  THR237      0.2287
     61  O         38.2310   51.0920   16.9780 O.2   237  THR237     -0.2866
     62  CB        37.8020   50.1150   14.1370 C.3   237  THR237      0.1770
     63  OG1       38.0890   50.3060   12.7450 O.3   237  THR237     -0.2211
     64  CG2       36.6630   49.1100   14.2720 C.3   237  THR237      0.0375
     65  N         35.2550   48.6030   18.6410 N.3   239  LEU239     -0.1245
     66  CA        34.5940   47.3050   18.5530 C.3   239  LEU239      0.1561
     67  C         34.0250   46.9000   19.9080 C.2   239  LEU239      0.2260
     68  O         34.7070   47.0400   20.9440 O.2   239  LEU239     -0.2867
     69  CB        35.6060   46.2400   18.1320 C.3   239  LEU239      0.0270
     70  CG        35.0920   44.7890   18.0530 C.3   239  LEU239      0.0019
     71  CD1       34.5550   44.5000   16.6670 C.3   239  LEU239      0.0001
     72  CD2       36.2130   43.8280   18.3780 C.3   239  LEU239      0.0001
     73  N         38.5510   37.3800   18.1660 N.3   248  LEU248     -0.1245
     74  CA        39.4020   38.3890   17.5690 C.3   248  LEU248      0.1561
     75  C         40.8900   38.0290   17.7530 C.2   248  LEU248      0.2260
     76  O         41.3300   37.7540   18.8770 O.2   248  LEU248     -0.2867
     77  CB        39.1250   39.7550   18.1650 C.3   248  LEU248      0.0270
     78  CG        40.0330   40.9070   17.7160 C.3   248  LEU248      0.0019
     79  CD1       39.8820   41.1510   16.2200 C.3   248  LEU248      0.0001
     80  CD2       39.7020   42.1370   18.4980 C.3   248  LEU248      0.0001
     81  N         44.1590   41.9750   11.2290 N.3   287  HIS287     -0.1226
     82  CA        43.4190   41.2100   12.2180 C.3   287  HIS287      0.1752
     83  C         42.3610   40.3300   11.5430 C.2   287  HIS287      0.2596
     84  O         42.0200   40.5000   10.3700 O.2   287  HIS287     -0.2718
     85  CB        42.8130   42.1340   13.2800 C.3   287  HIS287      0.0759
     86  CG        41.9480   43.2080   12.7060 C.ar  287  HIS287      0.0818
     87  ND1       42.4670   44.3310   12.0940 N.ar  287  HIS287     -0.2268
     88  CD2       40.6060   43.3180   12.6180 C.ar  287  HIS287      0.1154
     89  CE1       41.4780   45.0850   11.6570 C.ar  287  HIS287      0.1986
     90  NE2       40.3340   44.5020   11.9730 N.ar  287  HIS287     -0.2212
     91  N         41.9080   39.3370   12.2740 N.am  288  ARG288     -0.1966
     92  CA        40.9030   38.3720   11.7770 C.3   288  ARG288      0.1729
     93  C         40.0030   37.9340   12.9090 C.2   288  ARG288      0.2616
     94  O         40.3030   38.1960   14.0660 O.2   288  ARG288     -0.2715
     95  CB        41.6070   37.1640   11.1620 C.3   288  ARG288      0.0348
     96  CG        42.2820   36.2570   12.1680 C.3   288  ARG288      0.0492
     97  CD        43.1270   35.1910   11.4960 C.3   288  ARG288      0.2205
     98  NE        43.6710   34.2800   12.4870 N.pl3 288  ARG288     -0.0865
     99  CZ        44.2860   33.1250   12.2230 C.cat 288  ARG288      0.5346
    100  NH1       44.4690   32.7250   10.9780 N.pl3 288  ARG288      0.1354
    101  NH2       44.7510   32.3760   13.2260 N.pl3 288  ARG288      0.1354
    102  N         38.9260   37.2250   12.5830 N.am  289  ALA289     -0.1977
    103  CA        38.0800   36.6340   13.5870 C.3   289  ALA289      0.1597
    104  C         37.9450   35.1660   13.2700 C.2   289  ALA289      0.2287
    105  O         37.6040   34.7730   12.1460 O.2   289  ALA289     -0.2864
    106  CB        36.7150   37.3030   13.6300 C.3   289  ALA289      0.0319
    107  N         29.5080   33.6390   18.0450 N.3   297  ARG297     -0.1245
    108  CA        30.1470   34.8640   18.5380 C.3   297  ARG297      0.1563
    109  C         29.4900   36.0340   17.8010 C.2   297  ARG297      0.2260
    110  O         29.2170   35.9300   16.6120 O.2   297  ARG297     -0.2867
    111  CB        31.6390   34.8350   18.2440 C.3   297  ARG297      0.0307
    112  CG        32.4070   36.0400   18.7720 C.3   297  ARG297      0.0489
    113  CD        33.9120   35.8660   18.7090 C.3   297  ARG297      0.2205
    114  NE        34.4980   37.1440   19.0660 N.pl3 297  ARG297     -0.0865
    115  CZ        34.8080   38.1240   18.2140 C.cat 297  ARG297      0.5346
    116  NH1       35.2370   39.2600   18.7070 N.pl3 297  ARG297      0.1354
    117  NH2       34.7410   37.9730   16.8910 N.pl3 297  ARG297      0.1354
    118  N         29.7090   40.4750   17.3380 N.3   299  SER299     -0.1217
    119  CA        30.4460   41.7050   17.5670 C.3   299  SER299      0.1889
    120  C         29.8280   42.8300   16.7430 C.2   299  SER299      0.2288
    121  O         29.1020   42.5620   15.7690 O.2   299  SER299     -0.2866
    122  CB        31.9280   41.5200   17.2240 C.3   299  SER299      0.2089
    123  OG        32.1750   41.3780   15.8270 O.3   299  SER299     -0.2183
    124  N         31.3710   46.4560   15.1010 N.3   301  ALA301     -0.1245
    125  CA        32.4740   47.3580   14.8360 C.3   301  ALA301      0.1562
    126  C         31.8710   48.6950   14.3640 C.2   301  ALA301      0.2260
    127  O         31.0560   48.7110   13.4260 O.2   301  ALA301     -0.2867
    128  CB        33.3510   46.7700   13.7690 C.3   301  ALA301      0.0290
    129  N         33.0670   52.2220   12.7260 N.3   303  PHE303     -0.1241
    130  CA        34.1830   52.8040   12.0100 C.3   303  PHE303      0.1605
    131  C         34.0250   54.3050   11.9340 C.2   303  PHE303      0.2264
    132  O         32.9360   54.7880   11.6140 O.2   303  PHE303     -0.2867
    133  CB        34.2210   52.2420   10.5890 C.3   303  PHE303      0.0534
    134  CG        34.2570   50.7700   10.5430 C.ar  303  PHE303     -0.0203
    135  CD1       35.4370   50.0830   10.7930 C.ar  303  PHE303     -0.0042
    136  CD2       33.1110   50.0430   10.2640 C.ar  303  PHE303     -0.0042
    137  CE1       35.4760   48.6970   10.7780 C.ar  303  PHE303     -0.0003
    138  CE2       33.1490   48.6650   10.2420 C.ar  303  PHE303     -0.0003
    139  CZ        34.3290   47.9900   10.5150 C.ar  303  PHE303     -0.0000
@<TRIPOS>BOND
     1    44    41    1
     2    44    45    1
     3    10     9    1
     4    41    40    1
     5    41    42    1
     6    11     9    1
     7     9     8    2
     8    45    47   ar
     9    45    46   ar
    10    52    53    2
    11    52    51    1
    12    42    43    2
    13    38    37    1
    14    47    49   ar
    15    46    48   ar
    16     8     7    1
    17    34    33    1
    18    34    35    2
    19    51    50    1
    20    51    54    1
    21    33    32    1
    22    33    36    1
    23     7     6    1
    24    37    36    1
    25    37    39    1
    26    49    48   ar
    27     6     5    1
    28    54    55    1
    29    56    55   ar
    30   138   136   ar
    31   138   139   ar
    32     5     2    1
    33   136   134   ar
    34    84    83    2
    35   139   137   ar
    36   134   133    1
    37   134   135   ar
    38   133   130    1
    39    55    57   ar
    40   137   135   ar
    41     2     1    1
    42     2     3    1
    43   100    99    1
    44    18    17    2
    45    95    92    1
    46    95    96    1
    47    81    82    1
    48    97    96    1
    49    97    98    1
    50    83    82    1
    51    83    91   am
    52   132   131    2
    53    89    90   ar
    54    89    87   ar
    55    92    91    1
    56    92    93    1
    57   131   130    1
    58    90    88   ar
    59   130   129    1
    60     3     4    2
    61    87    86   ar
    62   105   104    2
    63    82    85    1
    64    99    98    2
    65    99   101    1
    66    28    26   ar
    67    28    30   ar
    68    17    16    1
    69    17    19   am
    70    26    25   ar
    71   102    93   am
    72   102   103    1
    73    88    86   ar
    74    86    85    1
    75    63    62    1
    76    13    16    1
    77    13    12    1
    78    13    14    1
    79    31    30    1
    80    93    94    2
    81    30    29   ar
    82   104   103    1
    83   127   126    2
    84    14    15    2
    85   103   106    1
    86    21    20    1
    87    21    22    1
    88    21    24    1
    89   128   125    1
    90    25    24    1
    91    25    27   ar
    92    62    64    1
    93    62    59    1
    94    22    23    2
    95    29    27   ar
    96   126   125    1
    97    58    59    1
    98    59    60    1
    99   125   124    1
   100   121   120    2
   101   123   122    1
   102    79    78    1
   103    60    61    2
   104   110   109    2
   105    71    70    1
   106   120   119    1
   107   117   115    1
   108   122   119    1
   109   118   119    1
   110    74    75    1
   111    74    77    1
   112    74    73    1
   113    78    77    1
   114    78    80    1
   115    75    76    2
   116   109   108    1
   117   107   108    1
   118    70    69    1
   119    70    72    1
   120    69    66    1
   121   115   116    1
   122   115   114    2
   123   111   108    1
   124   111   112    1
   125    66    65    1
   126    66    67    1
   127   113   112    1
   128   113   114    1
   129    67    68    2
