@<TRIPOS>MOLECULE
tmp/5o9xA00.pdb
 178 165 0 0 0
SMALL
GASTEIGER

@<TRIPOS>ATOM
      1  N          9.3530   32.6870    8.2900 N.3    28  THR28      -0.1203
      2  CA        10.3580   31.6280    8.3740 C.3    28  THR28       0.1994
      3  C         10.6240   31.2550    9.8360 C.2    28  THR28       0.2617
      4  O         10.8460   30.0470   10.1470 O.2    28  THR28      -0.2717
      5  CB        11.6460   32.1700    7.7180 C.3    28  THR28       0.1784
      6  OG1       11.3680   32.4820    6.3490 O.3    28  THR28      -0.2211
      7  CG2       12.7660   31.1170    7.7060 C.3    28  THR28       0.0376
      8  N         10.7360   32.2840   10.6950 N.am   29  ALA29      -0.1979
      9  CA        11.1680   32.1000   12.1170 C.3    29  ALA29       0.1597
     10  C         10.2570   32.7700   13.1720 C.2    29  ALA29       0.2287
     11  O         10.6820   32.9310   14.3080 O.2    29  ALA29      -0.2864
     12  CB        12.6180   32.6170   12.2950 C.3    29  ALA29       0.0319
     13  N          7.8310   38.9460   12.5560 N.3    32  ARG32      -0.1245
     14  CA         8.9360   39.8700   12.4840 C.3    32  ARG32       0.1563
     15  C          8.5650   41.0430   11.5860 C.2    32  ARG32       0.2260
     16  O          8.0920   40.8450   10.4680 O.2    32  ARG32      -0.2867
     17  CB        10.1390   39.1020   11.8680 C.3    32  ARG32       0.0307
     18  CG        11.4290   39.8400   12.1260 C.3    32  ARG32       0.0489
     19  CD        12.5720   38.9340   11.6760 C.3    32  ARG32       0.2205
     20  NE        12.8270   37.7590   12.5160 N.pl3  32  ARG32      -0.0865
     21  CZ        13.9240   36.9590   12.2780 C.cat  32  ARG32       0.5346
     22  NH1       14.8530   37.3410   11.3500 N.pl3  32  ARG32       0.1354
     23  NH2       14.2000   35.8800   13.0330 N.pl3  32  ARG32       0.1354
     24  N         16.7460   39.2280   15.2440 N.3    68  ALA68      -0.1231
     25  CA        17.9500   38.4040   14.7810 C.3    68  ALA68       0.1694
     26  C         18.8560   39.1510   13.7690 C.2    68  ALA68       0.2592
     27  O         19.4610   40.1460   14.1630 O.2    68  ALA68      -0.2718
     28  CB        17.4390   37.0990   14.1990 C.3    68  ALA68       0.0304
     29  N         18.8980   38.7690   12.4610 N.am   69  HIS69      -0.1976
     30  CA        19.7640   39.4410   11.4840 C.3    69  HIS69       0.1656
     31  C         19.1780   40.7750   10.9760 C.2    69  HIS69       0.2291
     32  O         19.9080   41.5700   10.3200 O.2    69  HIS69      -0.2864
     33  CB        20.0010   38.5390   10.2050 C.3    69  HIS69       0.0771
     34  CG        18.9170   38.6230    9.1890 C.ar   69  HIS69       0.0820
     35  ND1       17.7900   37.8070    9.2410 N.ar   69  HIS69      -0.2267
     36  CD2       18.7540   39.4220    8.1040 C.ar   69  HIS69       0.1154
     37  CE1       16.9960   38.0990    8.2210 C.ar   69  HIS69       0.1986
     38  NE2       17.5630   39.0760    7.5210 N.ar   69  HIS69      -0.2212
     39  N          9.8180   34.9170   18.6060 N.3    78  LYS78      -0.1245
     40  CA         9.9820   33.4560   18.3920 C.3    78  LYS78       0.1561
     41  C          9.5300   32.5340   19.5400 C.2    78  LYS78       0.2260
     42  O         10.0030   32.7070   20.6900 O.2    78  LYS78      -0.2867
     43  CB        11.4580   33.1890   18.2370 C.3    78  LYS78       0.0271
     44  CG        11.6220   31.9960   17.3390 C.3    78  LYS78       0.0035
     45  CD        13.0570   31.7310   17.0020 C.3    78  LYS78       0.0206
     46  CE        13.7180   30.9880   18.1320 C.3    78  LYS78       0.1093
     47  NZ        15.0690   30.6260   17.6420 N.3    78  LYS78      -0.1314
     48  N         12.0650   24.6740   17.7650 N.3    86  MET86      -0.1245
     49  CA        11.0830   25.6220   17.3050 C.3    86  MET86       0.1570
     50  C          9.6880   25.0960   17.5170 C.2    86  MET86       0.2261
     51  O          9.4070   23.9000   17.3060 O.2    86  MET86      -0.2867
     52  CB        11.2410   25.9080   15.8180 C.3    86  MET86       0.0387
     53  CG        12.5960   26.5210   15.4360 C.3    86  MET86       0.0595
     54  SD        12.7860   28.1060   16.2360 S.3    86  MET86      -0.1393
     55  CE        11.8150   29.0220   15.0080 C.3    86  MET86       0.0692
     56  N         25.8330   37.2420   14.4650 N.3   283  ASP283     -0.1239
     57  CA        24.8250   38.2790   14.1620 C.3   283  ASP283      0.1674
     58  C         24.2570   38.8460   15.4630 C.2   283  ASP283      0.2266
     59  O         24.7720   38.5290   16.5430 O.2   283  ASP283     -0.2867
     60  CB        23.7600   37.8010   13.1230 C.3   283  ASP283      0.1410
     61  CG        22.8560   36.7570   13.6760 C.2   283  ASP283      0.3668
     62  OD1       23.1980   36.1800   14.7660 O.co2 283  ASP283     -0.2456
     63  OD2       21.7900   36.4940   13.0380 O.co2 283  ASP283     -0.2456
     64  N         21.5560   38.4760   17.3810 N.3   285  ASP285     -0.1239
     65  CA        21.1130   37.5970   18.5250 C.3   285  ASP285      0.1674
     66  C         22.0600   36.3830   18.7580 C.2   285  ASP285      0.2266
     67  O         21.7350   35.4020   19.4840 O.2   285  ASP285     -0.2867
     68  CB        19.6600   37.1170   18.3730 C.3   285  ASP285      0.1410
     69  CG        19.4600   36.1510   17.2140 C.2   285  ASP285      0.3668
     70  OD1       20.3230   36.2060   16.3090 O.co2 285  ASP285     -0.2456
     71  OD2       18.4270   35.3650   17.1730 O.co2 285  ASP285     -0.2456
     72  N         23.9190   33.0640   14.3390 N.3   288  ARG288     -0.1245
     73  CA        24.6250   32.7430   13.0750 C.3   288  ARG288      0.1563
     74  C         26.0940   32.9920   13.3320 C.2   288  ARG288      0.2260
     75  O         26.4420   33.9620   14.0360 O.2   288  ARG288     -0.2867
     76  CB        24.2170   33.7210   11.9640 C.3   288  ARG288      0.0307
     77  CG        22.7690   33.5770   11.5320 C.3   288  ARG288      0.0489
     78  CD        22.5470   34.5630   10.3690 C.3   288  ARG288      0.2205
     79  NE        21.1120   34.6230   10.0150 N.pl3 288  ARG288     -0.0865
     80  CZ        20.6630   35.2240    8.9200 C.cat 288  ARG288      0.5346
     81  NH1       21.5200   35.8310    8.1080 N.pl3 288  ARG288      0.1354
     82  NH2       19.3750   35.3080    8.6670 N.pl3 288  ARG288      0.1354
     83  N         20.6110   27.6020   -0.8930 N.3   338  TYR338     -0.1241
     84  CA        21.5780   28.6980   -0.8430 C.3   338  TYR338      0.1605
     85  C         23.0020   28.1280   -0.7110 C.2   338  TYR338      0.2264
     86  O         23.9720   28.9250   -0.7870 O.2   338  TYR338     -0.2867
     87  CB        21.3040   29.5870    0.3980 C.3   338  TYR338      0.0534
     88  CG        20.0510   30.4280    0.1620 C.ar  338  TYR338     -0.0201
     89  CD1       20.1050   31.5110   -0.7240 C.ar  338  TYR338     -0.0009
     90  CD2       18.8270   30.0390    0.6840 C.ar  338  TYR338     -0.0009
     91  CE1       18.9890   32.2630   -1.0010 C.ar  338  TYR338      0.0417
     92  CE2       17.6820   30.8090    0.4270 C.ar  338  TYR338      0.0417
     93  CZ        17.7870   31.8800   -0.4640 C.ar  338  TYR338      0.1957
     94  OH        16.6640   32.6140   -0.8090 O.3   338  TYR338     -0.2866
     95  N         14.3410   26.6590    3.2980 N.3   360  THR360     -0.1203
     96  CA        14.9910   27.6000    4.1870 C.3   360  THR360      0.1994
     97  C         14.2800   27.6350    5.5360 C.2   360  THR360      0.2618
     98  O         13.0210   27.5980    5.6070 O.2   360  THR360     -0.2717
     99  CB        15.0370   28.9820    3.5310 C.3   360  THR360      0.1784
    100  OG1       16.1190   28.9510    2.6110 O.3   360  THR360     -0.2211
    101  CG2       15.2980   30.1100    4.5240 C.3   360  THR360      0.0376
    102  N         15.0880   27.6950    6.5900 N.am  361  GLY361     -0.1942
    103  CA        14.5190   27.8650    7.9660 C.3   361  GLY361      0.2014
    104  C         14.9870   26.6250    8.7670 C.2   361  GLY361      0.2638
    105  O         14.7010   25.4750    8.3980 O.2   361  GLY361     -0.2714
    106  N         15.6540   26.8550    9.9050 N.am  362  VAL362     -0.1977
    107  CA        16.1960   25.8080   10.7820 C.3   362  VAL362      0.1596
    108  C         15.2030   24.6390   11.1100 C.2   362  VAL362      0.2287
    109  O         15.5650   23.4790   11.1560 O.2   362  VAL362     -0.2864
    110  CB        16.6640   26.4510   12.1550 C.3   362  VAL362      0.0276
    111  CG1       17.2360   25.3770   13.0880 C.3   362  VAL362      0.0022
    112  CG2       17.7430   27.4840   11.9080 C.3   362  VAL362      0.0022
    113  N         22.8470   26.3350    7.3750 N.3   379  GLU379     -0.1245
    114  CA        22.5080   27.1420    6.2500 C.3   379  GLU379      0.1567
    115  C         23.7480   27.9140    5.9270 C.2   379  GLU379      0.2260
    116  O         24.5750   28.1300    6.8490 O.2   379  GLU379     -0.2867
    117  CB        21.3370   28.0900    6.6210 C.3   379  GLU379      0.0388
    118  CG        20.0760   27.2440    6.8650 C.3   379  GLU379      0.1160
    119  CD        18.8860   28.1190    7.2120 C.2   379  GLU379      0.3649
    120  OE1       18.7850   28.5750    8.3720 O.co2 379  GLU379     -0.2457
    121  OE2       18.0710   28.3520    6.3330 O.co2 379  GLU379     -0.2457
    122  N         24.1870   30.9270    5.5650 N.3   381  ASN381     -0.1240
    123  CA        24.2530   32.1800    6.3260 C.3   381  ASN381      0.1653
    124  C         24.8720   31.9600    7.7220 C.2   381  ASN381      0.2266
    125  O         25.0420   32.9280    8.4810 O.2   381  ASN381     -0.2867
    126  CB        22.8150   32.8070    6.4870 C.3   381  ASN381      0.1155
    127  CG        21.8420   31.9200    7.2710 C.2   381  ASN381      0.2627
    128  OD1       22.2460   31.1580    8.1240 O.2   381  ASN381     -0.2716
    129  ND2       20.5420   32.0480    6.9940 N.am  381  ASN381     -0.0877
    130  N         23.6760   29.7250   10.3080 N.3   383  HIS383     -0.1241
    131  CA        22.8740   28.9120   11.2470 C.3   383  HIS383      0.1621
    132  C         23.2160   27.4670   11.1660 C.2   383  HIS383      0.2264
    133  O         23.4800   26.9360   10.0630 O.2   383  HIS383     -0.2867
    134  CB        21.4050   28.9880   10.8170 C.3   383  HIS383      0.0745
    135  CG        20.6560   30.0470   11.5220 C.ar  383  HIS383      0.0817
    136  ND1       20.2390   29.9080   12.8500 N.ar  383  HIS383     -0.2268
    137  CD2       20.2640   31.2790   11.1200 C.ar  383  HIS383      0.1154
    138  CE1       19.5580   31.0020   13.1950 C.ar  383  HIS383      0.1986
    139  NE2       19.5620   31.8460   12.1680 N.ar  383  HIS383     -0.2212
    140  N         12.9870   33.4290   -4.3690 N.3   504  ARG504     -0.1245
    141  CA        11.9000   33.0010   -3.4770 C.3   504  ARG504      0.1563
    142  C         11.6570   34.1840   -2.5440 C.2   504  ARG504      0.2260
    143  O         12.5800   35.0020   -2.2710 O.2   504  ARG504     -0.2867
    144  CB        12.2200   31.7850   -2.6070 C.3   504  ARG504      0.0307
    145  CG        13.5920   31.8800   -1.8860 C.3   504  ARG504      0.0489
    146  CD        13.8240   30.7090   -0.8900 C.3   504  ARG504      0.2205
    147  NE        13.0580   30.8840    0.3580 N.pl3 504  ARG504     -0.0865
    148  CZ        13.4020   31.7150    1.3700 C.cat 504  ARG504      0.5346
    149  NH1       14.4630   32.5410    1.3010 N.pl3 504  ARG504      0.1354
    150  NH2       12.6520   31.7470    2.4590 N.pl3 504  ARG504      0.1354
    151  N         11.2390   36.0900    0.8110 N.3   506  SER506     -0.1202
    152  CA        11.7210   36.0170    2.1800 C.3   506  SER506      0.2020
    153  C         10.5200   35.8810    3.1180 C.2   506  SER506      0.2619
    154  O          9.4590   36.5060    2.8610 O.2   506  SER506     -0.2717
    155  CB        12.5040   37.3410    2.5000 C.3   506  SER506      0.2103
    156  OG        12.7850   37.4020    3.9050 O.3   506  SER506     -0.2182
    157  N         10.7150   35.1300    4.2140 N.am  507  GLY507     -0.1942
    158  CA         9.7720   35.0410    5.3570 C.3   507  GLY507      0.2014
    159  C         10.2590   35.7740    6.5620 C.2   507  GLY507      0.2639
    160  O          9.7120   35.5510    7.6940 O.2   507  GLY507     -0.2714
    161  N         11.2990   36.6300    6.4060 N.am  508  THR508     -0.1950
    162  CA        11.7590   37.4560    7.5570 C.3   508  THR508      0.1897
    163  C         11.7130   38.9780    7.2380 C.2   508  THR508      0.2313
    164  O         11.7670   39.8060    8.1620 O.2   508  THR508     -0.2863
    165  CB        13.1900   37.1150    8.0520 C.3   508  THR508      0.1794
    166  OG1       14.1500   37.3780    7.0000 O.3   508  THR508     -0.2208
    167  CG2       13.3200   35.6670    8.5150 C.3   508  THR508      0.0378
    168  N         14.3070   37.1190   -2.5700 N.3   513  ARG513     -0.1245
    169  CA        15.7610   36.8960   -2.6580 C.3   513  ARG513      0.1563
    170  C         16.1200   36.2150   -3.9530 C.2   513  ARG513      0.2260
    171  O         15.4730   35.2470   -4.3190 O.2   513  ARG513     -0.2867
    172  CB        16.2220   35.9820   -1.5000 C.3   513  ARG513      0.0307
    173  CG        15.9170   36.5500   -0.1170 C.3   513  ARG513      0.0489
    174  CD        16.7510   35.8480    0.9800 C.3   513  ARG513      0.2205
    175  NE        16.3270   36.2800    2.3520 N.pl3 513  ARG513     -0.0865
    176  CZ        16.6100   37.4840    2.8890 C.cat 513  ARG513      0.5346
    177  NH1       17.2590   38.4270    2.1480 N.pl3 513  ARG513      0.1354
    178  NH2       16.1960   37.7420    4.1700 N.pl3 513  ARG513      0.1354
@<TRIPOS>BOND
     1   140   141    1
     2   171   170    2
     3   170   169    1
     4   141   144    1
     5   141   142    1
     6   169   168    1
     7   169   172    1
     8   144   145    1
     9   142   143    2
    10   145   146    1
    11   172   173    1
    12    91    89   ar
    13    91    93   ar
    14    83    84    1
    15   146   147    1
    16    84    85    1
    17    84    87    1
    18    94    93    1
    19    86    85    2
    20    89    88   ar
    21    93    92   ar
    22   173   174    1
    23    88    87    1
    24    88    90   ar
    25   147   148    2
    26    92    90   ar
    27   151   152    1
    28   174   175    1
    29   149   148    1
    30   148   150    1
    31   177   176    1
    32   152   155    1
    33   152   153    1
    34   175   176    2
    35   155   156    1
    36   100    99    1
    37   154   153    2
    38   176   178    1
    39   153   157   am
    40    95    96    1
    41    99    96    1
    42    99   101    1
    43    96    97    1
    44   157   158    1
    45   158   159    1
    46    97    98    2
    47    97   102   am
    48   122   123    1
    49   115   114    1
    50   115   116    2
    51   114   117    1
    52   114   113    1
    53   123   126    1
    54   123   124    1
    55   121   119   ar
    56     6     5    1
    57   161   159   am
    58   161   162    1
    59   126   127    1
    60   159   160    2
    61   102   103    1
    62   117   118    1
    63   118   119    1
    64   129   127   am
    65   166   165    1
    66   119   120   ar
    67   163   162    1
    68   163   164    2
    69   127   128    2
    70    38    36   ar
    71    38    37   ar
    72   162   165    1
    73     7     5    1
    74     5     2    1
    75   124   125    2
    76   103   104    1
    77   165   167    1
    78    36    34   ar
    79    81    80    1
    80    37    35   ar
    81     1     2    1
    82     2     3    1
    83   105   104    2
    84    82    80    1
    85   104   106   am
    86    80    79    2
    87    34    35   ar
    88    34    33    1
    89     3     4    2
    90     3     8   am
    91   106   107    1
    92    79    78    1
    93   133   132    2
    94    33    30    1
    95   130   131    1
    96    32    31    2
    97    78    77    1
    98    16    15    2
    99     8     9    1
   100   107   108    1
   101   107   110    1
   102   134   131    1
   103   134   135    1
   104    31    30    1
   105   108   109    2
   106   137   135   ar
   107   137   139   ar
   108   132   131    1
   109    22    21    1
   110    30    29    1
   111   135   136   ar
   112    77    76    1
   113    15    14    1
   114    19    18    1
   115    19    20    1
   116    17    18    1
   117    17    14    1
   118   112   110    1
   119    76    73    1
   120     9    12    1
   121     9    10    1
   122   110   111    1
   123   139   138   ar
   124    21    20    2
   125    21    23    1
   126    29    26   am
   127    14    13    1
   128   136   138   ar
   129    63    61   ar
   130    73    74    1
   131    73    72    1
   132    60    61    1
   133    60    57    1
   134    10    11    2
   135    74    75    2
   136    61    62   ar
   137    26    27    2
   138    26    25    1
   139    57    56    1
   140    57    58    1
   141    28    25    1
   142    25    24    1
   143    55    54    1
   144    53    52    1
   145    53    54    1
   146    58    59    2
   147    52    49    1
   148    70    69   ar
   149    45    44    1
   150    45    46    1
   151    71    69   ar
   152    69    68    1
   153    49    50    1
   154    49    48    1
   155    51    50    2
   156    44    43    1
   157    64    65    1
   158    47    46    1
   159    43    40    1
   160    68    65    1
   161    40    39    1
   162    40    41    1
   163    65    66    1
   164    66    67    2
   165    41    42    2
