@<TRIPOS>MOLECULE
tmp/5o9yA00.pdb
 203 195 0 0 0
SMALL
GASTEIGER

@<TRIPOS>ATOM
      1  N        -13.9700    5.9940   30.8800 N.3    32  GLN32      -0.1245
      2  CA       -13.5430    7.3900   30.8360 C.3    32  GLN32       0.1566
      3  C        -14.6480    8.2740   31.4030 C.2    32  GLN32       0.2260
      4  O        -15.7970    8.1920   30.9660 O.2    32  GLN32      -0.2867
      5  CB       -13.2260    7.8280   29.4020 C.3    32  GLN32       0.0367
      6  CG       -12.5570    9.1940   29.2930 C.3    32  GLN32       0.0905
      7  CD       -11.1270    9.1880   29.7990 C.2    32  GLN32       0.2608
      8  OE1      -10.3180    8.3750   29.3670 O.2    32  GLN32      -0.2717
      9  NE2      -10.8080   10.0990   30.7130 N.am   32  GLN32      -0.0878
     10  N        -16.1170   12.1790   32.4040 N.3    34  GLN34      -0.1245
     11  CA       -16.0860   13.5920   32.0010 C.3    34  GLN34       0.1566
     12  C        -16.4960   14.5000   33.1520 C.2    34  GLN34       0.2260
     13  O        -17.0410   14.0410   34.1600 O.2    34  GLN34      -0.2867
     14  CB       -17.0420   13.8490   30.8300 C.3    34  GLN34       0.0367
     15  CG       -16.7560   13.0590   29.5630 C.3    34  GLN34       0.0905
     16  CD       -15.3760   13.3070   28.9760 C.2    34  GLN34       0.2608
     17  OE1      -14.7530   12.3930   28.4400 O.2    34  GLN34      -0.2717
     18  NE2      -14.8920   14.5420   29.0730 N.am   34  GLN34      -0.0878
     19  N         -9.3280    7.1640   27.1180 N.3    67  TYR67      -0.1227
     20  CA        -9.0640    8.2380   26.1510 C.3    67  TYR67       0.1736
     21  C         -8.0900    9.2970   26.6570 C.2    67  TYR67       0.2595
     22  O         -7.4850   10.0020   25.8520 O.2    67  TYR67      -0.2718
     23  CB       -10.3720    8.9110   25.7300 C.3    67  TYR67       0.0548
     24  CG       -11.3180    7.9840   25.0130 C.ar   67  TYR67      -0.0200
     25  CD1      -12.1910    7.1620   25.7250 C.ar   67  TYR67      -0.0009
     26  CD2      -11.3470    7.9220   23.6170 C.ar   67  TYR67      -0.0009
     27  CE1      -13.0650    6.3060   25.0720 C.ar   67  TYR67       0.0417
     28  CE2      -12.2190    7.0680   22.9560 C.ar   67  TYR67       0.0417
     29  CZ       -13.0740    6.2610   23.6870 C.ar   67  TYR67       0.1957
     30  OH       -13.9420    5.4170   23.0380 O.3    67  TYR67      -0.2866
     31  N         -7.9460    9.4340   27.9750 N.am   68  ALA68      -0.1980
     32  CA        -7.0480   10.4440   28.5300 C.3    68  ALA68       0.1597
     33  C         -6.5890   10.0990   29.9390 C.2    68  ALA68       0.2287
     34  O         -7.4060    9.7510   30.7890 O.2    68  ALA68      -0.2864
     35  CB        -7.7210   11.8080   28.5210 C.3    68  ALA68       0.0319
     36  N         -5.3180    6.1430   24.4710 N.3    92  ASP92      -0.1239
     37  CA        -5.0100    7.2460   23.5590 C.3    92  ASP92       0.1674
     38  C         -3.8780    8.0860   24.1480 C.2    92  ASP92       0.2266
     39  O         -3.8190    8.2870   25.3590 O.2    92  ASP92      -0.2867
     40  CB        -6.2410    8.1200   23.3070 C.3    92  ASP92       0.1410
     41  CG        -7.3430    7.3820   22.5740 C.2    92  ASP92       0.3668
     42  OD1       -8.0130    6.5290   23.1970 O.co2  92  ASP92      -0.2456
     43  OD2       -7.5540    7.6490   21.3700 O.co2  92  ASP92      -0.2456
     44  N         -3.2850   11.2600   23.0480 N.3    94  SER94      -0.1202
     45  CA        -3.7570   12.6380   22.9860 C.3    94  SER94       0.2020
     46  C         -4.8420   12.9160   24.0250 C.2    94  SER94       0.2619
     47  O         -5.3140   12.0080   24.7110 O.2    94  SER94      -0.2717
     48  CB        -4.3040   12.9180   21.5860 C.3    94  SER94       0.2103
     49  OG        -5.3990   12.0680   21.2900 O.3    94  SER94      -0.2182
     50  N         -5.2220   14.1870   24.1210 N.am   95  GLU95      -0.1965
     51  CA        -6.3330   14.6390   24.9630 C.3    95  GLU95       0.1718
     52  C         -6.9800   15.8480   24.2720 C.2    95  GLU95       0.2458
     53  O         -6.3590   16.4360   23.3840 O.2    95  GLU95      -0.2730
     54  CB        -5.8280   14.9570   26.3810 C.3    95  GLU95       0.0428
     55  CG        -4.7740   16.0590   26.4740 C.3    95  GLU95       0.1163
     56  CD        -5.2970   17.3840   27.0080 C.2    95  GLU95       0.3649
     57  OE1       -6.4940   17.6960   26.8300 O.co2  95  GLU95      -0.2457
     58  OE2       -4.4920   18.1260   27.6100 O.co2  95  GLU95      -0.2457
     59  N         -8.2240   16.2180   24.6500 N.am   96  PRO96      -0.2727
     60  CA        -8.9710   17.2340   23.8780 C.3    96  PRO96       0.1402
     61  C         -8.2320   18.5470   23.5830 C.2    96  PRO96       0.2269
     62  O         -8.3890   19.0980   22.4910 O.2    96  PRO96      -0.2865
     63  CB       -10.2060   17.4910   24.7480 C.3    96  PRO96       0.0296
     64  CG       -10.4070   16.2100   25.4780 C.3    96  PRO96       0.0237
     65  CD        -9.0190   15.7290   25.7930 C.3    96  PRO96       0.0939
     66  N         -4.1550   17.6480   20.8750 N.3    99  SER99      -0.1202
     67  CA        -4.3740   16.6640   19.8150 C.3    99  SER99       0.2020
     68  C         -3.9600   17.2820   18.4910 C.2    99  SER99       0.2619
     69  O         -3.7870   18.5000   18.3920 O.2    99  SER99      -0.2717
     70  CB        -5.8540   16.2910   19.7200 C.3    99  SER99       0.2103
     71  OG        -6.3110   15.6110   20.8720 O.3    99  SER99      -0.2182
     72  N         -3.8240   16.4380   17.4730 N.am  100  ILE100     -0.1965
     73  CA        -3.6520   16.9170   16.1040 C.3   100  ILE100      0.1727
     74  C         -5.0000   17.5020   15.6860 C.2   100  ILE100      0.2616
     75  O         -5.9990   16.7840   15.6230 O.2   100  ILE100     -0.2715
     76  CB        -3.2070   15.7910   15.1430 C.3   100  ILE100      0.0290
     77  CG1       -1.8120   15.2820   15.5350 C.3   100  ILE100      0.0022
     78  CG2       -3.1980   16.2920   13.6980 C.3   100  ILE100      0.0023
     79  CD1       -1.4460   13.9370   14.9470 C.3   100  ILE100      0.0001
     80  N         -5.0250   18.8090   15.4370 N.am  101  ASN101     -0.1958
     81  CA        -6.2610   19.5150   15.1130 C.3   101  ASN101      0.1819
     82  C         -6.6440   19.2400   13.6670 C.2   101  ASN101      0.2621
     83  O         -5.9460   19.6640   12.7590 O.2   101  ASN101     -0.2715
     84  CB        -6.0940   21.0240   15.3440 C.3   101  ASN101      0.1195
     85  CG        -7.4240   21.7570   15.4090 C.2   101  ASN101      0.2630
     86  OD1       -8.3200   21.5170   14.6020 O.2   101  ASN101     -0.2716
     87  ND2       -7.5580   22.6590   16.3770 N.am  101  ASN101     -0.0877
     88  N         -7.7550   18.5430   13.4510 N.am  102  ARG102     -0.1963
     89  CA        -8.1800   18.2080   12.0870 C.3   102  ARG102      0.1729
     90  C         -8.5120   19.4360   11.2170 C.2   102  ARG102      0.2616
     91  O         -8.4370   19.3500    9.9910 O.2   102  ARG102     -0.2715
     92  CB        -9.3490   17.2110   12.1000 C.3   102  ARG102      0.0348
     93  CG       -10.6890   17.7480   12.5890 C.3   102  ARG102      0.0492
     94  CD       -11.7970   16.7190   12.4200 C.3   102  ARG102      0.2205
     95  NE       -11.7270   15.6120   13.3820 N.pl3 102  ARG102     -0.0865
     96  CZ       -12.1820   15.6380   14.6390 C.cat 102  ARG102      0.5346
     97  NH1      -12.7360   16.7350   15.1590 N.pl3 102  ARG102      0.1354
     98  NH2      -12.0710   14.5480   15.3970 N.pl3 102  ARG102      0.1354
     99  N         -8.8610   20.5570   11.8550 N.am  103  GLU103     -0.1977
    100  CA        -9.1480   21.8290   11.1650 C.3   103  GLU103      0.1602
    101  C         -7.8850   22.6290   10.7990 C.2   103  GLU103      0.2287
    102  O         -7.9280   23.4880    9.9100 O.2   103  GLU103     -0.2864
    103  CB       -10.0550   22.7200   12.0330 C.3   103  GLU103      0.0415
    104  CG       -11.3420   22.0710   12.5380 C.3   103  GLU103      0.1163
    105  CD       -12.2530   21.5790   11.4260 C.2   103  GLU103      0.3649
    106  OE1      -12.2490   22.1800   10.3300 O.co2 103  GLU103     -0.2457
    107  OE2      -12.9860   20.5930   11.6540 O.co2 103  GLU103     -0.2457
    108  N         -3.8790    8.6510   17.4630 N.3   134  GLY134     -0.1210
    109  CA        -4.9220    9.5790   17.0370 C.3   134  GLY134      0.1956
    110  C         -6.2820    8.9120   17.0940 C.2   134  GLY134      0.2612
    111  O         -6.3770    7.6810   17.1170 O.2   134  GLY134     -0.2717
    112  N         -7.3300    9.7300   17.1360 N.am  135  ASN135     -0.1960
    113  CA        -8.7090    9.2420   17.1300 C.3   135  ASN135      0.1819
    114  C         -9.5530   10.0830   16.1820 C.2   135  ASN135      0.2621
    115  O         -9.8000   11.2550   16.4560 O.2   135  ASN135     -0.2715
    116  CB        -9.3120    9.2810   18.5350 C.3   135  ASN135      0.1195
    117  CG       -10.7160    8.7060   18.5780 C.2   135  ASN135      0.2630
    118  OD1      -10.9240    7.5390   18.2540 O.2   135  ASN135     -0.2716
    119  ND2      -11.6860    9.5250   18.9620 N.am  135  ASN135     -0.0877
    120  N         -9.9680    9.4870   15.0650 N.am  136  GLU136     -0.1963
    121  CA       -10.8660   10.1390   14.1060 C.3   136  GLU136      0.1733
    122  C        -10.3680   11.5310   13.7190 C.2   136  GLU136      0.2616
    123  O        -11.1270   12.5020   13.7570 O.2   136  GLU136     -0.2715
    124  CB       -12.2840   10.2370   14.6860 C.3   136  GLU136      0.0429
    125  CG       -12.8390    8.9240   15.2020 C.3   136  GLU136      0.1163
    126  CD       -14.3090    8.9960   15.5630 C.2   136  GLU136      0.3649
    127  OE1      -14.8360   10.1080   15.7990 O.co2 136  GLU136     -0.2457
    128  OE2      -14.9410    7.9240   15.6020 O.co2 136  GLU136     -0.2457
    129  N         -9.0890   11.6240   13.3590 N.am  137  VAL137     -0.1977
    130  CA        -8.4840   12.9210   13.0410 C.3   137  VAL137      0.1596
    131  C         -9.0760   13.3570   11.6970 C.2   137  VAL137      0.2287
    132  O         -9.9270   14.2450   11.6610 O.2   137  VAL137     -0.2864
    133  CB        -6.9370   12.8770   13.0740 C.3   137  VAL137      0.0276
    134  CG1       -6.3550   14.2560   12.8000 C.3   137  VAL137      0.0022
    135  CG2       -6.4520   12.3630   14.4270 C.3   137  VAL137      0.0022
    136  N        -20.4650    1.5270   14.4400 N.3   204  TYR204     -0.1241
    137  CA       -21.8500    1.6470   14.9210 C.3   204  TYR204      0.1605
    138  C        -22.8970    1.2110   13.8830 C.2   204  TYR204      0.2264
    139  O        -24.0640    1.6040   13.9670 O.2   204  TYR204     -0.2867
    140  CB       -22.1040    3.0900   15.3730 C.3   204  TYR204      0.0534
    141  CG       -21.2970    3.4870   16.5870 C.ar  204  TYR204     -0.0201
    142  CD1      -21.7990    3.2860   17.8730 C.ar  204  TYR204     -0.0009
    143  CD2      -20.0300    4.0570   16.4560 C.ar  204  TYR204     -0.0009
    144  CE1      -21.0670    3.6430   18.9950 C.ar  204  TYR204      0.0417
    145  CE2      -19.2890    4.4200   17.5740 C.ar  204  TYR204      0.0417
    146  CZ       -19.8120    4.2090   18.8410 C.ar  204  TYR204      0.1957
    147  OH       -19.0930    4.5620   19.9570 O.3   204  TYR204     -0.2866
    148  N        -14.5420    1.0540   19.1430 N.3   235  GLU235     -0.1245
    149  CA       -15.8300    1.3250   19.7730 C.3   235  GLU235      0.1567
    150  C        -16.9110    0.5080   19.0690 C.2   235  GLU235      0.2260
    151  O        -16.8350    0.2840   17.8590 O.2   235  GLU235     -0.2867
    152  CB       -16.1970    2.8040   19.6620 C.3   235  GLU235      0.0388
    153  CG       -15.3650    3.7460   20.5160 C.3   235  GLU235      0.1160
    154  CD       -15.6480    5.2090   20.2240 C.2   235  GLU235      0.3649
    155  OE1      -16.6480    5.5130   19.5420 O.co2 235  GLU235     -0.2457
    156  OE2      -14.8610    6.0620   20.6740 O.co2 235  GLU235     -0.2457
    157  N        -24.2190    0.7390   18.9480 N.3   238  CYS238     -0.1235
    158  CA       -25.2870    1.6190   18.4780 C.3   238  CYS238      0.1677
    159  C        -26.4610    1.5200   19.4410 C.2   238  CYS238      0.2270
    160  O        -26.8610    0.4160   19.8120 O.2   238  CYS238     -0.2867
    161  CB       -25.7430    1.2140   17.0760 C.3   238  CYS238      0.0956
    162  SG       -27.1280    2.1800   16.4260 S.3   238  CYS238     -0.0801
    163  N        -18.9050    0.8330   23.7840 N.3   267  TYR267     -0.1227
    164  CA       -18.9290    2.2150   24.2520 C.3   267  TYR267      0.1736
    165  C        -20.2660    2.4560   24.9650 C.2   267  TYR267      0.2595
    166  O        -21.3010    2.4310   24.3040 O.2   267  TYR267     -0.2718
    167  CB       -18.7620    3.1950   23.0830 C.3   267  TYR267      0.0548
    168  CG       -18.6290    4.6220   23.5570 C.ar  267  TYR267     -0.0200
    169  CD1      -19.7570    5.4120   23.7810 C.ar  267  TYR267     -0.0009
    170  CD2      -17.3770    5.1730   23.8300 C.ar  267  TYR267     -0.0009
    171  CE1      -19.6420    6.7130   24.2460 C.ar  267  TYR267      0.0417
    172  CE2      -17.2510    6.4740   24.2910 C.ar  267  TYR267      0.0417
    173  CZ       -18.3870    7.2400   24.4990 C.ar  267  TYR267      0.1957
    174  OH       -18.2670    8.5310   24.9570 O.3   267  TYR267     -0.2866
    175  N        -20.2950    2.6730   26.2840 N.am  268  MET268     -0.1979
    176  CA       -19.1470    2.6220   27.2030 C.3   268  MET268      0.1605
    177  C        -19.6300    2.2440   28.6100 C.2   268  MET268      0.2287
    178  O        -20.8080    1.9520   28.8000 O.2   268  MET268     -0.2864
    179  CB       -18.4170    3.9740   27.2200 C.3   268  MET268      0.0413
    180  CG       -19.1370    5.1130   27.9460 C.3   268  MET268      0.0598
    181  SD       -18.0460    6.3530   28.6790 S.3   268  MET268     -0.1393
    182  CE       -16.9440    5.3540   29.6540 C.3   268  MET268      0.0692
    183  N        -23.4880    9.2070   30.7250 N.3   272  GLU272     -0.1245
    184  CA       -23.2100   10.6470   30.7920 C.3   272  GLU272      0.1567
    185  C        -24.2060   11.4460   29.9500 C.2   272  GLU272      0.2260
    186  O        -23.8230   12.1610   29.0190 O.2   272  GLU272     -0.2867
    187  CB       -21.7750   10.9250   30.3370 C.3   272  GLU272      0.0388
    188  CG       -20.7130   10.2650   31.2010 C.3   272  GLU272      0.1160
    189  CD       -19.3090   10.6500   30.7830 C.2   272  GLU272      0.3649
    190  OE1      -18.5050   11.0240   31.6630 O.co2 272  GLU272     -0.2457
    191  OE2      -19.0150   10.5870   29.5710 O.co2 272  GLU272     -0.2457
    192  N        -25.3410    5.9350   26.4320 N.3   276  TYR276     -0.1241
    193  CA       -24.2940    4.9780   26.0320 C.3   276  TYR276      0.1605
    194  C        -23.6880    4.1820   27.1940 C.2   276  TYR276      0.2264
    195  O        -22.8930    3.2710   26.9550 O.2   276  TYR276     -0.2867
    196  CB       -23.1760    5.6910   25.2600 C.3   276  TYR276      0.0534
    197  CG       -23.5550    6.0290   23.8380 C.ar  276  TYR276     -0.0201
    198  CD1      -23.6670    5.0290   22.8710 C.ar  276  TYR276     -0.0009
    199  CD2      -23.8060    7.3460   23.4550 C.ar  276  TYR276     -0.0009
    200  CE1      -24.0190    5.3310   21.5640 C.ar  276  TYR276      0.0417
    201  CE2      -24.1560    7.6590   22.1510 C.ar  276  TYR276      0.0417
    202  CZ       -24.2600    6.6490   21.2090 C.ar  276  TYR276      0.1957
    203  OH       -24.6110    6.9580   19.9180 O.3   276  TYR276     -0.2866
@<TRIPOS>BOND
     1   102   101    2
     2    91    90    2
     3   106   105   ar
     4   101   100    1
     5   100    99    1
     6   100   103    1
     7    90    99   am
     8    90    89    1
     9   105   107   ar
    10   105   104    1
    11   132   131    2
    12   131   130    1
    13   103   104    1
    14    89    92    1
    15    89    88    1
    16    92    93    1
    17    94    93    1
    18    94    95    1
    19    83    82    2
    20   134   133    1
    21   130   133    1
    22   130   129    1
    23   133   135    1
    24   129   122   am
    25    95    96    2
    26    88    82   am
    27    82    81    1
    28    78    76    1
    29   122   123    2
    30   122   121    1
    31   138   139    2
    32   138   137    1
    33   121   124    1
    34   121   120    1
    35   136   137    1
    36    86    85    2
    37    96    97    1
    38    96    98    1
    39   124   125    1
    40   137   140    1
    41    79    77    1
    42   120   114   am
    43    81    84    1
    44    81    80    1
    45    76    77    1
    46    76    73    1
    47   125   126    1
    48    84    85    1
    49   140   141    1
    50    85    87   am
    51    80    74   am
    52   126   128   ar
    53   126   127   ar
    54    75    74    2
    55    74    73    1
    56    73    72    1
    57   114   115    2
    58   114   113    1
    59   162   161    1
    60   143   141   ar
    61   143   145   ar
    62   141   142   ar
    63   109   110    1
    64   109   108    1
    65   161   158    1
    66   110   111    2
    67   110   112   am
    68   113   112    1
    69   113   116    1
    70    72    68   am
    71   145   146   ar
    72   151   150    2
    73   142   144   ar
    74   118   117    2
    75    69    68    2
    76   158   157    1
    77   158   159    1
    78    68    67    1
    79   116   117    1
    80   117   119   am
    81   146   144   ar
    82   146   147    1
    83   150   149    1
    84   148   149    1
    85   159   160    2
    86   155   154   ar
    87   152   149    1
    88   152   153    1
    89    70    67    1
    90    70    71    1
    91    67    66    1
    92   203   202    1
    93   154   153    1
    94   154   156   ar
    95   202   200   ar
    96   202   201   ar
    97    49    48    1
    98    43    41   ar
    99   200   198   ar
   100    48    45    1
   101   201   199   ar
   102    62    61    2
   103    41    42   ar
   104    41    40    1
   105   198   197   ar
   106    28    26   ar
   107    28    29   ar
   108    45    44    1
   109    45    46    1
   110    30    29    1
   111   167   168    1
   112   167   164    1
   113    40    37    1
   114    53    52    2
   115   199   197   ar
   116   168   169   ar
   117   168   170   ar
   118    37    38    1
   119    37    36    1
   120    61    60    1
   121    26    24   ar
   122    29    27   ar
   123   169   171   ar
   124   163   164    1
   125   170   172   ar
   126   197   196    1
   127    60    59    1
   128    60    63    1
   129    46    50   am
   130    46    47    2
   131    50    51    1
   132    38    39    2
   133   171   173   ar
   134   164   165    1
   135    52    59   am
   136    52    51    1
   137   172   173   ar
   138   166   165    2
   139   173   174    1
   140    59    65    1
   141    63    64    1
   142    51    54    1
   143   165   175   am
   144    24    25   ar
   145    24    23    1
   146    27    25   ar
   147   196   193    1
   148    64    65    1
   149    23    20    1
   150    22    21    2
   151   193   192    1
   152   193   194    1
   153    20    21    1
   154    20    19    1
   155   175   176    1
   156    54    55    1
   157    55    56    1
   158    21    31   am
   159    57    56   ar
   160   195   194    2
   161    56    58   ar
   162   176   179    1
   163   176   177    1
   164   179   180    1
   165   180   181    1
   166    31    32    1
   167    17    16    2
   168    35    32    1
   169    32    33    1
   170   177   178    2
   171   181   182    1
   172    16    18   am
   173    16    15    1
   174   186   185    2
   175     6     5    1
   176     6     7    1
   177     8     7    2
   178     5     2    1
   179    15    14    1
   180   191   189   ar
   181     7     9   am
   182    33    34    2
   183   185   184    1
   184   187   184    1
   185   187   188    1
   186   183   184    1
   187   189   188    1
   188   189   190   ar
   189    14    11    1
   190     2     1    1
   191     2     3    1
   192     4     3    2
   193    11    10    1
   194    11    12    1
   195    12    13    2
