@<TRIPOS>MOLECULE
tmp/5oa4A01.pdb
 128 116 0 0 0
SMALL
GASTEIGER

@<TRIPOS>ATOM
      1  N        -24.8880  -19.9500    3.0660 N.3    66  LEU66      -0.1245
      2  CA       -23.4850  -19.5310    3.1430 C.3    66  LEU66       0.1561
      3  C        -23.0540  -19.2610    4.5850 C.2    66  LEU66       0.2260
      4  O        -23.8610  -18.8460    5.4210 O.2    66  LEU66      -0.2867
      5  CB       -23.2310  -18.2940    2.2700 C.3    66  LEU66       0.0270
      6  CG       -23.4440  -18.4640    0.7570 C.3    66  LEU66       0.0019
      7  CD1      -23.1790  -17.1560    0.0310 C.3    66  LEU66       0.0001
      8  CD2      -22.5700  -19.5770    0.1930 C.3    66  LEU66       0.0001
      9  N        -17.1080  -13.7750   -4.5190 N.3   115  MET115     -0.1245
     10  CA       -17.2140  -14.3760   -3.1980 C.3   115  MET115      0.1570
     11  C        -15.8760  -14.2420   -2.4990 C.2   115  MET115      0.2261
     12  O        -14.8460  -14.6280   -3.0560 O.2   115  MET115     -0.2867
     13  CB       -17.5640  -15.8500   -3.3020 C.3   115  MET115      0.0387
     14  CG       -18.9700  -16.1290   -3.7750 C.3   115  MET115      0.0595
     15  SD       -19.3280  -17.8740   -3.5810 S.3   115  MET115     -0.1393
     16  CE       -19.3780  -17.9940   -1.7920 C.3   115  MET115      0.0692
     17  N        -14.0050  -15.3640    1.0370 N.3   117  LEU117     -0.1245
     18  CA       -14.0640  -16.2470    2.1860 C.3   117  LEU117      0.1561
     19  C        -13.0680  -15.7370    3.2130 C.2   117  LEU117      0.2260
     20  O        -11.8950  -15.5300    2.8990 O.2   117  LEU117     -0.2867
     21  CB       -13.7250  -17.6770    1.7750 C.3   117  LEU117      0.0270
     22  CG       -14.5950  -18.3640    0.7010 C.3   117  LEU117      0.0019
     23  CD1      -16.0790  -18.0430    0.8670 C.3   117  LEU117      0.0001
     24  CD2      -14.1460  -18.0370   -0.7180 C.3   117  LEU117      0.0001
     25  N        -17.4770  -26.2740    2.8180 N.3   124  GLN124     -0.1245
     26  CA       -18.9000  -26.4360    2.5510 C.3   124  GLN124      0.1566
     27  C        -19.1840  -27.9280    2.4890 C.2   124  GLN124      0.2260
     28  O        -18.2820  -28.6990    2.1700 O.2   124  GLN124     -0.2867
     29  CB       -19.2800  -25.8030    1.2180 C.3   124  GLN124      0.0367
     30  CG       -18.9390  -24.3230    1.1030 C.3   124  GLN124      0.0905
     31  CD       -19.2730  -23.7600   -0.2630 C.2   124  GLN124      0.2608
     32  OE1      -19.0490  -24.4130   -1.2820 O.2   124  GLN124     -0.2717
     33  NE2      -19.7950  -22.5370   -0.2940 N.am  124  GLN124     -0.0878
     34  N        -22.0090  -30.7120   -2.5440 N.3   127  HIS127     -0.1241
     35  CA       -23.3040  -30.3550   -3.1080 C.3   127  HIS127      0.1621
     36  C        -23.2520  -30.2300   -4.6190 C.2   127  HIS127      0.2264
     37  O        -22.1800  -30.1790   -5.2250 O.2   127  HIS127     -0.2867
     38  CB       -23.7950  -29.0270   -2.5160 C.3   127  HIS127      0.0745
     39  CG       -22.9260  -27.8530   -2.8520 C.ar  127  HIS127      0.0817
     40  ND1      -21.8380  -27.4920   -2.0890 N.ar  127  HIS127     -0.2268
     41  CD2      -22.9860  -26.9570   -3.8680 C.ar  127  HIS127      0.1154
     42  CE1      -21.2610  -26.4300   -2.6210 C.ar  127  HIS127      0.1986
     43  NE2      -21.9380  -26.0820   -3.7030 N.ar  127  HIS127     -0.2212
     44  N        -24.8470  -27.4130   -7.3410 N.3   129  ASP129     -0.1239
     45  CA       -25.4260  -26.0710   -7.3780 C.3   129  ASP129      0.1674
     46  C        -26.8680  -26.1240   -7.8920 C.2   129  ASP129      0.2266
     47  O        -27.3180  -27.1510   -8.4020 O.2   129  ASP129     -0.2867
     48  CB       -24.5910  -25.1260   -8.2570 C.3   129  ASP129      0.1410
     49  CG       -23.2320  -24.7710   -7.6450 C.2   129  ASP129      0.3668
     50  OD1      -23.0410  -24.8850   -6.4130 O.co2 129  ASP129     -0.2456
     51  OD2      -22.3400  -24.3440   -8.4090 O.co2 129  ASP129     -0.2456
     52  N        -20.7390  -23.4950  -14.1470 N.3   150  ASN150     -0.1240
     53  CA       -20.1940  -22.5100  -13.2240 C.3   150  ASN150      0.1653
     54  C        -18.6900  -22.3810  -13.4180 C.2   150  ASN150      0.2266
     55  O        -17.9560  -23.3530  -13.2420 O.2   150  ASN150     -0.2867
     56  CB       -20.5230  -22.9090  -11.7840 C.3   150  ASN150      0.1155
     57  CG       -20.3660  -21.7630  -10.7890 C.2   150  ASN150      0.2627
     58  OD1      -19.6800  -20.7680  -11.0430 O.2   150  ASN150     -0.2716
     59  ND2      -20.9940  -21.9180   -9.6310 N.am  150  ASN150     -0.0877
     60  N        -15.6480  -21.0100  -11.7560 N.3   152  LEU152     -0.1245
     61  CA       -15.1000  -20.5530  -10.4800 C.3   152  LEU152      0.1561
     62  C        -13.6990  -19.9960  -10.7450 C.2   152  LEU152      0.2260
     63  O        -12.7280  -20.7550  -10.8170 O.2   152  LEU152     -0.2867
     64  CB       -15.0430  -21.7000   -9.4630 C.3   152  LEU152      0.0270
     65  CG       -16.3620  -22.2910   -8.9530 C.3   152  LEU152      0.0019
     66  CD1      -17.3700  -21.1970   -8.6470 C.3   152  LEU152      0.0001
     67  CD2      -16.9400  -23.3010   -9.9300 C.3   152  LEU152      0.0001
     68  N        -11.1990  -25.3530   -3.8650 N.3   165  THR165     -0.1218
     69  CA       -12.3980  -26.1460   -4.1520 C.3   165  THR165      0.1862
     70  C        -12.1000  -27.6370   -4.3060 C.2   165  THR165      0.2287
     71  O        -11.0770  -28.0120   -4.8770 O.2   165  THR165     -0.2866
     72  CB       -13.0580  -25.6550   -5.4590 C.3   165  THR165      0.1770
     73  OG1      -12.9860  -24.2250   -5.5170 O.3   165  THR165     -0.2211
     74  CG2      -14.5160  -26.1050   -5.5590 C.3   165  THR165      0.0375
     75  N        -17.2070  -26.2500  -13.7660 N.3   198  ILE198     -0.1245
     76  CA       -18.0300  -27.4080  -13.4090 C.3   198  ILE198      0.1561
     77  C        -19.4250  -27.2730  -14.0110 C.2   198  ILE198      0.2260
     78  O        -19.8060  -26.1900  -14.4710 O.2   198  ILE198     -0.2867
     79  CB       -18.1440  -27.5790  -11.8760 C.3   198  ILE198      0.0252
     80  CG1      -18.7330  -26.3240  -11.2100 C.3   198  ILE198      0.0019
     81  CG2      -16.7830  -27.9290  -11.2870 C.3   198  ILE198      0.0019
     82  CD1      -19.1320  -26.5230   -9.7610 C.3   198  ILE198      0.0001
     83  N        -19.3250  -31.0180   -5.6030 N.3   204  HIS204     -0.1226
     84  CA       -18.1760  -30.1910   -5.2510 C.3   204  HIS204      0.1752
     85  C        -18.4130  -29.4460   -3.9410 C.2   204  HIS204      0.2596
     86  O        -19.5230  -29.4290   -3.4130 O.2   204  HIS204     -0.2718
     87  CB       -17.9410  -29.1650   -6.3630 C.3   204  HIS204      0.0759
     88  CG       -19.0300  -28.1510   -6.4530 C.ar  204  HIS204      0.0818
     89  ND1      -20.2620  -28.4340   -6.9930 N.ar  204  HIS204     -0.2268
     90  CD2      -19.0940  -26.8750   -6.0090 C.ar  204  HIS204      0.1154
     91  CE1      -21.0370  -27.3700   -6.8920 C.ar  204  HIS204      0.1986
     92  NE2      -20.3530  -26.4090   -6.2960 N.ar  204  HIS204     -0.2212
     93  N        -17.3670  -28.8040   -3.4350 N.am  205  CYS205     -0.1956
     94  CA       -17.4970  -27.9230   -2.2840 C.3   205  CYS205      0.1843
     95  C        -16.2950  -27.0200   -2.1310 C.2   205  CYS205      0.2626
     96  O        -15.1740  -27.3930   -2.4810 O.2   205  CYS205     -0.2714
     97  CB       -17.6570  -28.7210   -0.9880 C.3   205  CYS205      0.0997
     98  SG       -16.2650  -29.7920   -0.5790 S.3   205  CYS205     -0.0797
     99  N        -16.5400  -25.8380   -1.5790 N.am  206  GLY206     -0.1954
    100  CA       -15.4650  -24.9950   -1.0720 C.3   206  GLY206      0.1869
    101  C        -14.7270  -25.7390    0.0270 C.2   206  GLY206      0.2309
    102  O        -15.3420  -26.4700    0.8140 O.2   206  GLY206     -0.2863
    103  N         -9.4180  -15.8720    0.7940 N.3   216  ARG216     -0.1245
    104  CA        -9.5650  -16.4170   -0.5550 C.3   216  ARG216      0.1563
    105  C        -10.7180  -15.7080   -1.2590 C.2   216  ARG216      0.2260
    106  O        -11.7850  -15.5250   -0.6730 O.2   216  ARG216     -0.2867
    107  CB        -9.8340  -17.9180   -0.4700 C.3   216  ARG216      0.0307
    108  CG        -9.7930  -18.6650   -1.7900 C.3   216  ARG216      0.0489
    109  CD        -9.8450  -20.1680   -1.5640 C.3   216  ARG216      0.2205
    110  NE       -11.0890  -20.5860   -0.9090 N.pl3 216  ARG216     -0.0865
    111  CZ       -12.1860  -21.0540   -1.5180 C.cat 216  ARG216      0.5346
    112  NH1      -13.2450  -21.3980   -0.7860 N.pl3 216  ARG216      0.1354
    113  NH2      -12.2460  -21.2040   -2.8380 N.pl3 216  ARG216      0.1354
    114  N        -12.9390  -15.3330   -5.0890 N.3   218  LEU218     -0.1245
    115  CA       -13.2420  -15.8780   -6.4010 C.3   218  LEU218      0.1561
    116  C        -14.3490  -15.1090   -7.0930 C.2   218  LEU218      0.2260
    117  O        -15.1410  -14.4210   -6.4500 O.2   218  LEU218     -0.2867
    118  CB       -13.6200  -17.3500   -6.2870 C.3   218  LEU218      0.0270
    119  CG       -14.8600  -17.7050   -5.4570 C.3   218  LEU218      0.0019
    120  CD1      -16.1230  -17.7580   -6.3090 C.3   218  LEU218      0.0001
    121  CD2      -14.6660  -19.0340   -4.7450 C.3   218  LEU218      0.0001
    122  N        -17.4350  -16.1650   -9.3100 N.3   220  THR220     -0.1218
    123  CA       -18.2470  -17.3000   -9.7580 C.3   220  THR220      0.1862
    124  C        -19.2170  -16.7910  -10.8120 C.2   220  THR220      0.2287
    125  O        -19.9970  -15.8790  -10.5490 O.2   220  THR220     -0.2866
    126  CB       -18.9870  -18.0470   -8.6190 C.3   220  THR220      0.1770
    127  OG1      -20.0020  -18.8920   -9.1750 O.3   220  THR220     -0.2211
    128  CG2      -19.6230  -17.1060   -7.6100 C.3   220  THR220      0.0375
@<TRIPOS>BOND
     1    78    77    2
     2    52    53    1
     3    77    76    1
     4    75    76    1
     5    54    55    2
     6    54    53    1
     7    76    79    1
     8    53    56    1
     9    79    81    1
    10    79    80    1
    11    56    57    1
    12    60    61    1
    13    80    82    1
    14    58    57    2
    15    63    62    2
    16   124   125    2
    17   124   123    1
    18    57    59   am
    19    62    61    1
    20    61    64    1
    21    67    65    1
    22   123   122    1
    23   123   126    1
    24    64    65    1
    25   127   126    1
    26    65    66    1
    27   126   128    1
    28    51    49   ar
    29    47    46    2
    30    48    49    1
    31    48    45    1
    32    46    45    1
    33    49    50   ar
    34    45    44    1
    35   116   117    2
    36   116   115    1
    37    89    91   ar
    38    89    88   ar
    39    91    92   ar
    40    88    87    1
    41    88    90   ar
    42   115   118    1
    43   115   114    1
    44    87    84    1
    45   120   119    1
    46    92    90   ar
    47   118   119    1
    48    83    84    1
    49    74    72    1
    50    73    72    1
    51    72    69    1
    52   119   121    1
    53    84    85    1
    54    37    36    2
    55    71    70    2
    56    36    35    1
    57     9    10    1
    58    70    69    1
    59    69    68    1
    60    85    93   am
    61    85    86    2
    62    41    43   ar
    63    41    39   ar
    64    14    15    1
    65    14    13    1
    66    43    42   ar
    67    15    16    1
    68    93    94    1
    69    13    10    1
    70    10    11    1
    71    35    34    1
    72    35    38    1
    73    12    11    2
    74    39    38    1
    75    39    40   ar
    76   113   111    1
    77    42    40   ar
    78    96    95    2
    79    94    95    1
    80    94    97    1
    81    95    99   am
    82   108   109    1
    83   108   107    1
    84    99   100    1
    85   109   110    1
    86   111   110    2
    87   111   112    1
    88    32    31    2
    89   105   106    2
    90   105   104    1
    91   100   101    1
    92    97    98    1
    93    24    22    1
    94   104   107    1
    95   104   103    1
    96    33    31   am
    97    31    30    1
    98   101   102    2
    99     7     6    1
   100     8     6    1
   101    22    23    1
   102    22    21    1
   103     6     5    1
   104    17    18    1
   105    30    29    1
   106    29    26    1
   107    21    18    1
   108    28    27    2
   109    18    19    1
   110     5     2    1
   111    27    26    1
   112    26    25    1
   113    20    19    2
   114     1     2    1
   115     2     3    1
   116     3     4    2
