@<TRIPOS>MOLECULE
tmp/5oa5B00.pdb
 82 77 0 0 0
SMALL
GASTEIGER

@<TRIPOS>ATOM
      1  N         17.3670   10.4690    4.8460 N.3    63  ASN63      -0.1225
      2  CA        17.3480    9.9720    3.4730 C.3    63  ASN63       0.1785
      3  C         16.3280    8.8630    3.2420 C.2    63  ASN63       0.2597
      4  O         15.5160    8.9570    2.3170 O.2    63  ASN63      -0.2718
      5  CB        18.7530    9.5160    3.0390 C.3    63  ASN63       0.1169
      6  CG        19.7380   10.6780    2.9250 C.2    63  ASN63       0.2627
      7  OD1       19.3470   11.8410    3.0590 O.2    63  ASN63      -0.2716
      8  ND2       21.0150   10.3770    2.6540 N.am   63  ASN63      -0.0877
      9  N         16.3710    7.8360    4.0920 N.am   64  GLU64      -0.1979
     10  CA        15.5770    6.5990    3.9190 C.3    64  GLU64       0.1602
     11  C         14.0710    6.8050    4.0850 C.2    64  GLU64       0.2287
     12  O         13.2620    6.2390    3.3350 O.2    64  GLU64      -0.2864
     13  CB        16.0530    5.5080    4.8930 C.3    64  GLU64       0.0415
     14  CG        17.4480    4.9460    4.6130 C.3    64  GLU64       0.1163
     15  CD        18.5900    5.9660    4.7850 C.2    64  GLU64       0.3649
     16  OE1       18.5390    6.8210    5.7270 O.co2  64  GLU64      -0.2457
     17  OE2       19.5480    5.9130    3.9580 O.co2  64  GLU64      -0.2457
     18  N         20.0790   10.8430   -5.2960 N.3   182  ILE182     -0.1231
     19  CA        21.2890   10.1770   -5.8030 C.3   182  ILE182      0.1692
     20  C         21.2610    8.7230   -5.3460 C.2   182  ILE182      0.2592
     21  O         20.9410    8.4500   -4.1940 O.2   182  ILE182     -0.2718
     22  CB        22.6170   10.8380   -5.3010 C.3   182  ILE182      0.0266
     23  CG1       22.6450   12.3540   -5.6070 C.3   182  ILE182      0.0019
     24  CG2       23.8240   10.1500   -5.9300 C.3   182  ILE182      0.0020
     25  CD1       23.6750   13.1290   -4.8170 C.3   182  ILE182      0.0001
     26  N         21.6110    7.7980   -6.2450 N.am  183  ASN183     -0.1974
     27  CA        21.7160    6.3730   -5.9280 C.3   183  ASN183      0.1688
     28  C         20.4440    5.8370   -5.2830 C.2   183  ASN183      0.2292
     29  O         20.5010    5.1050   -4.3090 O.2   183  ASN183     -0.2864
     30  CB        22.9420    6.1020   -5.0280 C.3   183  ASN183      0.1181
     31  CG        24.2510    6.2120   -5.7810 C.2   183  ASN183      0.2629
     32  OD1       24.3030    6.8080   -6.8500 O.2   183  ASN183     -0.2716
     33  ND2       25.3090    5.6320   -5.2290 N.am  183  ASN183     -0.0877
     34  N         18.1840    7.3430   -3.5090 N.3   185  GLN185     -0.1231
     35  CA        17.8070    7.9610   -2.2250 C.3   185  GLN185      0.1698
     36  C         17.8050    9.4960   -2.2480 C.2   185  GLN185      0.2592
     37  O         18.6050   10.1230   -2.9600 O.2   185  GLN185     -0.2718
     38  CB        18.7650    7.5140   -1.1150 C.3   185  GLN185      0.0381
     39  CG        18.6470    6.0590   -0.7460 C.3   185  GLN185      0.0905
     40  CD        17.5860    5.8420    0.3000 C.2   185  GLN185      0.2608
     41  OE1       17.5760    6.5240    1.3190 O.2   185  GLN185     -0.2717
     42  NE2       16.6780    4.8840    0.0570 N.am  185  GLN185     -0.0878
     43  N         16.9170   10.0850   -1.4460 N.am  186  ALA186     -0.1966
     44  CA        16.8720   11.5370   -1.2460 C.3   186  ALA186      0.1728
     45  C         18.1650   12.0470   -0.6020 C.2   186  ALA186      0.2616
     46  O         18.7540   11.3530    0.2090 O.2   186  ALA186     -0.2715
     47  CB        15.6660   11.9070   -0.3910 C.3   186  ALA186      0.0334
     48  N         18.5920   13.2550   -0.9800 N.am  187  ASN187     -0.1972
     49  CA        19.8300   13.8840   -0.4880 C.3   187  ASN187      0.1688
     50  C         19.4830   14.8260    0.6720 C.2   187  ASN187      0.2292
     51  O         19.8660   15.9980    0.6810 O.2   187  ASN187     -0.2864
     52  CB        20.5160   14.6480   -1.6570 C.3   187  ASN187      0.1181
     53  CG        21.9990   14.9770   -1.4190 C.2   187  ASN187      0.2629
     54  OD1       22.6590   14.4730   -0.5010 O.2   187  ASN187     -0.2716
     55  ND2       22.5280   15.8520   -2.2720 N.am  187  ASN187     -0.0877
     56  N         20.1500   14.3780    4.0760 N.3   189  GLU189     -0.1245
     57  CA        21.0990   14.4840    5.1560 C.3   189  GLU189      0.1567
     58  C         22.1980   15.4550    4.7460 C.2   189  GLU189      0.2260
     59  O         22.8000   15.3150    3.6670 O.2   189  GLU189     -0.2867
     60  CB        21.6220   13.0940    5.5270 C.3   189  GLU189      0.0388
     61  CG        20.5590   12.2740    6.2690 C.3   189  GLU189      0.1160
     62  CD        20.8020   10.7850    6.2010 C.2   189  GLU189      0.3649
     63  OE1       21.9760   10.3710    6.2110 O.co2 189  GLU189     -0.2457
     64  OE2       19.8260   10.0180    6.1260 O.co2 189  GLU189     -0.2457
     65  N         25.6820   14.5230   -0.1270 N.3   205  HIS205     -0.1241
     66  CA        26.2390   13.6740   -1.1730 C.3   205  HIS205      0.1621
     67  C         26.1740   14.3370   -2.5300 C.2   205  HIS205      0.2264
     68  O         25.4130   15.3020   -2.7220 O.2   205  HIS205     -0.2867
     69  CB        25.5390   12.3190   -1.1890 C.3   205  HIS205      0.0745
     70  CG        25.7240   11.5500    0.0770 C.ar  205  HIS205      0.0817
     71  ND1       25.1050   11.9040    1.2600 N.ar  205  HIS205     -0.2268
     72  CD2       26.4810   10.4630    0.3560 C.ar  205  HIS205      0.1154
     73  CE1       25.4660   11.0590    2.2120 C.ar  205  HIS205      0.1986
     74  NE2       26.2910   10.1680    1.6860 N.ar  205  HIS205     -0.2212
     75  N         28.6520    7.9050   -6.3740 N.3   236  ILE236     -0.1245
     76  CA        28.3010    8.8430   -5.3100 C.3   236  ILE236      0.1561
     77  C         29.6030    9.3100   -4.6420 C.2   236  ILE236      0.2260
     78  O         30.6040    8.5940   -4.6380 O.2   236  ILE236     -0.2867
     79  CB        27.3500    8.1680   -4.2940 C.3   236  ILE236      0.0252
     80  CG1       26.6810    9.1880   -3.3690 C.3   236  ILE236      0.0019
     81  CG2       28.0570    7.0400   -3.5290 C.3   236  ILE236      0.0019
     82  CD1       25.5330    8.6170   -2.5520 C.3   236  ILE236      0.0001
@<TRIPOS>BOND
     1    32    31    2
     2    75    76    1
     3    26    27    1
     4    26    20   am
     5    24    22    1
     6    27    28    1
     7    27    30    1
     8    19    20    1
     9    19    22    1
    10    19    18    1
    11    31    33   am
    12    31    30    1
    13    23    22    1
    14    23    25    1
    15    20    21    2
    16    76    77    1
    17    76    79    1
    18    28    29    2
    19    77    78    2
    20    79    81    1
    21    79    80    1
    22    34    35    1
    23    80    82    1
    24    37    36    2
    25    68    67    2
    26    67    66    1
    27    55    53   am
    28    36    35    1
    29    36    43   am
    30    35    38    1
    31    52    53    1
    32    52    49    1
    33    43    44    1
    34    53    54    2
    35    44    45    1
    36    44    47    1
    37    69    66    1
    38    69    70    1
    39    66    65    1
    40    38    39    1
    41    48    45   am
    42    48    49    1
    43    39    40    1
    44    45    46    2
    45    49    50    1
    46    42    40   am
    47    70    72   ar
    48    70    71   ar
    49    40    41    2
    50    72    74   ar
    51    50    51    2
    52    71    73   ar
    53    74    73   ar
    54     4     3    2
    55     8     6   am
    56     6     5    1
    57     6     7    2
    58     5     2    1
    59     3     2    1
    60     3     9   am
    61    12    11    2
    62     2     1    1
    63    59    58    2
    64    10    11    1
    65    10     9    1
    66    10    13    1
    67    17    15   ar
    68    56    57    1
    69    14    15    1
    70    14    13    1
    71    58    57    1
    72    15    16   ar
    73    57    60    1
    74    60    61    1
    75    64    62   ar
    76    62    63   ar
    77    62    61    1
