@<TRIPOS>MOLECULE
tmp/5oaeA00.pdb
 153 151 0 0 0
SMALL
GASTEIGER

@<TRIPOS>ATOM
      1  N        -16.1240    0.5470    1.6130 N.3    39  HIS39      -0.1241
      2  CA       -16.1560   -0.3540    0.4710 C.3    39  HIS39       0.1621
      3  C        -16.9760    0.2330   -0.6720 C.2    39  HIS39       0.2264
      4  O        -16.5620    0.1970   -1.8310 O.2    39  HIS39      -0.2867
      5  CB       -16.7280   -1.7080    0.8910 C.3    39  HIS39       0.0745
      6  CG       -16.6880   -2.7450   -0.1870 C.ar   39  HIS39       0.0817
      7  ND1      -17.7990   -3.0970   -0.9210 N.ar   39  HIS39      -0.2268
      8  CD2      -15.6750   -3.5190   -0.6420 C.ar   39  HIS39       0.1154
      9  CE1      -17.4700   -4.0360   -1.7900 C.ar   39  HIS39       0.1986
     10  NE2      -16.1880   -4.3110   -1.6400 N.ar   39  HIS39      -0.2212
     11  N        -11.9760   -2.1750   -7.0440 N.3    57  HIS57      -0.1226
     12  CA       -12.3380   -3.2850   -7.9240 C.3    57  HIS57       0.1752
     13  C        -12.0090   -3.0420   -9.3920 C.2    57  HIS57       0.2595
     14  O        -11.6990   -1.9240   -9.7990 O.2    57  HIS57      -0.2718
     15  CB       -13.8310   -3.5940   -7.7960 C.3    57  HIS57       0.0759
     16  CG       -14.2950   -3.7730   -6.3840 C.ar   57  HIS57       0.0818
     17  ND1      -14.8330   -2.7440   -5.6410 N.ar   57  HIS57      -0.2268
     18  CD2      -14.2970   -4.8600   -5.5770 C.ar   57  HIS57       0.1154
     19  CE1      -15.1500   -3.1900   -4.4400 C.ar   57  HIS57       0.1986
     20  NE2      -14.8350   -4.4710   -4.3740 N.ar   57  HIS57      -0.2212
     21  N        -12.0730   -4.1190  -10.1720 N.am   58  MET58      -0.1979
     22  CA       -11.8930   -4.0850  -11.6260 C.3    58  MET58       0.1605
     23  C        -10.5550   -3.4980  -12.0610 C.2    58  MET58       0.2287
     24  O        -10.4230   -3.0170  -13.1820 O.2    58  MET58      -0.2864
     25  CB       -13.0340   -3.3090  -12.2870 C.3    58  MET58       0.0413
     26  CG       -14.4120   -3.8610  -11.9730 C.3    58  MET58       0.0598
     27  SD       -15.7260   -2.7610  -12.5160 S.3    58  MET58      -0.1393
     28  CE       -17.1710   -3.6530  -11.9500 C.3    58  MET58       0.0692
     29  N         -8.2380   -4.8210   -0.5530 N.3    66  HIS66      -0.1241
     30  CA        -8.9780   -5.6990    0.3390 C.3    66  HIS66       0.1621
     31  C         -8.0830   -6.3000    1.4190 C.2    66  HIS66       0.2264
     32  O         -8.5600   -6.6570    2.4940 O.2    66  HIS66      -0.2867
     33  CB        -9.6710   -6.7960   -0.4650 C.3    66  HIS66       0.0745
     34  CG       -10.8120   -6.2970   -1.2940 C.ar   66  HIS66       0.0817
     35  ND1      -10.6450   -5.8060   -2.5710 N.ar   66  HIS66      -0.2268
     36  CD2      -12.1350   -6.2020   -1.0250 C.ar   66  HIS66       0.1154
     37  CE1      -11.8160   -5.4380   -3.0560 C.ar   66  HIS66       0.1986
     38  NE2      -12.7380   -5.6700   -2.1380 N.ar   66  HIS66      -0.2212
     39  N         -9.8460  -12.3490   -9.3530 N.3   192  GLU192     -0.1231
     40  CA       -11.0040  -11.4810   -9.1900 C.3   192  GLU192      0.1699
     41  C        -12.2090  -12.1630   -9.8200 C.2   192  GLU192      0.2593
     42  O        -13.2250  -12.3740   -9.1600 O.2   192  GLU192     -0.2718
     43  CB       -10.7610  -10.1040   -9.8140 C.3   192  GLU192      0.0402
     44  CG       -11.8190   -9.0620   -9.4690 C.3   192  GLU192      0.1161
     45  CD       -11.3060   -7.6360   -9.6110 C.2   192  GLU192      0.3649
     46  OE1      -12.0360   -6.6950   -9.2320 O.co2 192  GLU192     -0.2457
     47  OE2      -10.1710   -7.4550  -10.0990 O.co2 192  GLU192     -0.2457
     48  N        -12.0970  -12.5140  -11.0970 N.am  193  GLY193     -0.1942
     49  CA       -13.1020  -13.3560  -11.7190 C.3   193  GLY193      0.2014
     50  C        -13.7530  -12.8070  -12.9690 C.2   193  GLY193      0.2638
     51  O        -14.9170  -13.1000  -13.2370 O.2   193  GLY193     -0.2714
     52  N        -13.0180  -12.0120  -13.7370 N.am  194  PHE194     -0.1973
     53  CA       -13.5790  -11.4420  -14.9560 C.3   194  PHE194      0.1639
     54  C        -13.1950  -12.2560  -16.1890 C.2   194  PHE194      0.2290
     55  O        -13.7220  -12.0320  -17.2770 O.2   194  PHE194     -0.2864
     56  CB       -13.1440   -9.9840  -15.1140 C.3   194  PHE194      0.0560
     57  CG       -13.7800   -9.0560  -14.1170 C.ar  194  PHE194     -0.0200
     58  CD1      -15.1380   -8.7870  -14.1720 C.ar  194  PHE194     -0.0042
     59  CD2      -13.0240   -8.4510  -13.1290 C.ar  194  PHE194     -0.0042
     60  CE1      -15.7310   -7.9380  -13.2590 C.ar  194  PHE194     -0.0003
     61  CE2      -13.6120   -7.5970  -12.2130 C.ar  194  PHE194     -0.0003
     62  CZ       -14.9670   -7.3420  -12.2790 C.ar  194  PHE194     -0.0000
     63  N        -16.1610  -14.5080  -16.6940 N.3   197  GLY197     -0.1210
     64  CA       -16.8440  -14.3470  -15.4280 C.3   197  GLY197      0.1940
     65  C        -18.3200  -14.6950  -15.4790 C.2   197  GLY197      0.2453
     66  O        -18.8940  -14.8370  -16.5580 O.2   197  GLY197     -0.2732
     67  N        -18.9330  -14.8330  -14.3080 N.am  198  PRO198     -0.2728
     68  CA       -18.2190  -14.6580  -13.0390 C.3   198  PRO198      0.1401
     69  C        -17.4800  -15.9270  -12.6280 C.2   198  PRO198      0.2269
     70  O        -18.0010  -17.0280  -12.8070 O.2   198  PRO198     -0.2865
     71  CB       -19.3450  -14.3610  -12.0470 C.3   198  PRO198      0.0296
     72  CG       -20.5370  -15.0440  -12.6250 C.3   198  PRO198      0.0237
     73  CD       -20.3910  -14.9290  -14.1170 C.3   198  PRO198      0.0939
     74  N        -13.6010  -15.4020   -7.0630 N.3   201  HIS201     -0.1226
     75  CA       -14.0890  -14.3230   -6.2040 C.3   201  HIS201      0.1752
     76  C        -15.4390  -13.7550   -6.6460 C.2   201  HIS201      0.2596
     77  O        -16.3630  -13.6360   -5.8390 O.2   201  HIS201     -0.2718
     78  CB       -13.0490  -13.1980   -6.1390 C.3   201  HIS201      0.0759
     79  CG       -13.5960  -11.8860   -5.6640 C.ar  201  HIS201      0.0818
     80  ND1      -13.9370  -10.8670   -6.5250 N.ar  201  HIS201     -0.2268
     81  CD2      -13.8500  -11.4270   -4.4150 C.ar  201  HIS201      0.1154
     82  CE1      -14.3840   -9.8360   -5.8290 C.ar  201  HIS201      0.1986
     83  NE2      -14.3410  -10.1500   -4.5480 N.ar  201  HIS201     -0.2212
     84  N        -15.5550  -13.4210   -7.9280 N.am  202  ASN202     -0.1974
     85  CA       -16.7900  -12.8500   -8.4580 C.3   202  ASN202      0.1688
     86  C        -17.9480  -13.8410   -8.4290 C.2   202  ASN202      0.2292
     87  O        -19.0970  -13.4590   -8.2060 O.2   202  ASN202     -0.2864
     88  CB       -16.5770  -12.3450   -9.8870 C.3   202  ASN202      0.1181
     89  CG       -15.7550  -11.0670   -9.9390 C.2   202  ASN202      0.2629
     90  OD1      -15.5590  -10.4010   -8.9230 O.2   202  ASN202     -0.2716
     91  ND2      -15.2820  -10.7140  -11.1280 N.am  202  ASN202     -0.0877
     92  N        -19.5060  -14.2350   -4.8510 N.3   205  HIS205     -0.1226
     93  CA       -20.4270  -13.1450   -4.5630 C.3   205  HIS205      0.1752
     94  C        -21.8010  -13.4350   -5.1500 C.2   205  HIS205      0.2595
     95  O        -22.8150  -13.3930   -4.4500 O.2   205  HIS205     -0.2718
     96  CB       -19.8970  -11.8190   -5.1210 C.3   205  HIS205      0.0759
     97  CG       -18.9110  -11.1320   -4.2270 C.ar  205  HIS205      0.0818
     98  ND1      -19.2810  -10.5000   -3.0590 N.ar  205  HIS205     -0.2268
     99  CD2      -17.5710  -10.9710   -4.3320 C.ar  205  HIS205      0.1154
    100  CE1      -18.2110   -9.9860   -2.4800 C.ar  205  HIS205      0.1986
    101  NE2      -17.1600  -10.2570   -3.2320 N.ar  205  HIS205     -0.2212
    102  N        -21.8290  -13.7180   -6.4480 N.am  206  ARG206     -0.1980
    103  CA       -23.0760  -13.9990   -7.1520 C.3   206  ARG206      0.1597
    104  C        -23.7770  -15.2530   -6.6410 C.2   206  ARG206      0.2287
    105  O        -25.0040  -15.3440   -6.6770 O.2   206  ARG206     -0.2864
    106  CB       -22.8230  -14.1180   -8.6570 C.3   206  ARG206      0.0334
    107  CG       -22.2530  -12.8610   -9.2920 C.3   206  ARG206      0.0492
    108  CD       -23.2290  -12.2530  -10.2860 C.3   206  ARG206      0.2205
    109  NE       -22.5680  -11.8420  -11.5210 N.pl3 206  ARG206     -0.0865
    110  CZ       -23.1970  -11.6400  -12.6740 C.cat 206  ARG206      0.5346
    111  NH1      -24.5090  -11.8110  -12.7540 N.pl3 206  ARG206      0.1354
    112  NH2      -22.5140  -11.2670  -13.7480 N.pl3 206  ARG206      0.1354
    113  N        -24.6940   -9.7120   -1.0050 N.3   212  MET212     -0.1230
    114  CA       -23.4100  -10.1540   -1.5340 C.3   212  MET212      0.1702
    115  C        -23.4020  -10.1490   -3.0580 C.2   212  MET212      0.2593
    116  O        -22.3520  -10.2990   -3.6770 O.2   212  MET212     -0.2718
    117  CB       -23.0690  -11.5530   -1.0210 C.3   212  MET212      0.0401
    118  CG       -22.6690  -11.6070    0.4440 C.3   212  MET212      0.0596
    119  SD       -20.9430  -11.1640    0.7280 S.3   212  MET212     -0.1393
    120  CE       -20.0970  -12.4100   -0.2440 C.3   212  MET212      0.0692
    121  N        -24.5700   -9.9600   -3.6600 N.am  213  GLY213     -0.1942
    122  CA       -24.6830  -10.0070   -5.1050 C.3   213  GLY213      0.2014
    123  C        -24.2410   -8.7200   -5.7720 C.2   213  GLY213      0.2639
    124  O        -23.8850   -8.7170   -6.9510 O.2   213  GLY213     -0.2714
    125  N        -24.2490   -7.6250   -5.0170 N.am  214  VAL214     -0.1963
    126  CA       -23.8300   -6.3350   -5.5530 C.3   214  VAL214      0.1727
    127  C        -22.7000   -5.7240   -4.7220 C.2   214  VAL214      0.2616
    128  O        -22.5510   -6.0250   -3.5390 O.2   214  VAL214     -0.2715
    129  CB       -25.0160   -5.3450   -5.6270 C.3   214  VAL214      0.0290
    130  CG1      -26.1770   -5.9630   -6.3900 C.3   214  VAL214      0.0023
    131  CG2      -25.4540   -4.9280   -4.2390 C.3   214  VAL214      0.0023
    132  N        -21.9050   -4.8680   -5.3550 N.am  215  VAL215     -0.1977
    133  CA       -20.7220   -4.2950   -4.7180 C.3   215  VAL215      0.1596
    134  C        -20.9910   -3.3890   -3.5010 C.2   215  VAL215      0.2287
    135  O        -20.4180   -3.6210   -2.4350 O.2   215  VAL215     -0.2864
    136  CB       -19.8800   -3.5030   -5.7500 C.3   215  VAL215      0.0276
    137  CG1      -18.6730   -2.8600   -5.0790 C.3   215  VAL215      0.0022
    138  CG2      -19.4470   -4.4140   -6.8870 C.3   215  VAL215      0.0022
    139  N        -22.4040   -5.3950   -0.3220 N.3   218  ALA218     -0.1245
    140  CA       -21.7920   -6.6880   -0.0060 C.3   218  ALA218      0.1562
    141  C        -21.3000   -6.8370    1.4460 C.2   218  ALA218      0.2260
    142  O        -21.5060   -7.8880    2.0550 O.2   218  ALA218     -0.2867
    143  CB       -20.6470   -6.9660   -0.9700 C.3   218  ALA218      0.0290
    144  N        -13.1970  -12.8420    1.5490 N.3   228  HIS228     -0.1241
    145  CA       -12.0140  -12.1190    1.0970 C.3   228  HIS228      0.1621
    146  C        -10.7540  -12.5580    1.8330 C.2   228  HIS228      0.2264
    147  O         -9.6420  -12.3650    1.3410 O.2   228  HIS228     -0.2867
    148  CB       -12.2190  -10.6140    1.2500 C.3   228  HIS228      0.0745
    149  CG       -12.9770  -10.0040    0.1170 C.ar  228  HIS228      0.0817
    150  ND1      -12.3590   -9.5230   -1.0170 N.ar  228  HIS228     -0.2268
    151  CD2      -14.3040   -9.8090   -0.0660 C.ar  228  HIS228      0.1154
    152  CE1      -13.2730   -9.0560   -1.8480 C.ar  228  HIS228      0.1986
    153  NE2      -14.4610   -9.2160   -1.2940 N.ar  228  HIS228     -0.2212
@<TRIPOS>BOND
     1    55    54    2
     2    63    64    1
     3    66    65    2
     4    54    53    1
     5    65    64    1
     6    65    67   am
     7    56    53    1
     8    56    57    1
     9    53    52    1
    10    67    73    1
    11    67    68    1
    12    58    57   ar
    13    58    60   ar
    14    73    72    1
    15    57    59   ar
    16   112   110    1
    17    52    50   am
    18    60    62   ar
    19    51    50    2
    20    24    23    2
    21    59    61   ar
    22    68    69    1
    23    68    71    1
    24    50    49    1
    25    70    69    2
    26   111   110    1
    27   110   109    2
    28    72    71    1
    29    27    26    1
    30    27    28    1
    31    25    26    1
    32    25    22    1
    33    62    61   ar
    34    23    22    1
    35    49    48    1
    36    22    21    1
    37   109   108    1
    38    91    89   am
    39    48    41   am
    40   108   107    1
    41    21    13   am
    42    47    45   ar
    43    89    88    1
    44    89    90    2
    45    88    85    1
    46    41    40    1
    47    41    42    2
    48    43    44    1
    49    43    40    1
    50    14    13    2
    51    45    44    1
    52    45    46   ar
    53    13    12    1
    54    39    40    1
    55   107   106    1
    56   106   103    1
    57    85    86    1
    58    85    84    1
    59    86    87    2
    60    84    76   am
    61    12    15    1
    62    12    11    1
    63    15    16    1
    64   103   104    1
    65   103   102    1
    66    74    75    1
    67   124   123    2
    68   138   136    1
    69   105   104    2
    70    76    75    1
    71    76    77    2
    72    80    82   ar
    73    80    79   ar
    74   102    94   am
    75   130   129    1
    76    16    17   ar
    77    16    18   ar
    78    75    78    1
    79    78    79    1
    80    82    83   ar
    81   123   122    1
    82   123   125   am
    83   136   137    1
    84   136   133    1
    85    79    81   ar
    86    17    19   ar
    87   129   126    1
    88   129   131    1
    89    18    20   ar
    90   126   125    1
    91   126   127    1
    92   132   127   am
    93   132   133    1
    94    94    93    1
    95    94    95    2
    96    96    93    1
    97    96    97    1
    98   122   121    1
    99    92    93    1
   100   127   128    2
   101   133   134    1
   102    83    81   ar
   103    19    20   ar
   104    99    97   ar
   105    99   101   ar
   106    97    98   ar
   107   116   115    2
   108   121   115   am
   109   134   135    2
   110   101   100   ar
   111    98   100   ar
   112   115   114    1
   113    37    35   ar
   114    37    38   ar
   115    35    34   ar
   116    38    36   ar
   117   152   153   ar
   118   152   150   ar
   119     4     3    2
   120     9    10   ar
   121     9     7   ar
   122    10     8   ar
   123   114   117    1
   124   114   113    1
   125   153   151   ar
   126    34    36   ar
   127    34    33    1
   128   117   118    1
   129   150   149   ar
   130   143   140    1
   131     7     6   ar
   132     3     2    1
   133     8     6   ar
   134    29    30    1
   135    33    30    1
   136   139   140    1
   137   120   119    1
   138     6     5    1
   139   151   149   ar
   140   140   141    1
   141   149   148    1
   142    30    31    1
   143   118   119    1
   144     2     5    1
   145     2     1    1
   146   145   148    1
   147   145   144    1
   148   145   146    1
   149   147   146    2
   150    31    32    2
   151   141   142    2
