@<TRIPOS>MOLECULE
tmp/5oafF00.pdb
 200 193 0 0 0
SMALL
GASTEIGER

@<TRIPOS>ATOM
      1  N        118.9640  182.1320  150.5070 N.3     9  ALA9       -0.1231
      2  CA       118.5010  183.2760  149.7280 C.3     9  ALA9        0.1694
      3  C        117.4410  182.8580  148.7160 C.2     9  ALA9        0.2592
      4  O        116.3280  183.3960  148.7000 O.2     9  ALA9       -0.2718
      5  CB       119.6880  183.9440  149.0320 C.3     9  ALA9        0.0304
      6  N        117.7730  181.8960  147.8570 N.am   10  HIS10      -0.1976
      7  CA       116.8550  181.4020  146.8410 C.3    10  HIS10       0.1656
      8  C        116.1020  180.1510  147.2740 C.2    10  HIS10       0.2291
      9  O        115.2830  179.6410  146.5030 O.2    10  HIS10      -0.2864
     10  CB       117.6150  181.1200  145.5410 C.3    10  HIS10       0.0771
     11  CG       118.3560  182.3050  145.0050 C.ar   10  HIS10       0.0820
     12  ND1      117.7760  183.2240  144.1570 N.ar   10  HIS10      -0.2267
     13  CD2      119.6300  182.7210  145.1960 C.ar   10  HIS10       0.1154
     14  CE1      118.6610  184.1550  143.8490 C.ar   10  HIS10       0.1986
     15  NE2      119.7940  183.8730  144.4660 N.ar   10  HIS10      -0.2212
     16  N        113.9400  179.8610  149.7750 N.3    12  HIS12      -0.1226
     17  CA       112.6470  180.1080  150.4000 C.3    12  HIS12       0.1752
     18  C        111.4850  179.9720  149.4260 C.2    12  HIS12       0.2595
     19  O        110.3390  179.8400  149.8680 O.2    12  HIS12      -0.2718
     20  CB       112.6240  181.5000  151.0350 C.3    12  HIS12       0.0759
     21  CG       112.5500  182.6170  150.0410 C.ar   12  HIS12       0.0818
     22  ND1      113.6200  182.9860  149.2550 N.ar   12  HIS12      -0.2268
     23  CD2      111.5340  183.4480  149.7090 C.ar   12  HIS12       0.1154
     24  CE1      113.2660  183.9950  148.4790 C.ar   12  HIS12       0.1986
     25  NE2      112.0060  184.2950  148.7360 N.ar   12  HIS12      -0.2212
     26  N        111.7490  180.0020  148.1230 N.am   13  ILE13      -0.1980
     27  CA       110.7120  179.8710  147.1050 C.3    13  ILE13       0.1595
     28  C        110.7270  178.4510  146.5630 C.2    13  ILE13       0.2287
     29  O        111.7950  177.8660  146.3400 O.2    13  ILE13      -0.2864
     30  CB       110.9040  180.8990  145.9730 C.3    13  ILE13       0.0276
     31  CG1      112.3250  180.8240  145.4100 C.3    13  ILE13       0.0022
     32  CG2      110.5970  182.3020  146.4700 C.3    13  ILE13       0.0022
     33  CD1      112.5760  181.7730  144.2590 C.3    13  ILE13       0.0001
     34  N        105.9120  182.7730  147.0800 N.3    30  GLY30      -0.1210
     35  CA       106.9000  183.6900  147.6120 C.3    30  GLY30       0.1956
     36  C        107.5260  184.6070  146.5870 C.2    30  GLY30       0.2612
     37  O        108.6830  185.0070  146.7510 O.2    30  GLY30      -0.2717
     38  N        106.7950  184.9530  145.5290 N.am   31  MET31      -0.1965
     39  CA       107.2970  185.8260  144.4740 C.3    31  MET31       0.1736
     40  C        106.3020  186.9560  144.2600 C.2    31  MET31       0.2616
     41  O        105.1220  186.7040  143.9980 O.2    31  MET31      -0.2715
     42  CB       107.5150  185.0490  143.1730 C.3    31  MET31       0.0427
     43  CG       108.5290  183.9230  143.2820 C.3    31  MET31       0.0599
     44  SD       110.2080  184.5230  143.5470 S.3    31  MET31      -0.1393
     45  CE       110.4820  185.4320  142.0290 C.3    31  MET31       0.0692
     46  N        106.7780  188.1950  144.3720 N.am   32  VAL32      -0.1963
     47  CA       105.9530  189.3820  144.1800 C.3    32  VAL32       0.1727
     48  C        106.6780  190.3200  143.2270 C.2    32  VAL32       0.2617
     49  O        107.8690  190.5970  143.4070 O.2    32  VAL32      -0.2715
     50  CB       105.6490  190.0950  145.5120 C.3    32  VAL32       0.0290
     51  CG1      104.8520  191.3680  145.2650 C.3    32  VAL32       0.0023
     52  CG2      104.8970  189.1700  146.4560 C.3    32  VAL32       0.0023
     53  N        105.9630  190.8050  142.2160 N.am   33  GLY33      -0.1940
     54  CA       106.5200  191.7290  141.2480 C.3    33  GLY33       0.2014
     55  C        107.0340  191.0210  140.0100 C.2    33  GLY33       0.2638
     56  O        106.9220  189.8020  139.8490 O.2    33  GLY33      -0.2714
     57  N        107.6150  191.8290  139.1200 N.am   34  GLN34      -0.1977
     58  CA       108.1810  191.3490  137.8580 C.3    34  GLN34       0.1601
     59  C        107.1370  190.5890  137.0400 C.2    34  GLN34       0.2287
     60  O        107.3520  189.4510  136.6170 O.2    34  GLN34      -0.2864
     61  CB       109.4230  190.4870  138.1040 C.3    34  GLN34       0.0394
     62  CG       110.5710  191.2210  138.7790 C.3    34  GLN34       0.0908
     63  CD       111.2260  192.2480  137.8750 C.2    34  GLN34       0.2608
     64  OE1      111.0420  192.2300  136.6580 O.2    34  GLN34      -0.2717
     65  NE2      111.9980  193.1500  138.4680 N.am   34  GLN34      -0.0878
     66  N        118.7970  195.9620  136.2190 N.3    63  GLN63      -0.1231
     67  CA       119.6930  196.4950  137.2310 C.3    63  GLN63       0.1683
     68  C        119.9870  195.4390  138.2960 C.2    63  GLN63       0.2434
     69  O        119.1970  194.5120  138.4940 O.2    63  GLN63      -0.2733
     70  CB       119.0810  197.7310  137.8820 C.3    63  GLN63       0.0380
     71  CG       118.7540  198.8470  136.9040 C.3    63  GLN63       0.0905
     72  CD       118.0950  200.0360  137.5750 C.2    63  GLN63       0.2608
     73  OE1      117.7290  201.0100  136.9170 O.2    63  GLN63      -0.2717
     74  NE2      117.9410  199.9630  138.8910 N.am   63  GLN63      -0.0878
     75  N        121.1240  195.5490  138.9830 N.am   64  PRO64      -0.2718
     76  CA       121.4230  194.6020  140.0660 C.3    64  PRO64       0.1535
     77  C        120.3880  194.6910  141.1780 C.2    64  PRO64       0.2599
     78  O        120.0300  195.7800  141.6330 O.2    64  PRO64      -0.2715
     79  CB       122.8110  195.0400  140.5460 C.3    64  PRO64       0.0310
     80  CG       123.4030  195.7660  139.3850 C.3    64  PRO64       0.0237
     81  CD       122.2540  196.4540  138.7130 C.3    64  PRO64       0.0939
     82  N        119.9070  193.5310  141.6130 N.am   65  GLY65      -0.1941
     83  CA       118.8940  193.4560  142.6430 C.3    65  GLY65       0.2014
     84  C        117.4880  193.1930  142.1550 C.2    65  GLY65       0.2640
     85  O        116.5500  193.2770  142.9560 O.2    65  GLY65      -0.2714
     86  N        117.3090  192.8780  140.8750 N.am   66  THR66      -0.1936
     87  CA       115.9950  192.6120  140.3070 C.3    66  THR66       0.2028
     88  C        115.6080  191.1390  140.3560 C.2    66  THR66       0.2643
     89  O        114.5480  190.7760  139.8360 O.2    66  THR66      -0.2714
     90  CB       115.9330  193.1110  138.8600 C.3    66  THR66       0.1808
     91  OG1      117.0510  192.5960  138.1280 O.3    66  THR66      -0.2208
     92  CG2      115.9580  194.6310  138.8190 C.3    66  THR66       0.0379
     93  N        116.4310  190.2890  140.9600 N.am   67  GLY67      -0.1939
     94  CA       116.1050  188.8790  141.0580 C.3    67  GLY67       0.2014
     95  C        116.3460  188.0760  139.8000 C.2    67  GLY67       0.2639
     96  O        115.5050  187.2480  139.4270 O.2    67  GLY67      -0.2714
     97  N        117.4770  188.3010  139.1250 N.am   68  LYS68      -0.1963
     98  CA       117.7960  187.5180  137.9350 C.3    68  LYS68       0.1728
     99  C        117.9850  186.0450  138.2770 C.2    68  LYS68       0.2617
    100  O        117.4400  185.1670  137.5970 O.2    68  LYS68      -0.2715
    101  CB       119.0490  188.0740  137.2600 C.3    68  LYS68       0.0311
    102  CG       118.8760  189.4660  136.6800 C.3    68  LYS68       0.0038
    103  CD       117.7700  189.4880  135.6410 C.3    68  LYS68       0.0206
    104  CE       117.6710  190.8450  134.9710 C.3    68  LYS68       0.1093
    105  NZ       117.3630  191.9240  135.9470 N.3    68  LYS68      -0.1314
    106  N        118.7540  185.7540  139.3280 N.am   69  THR69      -0.1937
    107  CA       118.9640  184.3670  139.7270 C.3    69  THR69       0.2028
    108  C        117.7090  183.7690  140.3510 C.2    69  THR69       0.2642
    109  O        117.4840  182.5570  140.2490 O.2    69  THR69      -0.2714
    110  CB       120.1430  184.2740  140.6990 C.3    69  THR69       0.1808
    111  OG1      121.2630  184.9860  140.1590 O.3    69  THR69      -0.2208
    112  CG2      120.5420  182.8230  140.9260 C.3    69  THR69       0.0379
    113  N        116.8770  184.5980  140.9880 N.am   70  ALA70      -0.1977
    114  CA       115.6510  184.0930  141.5970 C.3    70  ALA70       0.1597
    115  C        114.6690  183.5820  140.5500 C.2    70  ALA70       0.2287
    116  O        113.9270  182.6290  140.8130 O.2    70  ALA70      -0.2864
    117  CB       114.9990  185.1820  142.4490 C.3    70  ALA70       0.0319
    118  N        126.1820  185.4390  135.1170 N.3   256  GLU256     -0.1245
    119  CA       127.3060  186.3710  135.0130 C.3   256  GLU256      0.1567
    120  C        128.1080  186.1250  133.7350 C.2   256  GLU256      0.2260
    121  O        129.3280  185.9490  133.7580 O.2   256  GLU256     -0.2867
    122  CB       128.2030  186.2910  136.2500 C.3   256  GLU256      0.0388
    123  CG       127.4630  186.4480  137.5710 C.3   256  GLU256      0.1160
    124  CD       126.8920  187.8400  137.7670 C.2   256  GLU256      0.3649
    125  OE1      127.3860  188.7890  137.1220 O.co2 256  GLU256     -0.2457
    126  OE2      125.9460  187.9850  138.5700 O.co2 256  GLU256     -0.2457
    127  N        124.6550  190.9940  134.5550 N.3   285  ASN285     -0.1240
    128  CA       124.4450  192.0040  135.5830 C.3   285  ASN285      0.1653
    129  C        125.1040  193.3390  135.2570 C.2   285  ASN285      0.2266
    130  O        124.9510  194.2920  136.0280 O.2   285  ASN285     -0.2867
    131  CB       124.9650  191.4880  136.9310 C.3   285  ASN285      0.1155
    132  CG       124.3720  192.2340  138.1100 C.2   285  ASN285      0.2627
    133  OD1      123.2900  192.8120  138.0110 O.2   285  ASN285     -0.2716
    134  ND2      125.0800  192.2250  139.2330 N.am  285  ASN285     -0.0877
    135  N        112.1820  196.9250  142.0920 N.3   318  TYR318     -0.1241
    136  CA       110.9910  196.7310  142.9060 C.3   318  TYR318      0.1605
    137  C        110.5740  198.0300  143.5820 C.2   318  TYR318      0.2264
    138  O        111.4130  198.8300  144.0060 O.2   318  TYR318     -0.2867
    139  CB       111.2390  195.6480  143.9560 C.3   318  TYR318      0.0534
    140  CG       111.6450  194.3180  143.3670 C.ar  318  TYR318     -0.0201
    141  CD1      110.6920  193.4330  142.8790 C.ar  318  TYR318     -0.0009
    142  CD2      112.9810  193.9460  143.2960 C.ar  318  TYR318     -0.0009
    143  CE1      111.0580  192.2160  142.3380 C.ar  318  TYR318      0.0417
    144  CE2      113.3570  192.7320  142.7570 C.ar  318  TYR318      0.0417
    145  CZ       112.3910  191.8710  142.2790 C.ar  318  TYR318      0.1957
    146  OH       112.7610  190.6600  141.7420 O.3   318  TYR318     -0.2866
    147  N        107.3920  191.5140  150.1860 N.3   326  ILE326     -0.1245
    148  CA       108.3630  190.4320  150.0600 C.3   326  ILE326      0.1561
    149  C        109.1020  190.2160  151.3750 C.2   326  ILE326      0.2260
    150  O        109.4670  189.0820  151.7080 O.2   326  ILE326     -0.2867
    151  CB       109.3370  190.7000  148.8970 C.3   326  ILE326      0.0252
    152  CG1      110.1360  191.9820  149.1320 C.3   326  ILE326      0.0019
    153  CG2      108.5840  190.7790  147.5800 C.3   326  ILE326      0.0019
    154  CD1      111.1060  192.3100  148.0190 C.3   326  ILE326      0.0001
    155  N        106.9910  188.1490  153.4020 N.3   329  ILE329     -0.1231
    156  CA       107.1450  186.7640  152.9710 C.3   329  ILE329      0.1692
    157  C        108.3990  186.1540  153.5830 C.2   329  ILE329      0.2591
    158  O        108.4020  184.9870  153.9970 O.2   329  ILE329     -0.2718
    159  CB       107.1630  186.6810  151.4340 C.3   329  ILE329      0.0266
    160  CG1      105.8360  187.1810  150.8590 C.3   329  ILE329      0.0019
    161  CG2      107.4400  185.2570  150.9740 C.3   329  ILE329      0.0020
    162  CD1      105.7520  187.0860  149.3530 C.3   329  ILE329      0.0001
    163  N        109.4810  186.9320  153.6630 N.am  330  ARG330     -0.1980
    164  CA       110.7150  186.4330  154.2600 C.3   330  ARG330      0.1597
    165  C        110.6070  186.2750  155.7700 C.2   330  ARG330      0.2287
    166  O        111.4400  185.5870  156.3690 O.2   330  ARG330     -0.2864
    167  CB       111.8800  187.3600  153.9120 C.3   330  ARG330      0.0334
    168  CG       112.0900  187.5410  152.4200 C.3   330  ARG330      0.0492
    169  CD       113.1380  188.5980  152.1220 C.3   330  ARG330      0.2205
    170  NE       112.9600  189.1690  150.7900 N.pl3 330  ARG330     -0.0865
    171  CZ       113.4290  188.6230  149.6720 C.cat 330  ARG330      0.5346
    172  NH1      113.2170  189.2150  148.5050 N.pl3 330  ARG330      0.1354
    173  NH2      114.1100  187.4860  149.7210 N.pl3 330  ARG330      0.1354
    174  N        118.7070  195.5810  148.9120 N.3   355  LEU355     -0.1231
    175  CA       117.6280  194.7790  149.4790 C.3   355  LEU355      0.1693
    176  C        118.1600  193.6180  150.3090 C.2   355  LEU355      0.2591
    177  O        117.5940  193.3000  151.3620 O.2   355  LEU355     -0.2718
    178  CB       116.7200  194.2600  148.3630 C.3   355  LEU355      0.0284
    179  CG       115.5480  193.3750  148.7920 C.3   355  LEU355      0.0019
    180  CD1      114.6330  194.1210  149.7500 C.3   355  LEU355      0.0001
    181  CD2      114.7760  192.8870  147.5770 C.3   355  LEU355      0.0001
    182  N        119.2420  192.9770  149.8570 N.am  356  ARG356     -0.1980
    183  CA       119.7860  191.8360  150.5870 C.3   356  ARG356      0.1597
    184  C        120.2500  192.2390  151.9820 C.2   356  ARG356      0.2287
    185  O        120.2050  191.4310  152.9180 O.2   356  ARG356     -0.2864
    186  CB       120.9330  191.2070  149.7950 C.3   356  ARG356      0.0334
    187  CG       120.5090  190.6010  148.4640 C.3   356  ARG356      0.0492
    188  CD       121.6870  189.9560  147.7530 C.3   356  ARG356      0.2205
    189  NE       122.6580  190.9460  147.2940 N.pl3 356  ARG356     -0.0865
    190  CZ       122.9690  191.1560  146.0200 C.cat 356  ARG356      0.5346
    191  NH1      123.8620  192.0790  145.6960 N.pl3 356  ARG356      0.1354
    192  NH2      122.3980  190.4340  145.0680 N.pl3 356  ARG356      0.1354
    193  N        117.3570  192.0810  153.9870 N.3   359  ILE359     -0.1245
    194  CA       117.0610  190.6670  154.1940 C.3   359  ILE359      0.1561
    195  C        117.8930  190.1150  155.3440 C.2   359  ILE359      0.2260
    196  O        117.4370  189.2510  156.1020 O.2   359  ILE359     -0.2867
    197  CB       117.2930  189.8790  152.8910 C.3   359  ILE359      0.0252
    198  CG1      116.3840  190.4030  151.7800 C.3   359  ILE359      0.0019
    199  CG2      117.0540  188.3920  153.1070 C.3   359  ILE359      0.0019
    200  CD1      116.6290  189.7530  150.4370 C.3   359  ILE359      0.0001
@<TRIPOS>BOND
     1   120   121    2
     2   120   119    1
     3   127   128    1
     4   104   103    1
     5   104   105    1
     6   119   118    1
     7   119   122    1
     8   129   128    1
     9   129   130    2
    10   128   131    1
    11   103   102    1
    12    66    67    1
    13   122   123    1
    14    60    59    2
    15    64    63    2
    16   102   101    1
    17    71    72    1
    18    71    70    1
    19    73    72    2
    20   131   132    1
    21    59    58    1
    22   125   124   ar
    23    67    70    1
    24    67    68    1
    25   101    98    1
    26   123   124    1
    27    72    74   am
    28   100    99    2
    29   124   126   ar
    30    58    61    1
    31    58    57    1
    32    63    65   am
    33    63    62    1
    34    98    99    1
    35    98    97    1
    36   133   132    2
    37    61    62    1
    38   132   134   am
    39    91    90    1
    40    99   106   am
    41    68    69    2
    42    68    75   am
    43    81    75    1
    44    81    80    1
    45    92    90    1
    46    90    87    1
    47    75    76    1
    48    57    55   am
    49    97    95   am
    50   106   107    1
    51    80    79    1
    52    96    95    2
    53   107   108    1
    54   107   110    1
    55    95    94    1
    56    89    88    2
    57    56    55    2
    58    55    54    1
    59    76    79    1
    60    76    77    1
    61   111   110    1
    62   109   108    2
    63    87    88    1
    64    87    86    1
    65   108   113   am
    66    88    93   am
    67   115   116    2
    68   115   114    1
    69   110   112    1
    70    86    84   am
    71    93    94    1
    72   113   114    1
    73    77    82   am
    74    77    78    2
    75    54    53    1
    76   114   117    1
    77    82    83    1
    78   146   145    1
    79    45    44    1
    80   135   136    1
    81    84    83    1
    82    84    85    2
    83    53    48   am
    84   145   143   ar
    85   145   144   ar
    86   143   141   ar
    87   144   142   ar
    88   141   140   ar
    89   136   137    1
    90   136   139    1
    91    42    43    1
    92    42    39    1
    93    48    49    2
    94    48    47    1
    95    43    44    1
    96   142   140   ar
    97   140   139    1
    98   137   138    2
    99    14    12   ar
   100    14    15   ar
   101    41    40    2
   102    12    11   ar
   103    47    46    1
   104    47    50    1
   105    33    31    1
   106    40    46   am
   107    40    39    1
   108    15    13   ar
   109    39    38    1
   110    11    13   ar
   111    11    10    1
   112   192   190    1
   113    51    50    1
   114    31    30    1
   115    50    52    1
   116    38    36   am
   117    10     7    1
   118   191   190    1
   119    30    32    1
   120    30    27    1
   121   190   189    2
   122    29    28    2
   123     9     8    2
   124    28    27    1
   125    36    37    2
   126    36    35    1
   127     7     8    1
   128     7     6    1
   129    34    35    1
   130    27    26    1
   131   189   188    1
   132   181   179    1
   133   153   151    1
   134   188   187    1
   135     6     3   am
   136   154   152    1
   137    26    18   am
   138   178   179    1
   139   178   175    1
   140   187   186    1
   141    24    25   ar
   142    24    22   ar
   143   172   171    1
   144     4     3    2
   145     3     2    1
   146    25    23   ar
   147   179   180    1
   148   151   152    1
   149   151   148    1
   150   174   175    1
   151     5     2    1
   152    22    21   ar
   153   162   160    1
   154    18    19    2
   155    18    17    1
   156   175   176    1
   157   171   173    1
   158   171   170    2
   159    23    21   ar
   160     2     1    1
   161    16    17    1
   162   186   183    1
   163   182   176   am
   164   182   183    1
   165    21    20    1
   166   148   147    1
   167   148   149    1
   168   176   177    2
   169    17    20    1
   170   200   198    1
   171   183   184    1
   172   170   169    1
   173   160   159    1
   174   161   159    1
   175   149   150    2
   176   159   156    1
   177   198   197    1
   178   184   185    2
   179   169   168    1
   180   168   167    1
   181   197   199    1
   182   197   194    1
   183   156   155    1
   184   156   157    1
   185   157   163   am
   186   157   158    2
   187   163   164    1
   188   167   164    1
   189   193   194    1
   190   194   195    1
   191   164   165    1
   192   195   196    2
   193   165   166    2
