@<TRIPOS>MOLECULE
tmp/5oaiA00.pdb
 159 152 0 0 0
SMALL
GASTEIGER

@<TRIPOS>ATOM
      1  N         51.1670    7.6400   25.6090 N.3     3  ILE3       -0.1245
      2  CA        50.9250    8.8500   24.8340 C.3     3  ILE3        0.1561
      3  C         49.4280    9.1020   24.8150 C.2     3  ILE3        0.2260
      4  O         48.6620    8.1570   24.5610 O.2     3  ILE3       -0.2867
      5  CB        51.4760    8.7250   23.3990 C.3     3  ILE3        0.0252
      6  CG1       52.9600    8.3500   23.4270 C.3     3  ILE3        0.0019
      7  CG2       51.2620   10.0110   22.6140 C.3     3  ILE3        0.0019
      8  CD1       53.8430    9.3940   24.0920 C.3     3  ILE3        0.0001
      9  N         48.0790   10.9590   19.5380 N.3     8  GLN8       -0.1245
     10  CA        48.3160    9.9050   18.5600 C.3     8  GLN8        0.1566
     11  C         47.6760   10.2280   17.2140 C.2     8  GLN8        0.2260
     12  O         48.1700    9.7820   16.1720 O.2     8  GLN8       -0.2867
     13  CB        47.7890    8.5750   19.0890 C.3     8  GLN8        0.0367
     14  CG        48.3730    8.1630   20.4310 C.3     8  GLN8        0.0905
     15  CD        48.0730    6.7180   20.7760 C.2     8  GLN8        0.2608
     16  OE1       47.7690    6.3910   21.9240 O.2     8  GLN8       -0.2717
     17  NE2       48.1600    5.8430   19.7820 N.am    8  GLN8       -0.0878
     18  N         54.2280    5.6800   13.8580 N.3    38  LEU38      -0.1231
     19  CA        54.7710    4.7020   14.7950 C.3    38  LEU38       0.1693
     20  C         54.6080    3.2810   14.2710 C.2    38  LEU38       0.2592
     21  O         55.5030    2.4440   14.4360 O.2    38  LEU38      -0.2718
     22  CB        54.0930    4.8500   16.1580 C.3    38  LEU38       0.0284
     23  CG        54.7690    5.7620   17.1820 C.3    38  LEU38       0.0019
     24  CD1       56.1530    5.2330   17.5170 C.3    38  LEU38       0.0001
     25  CD2       54.8390    7.2060   16.6950 C.3    38  LEU38       0.0001
     26  N         53.4680    2.9900   13.6380 N.am   39  PHE39      -0.1976
     27  CA        53.2400    1.6530   13.0990 C.3    39  PHE39       0.1639
     28  C         54.2350    1.3310   11.9930 C.2    39  PHE39       0.2290
     29  O         54.8300    0.2480   11.9740 O.2    39  PHE39      -0.2864
     30  CB        51.8050    1.5300   12.5820 C.3    39  PHE39       0.0560
     31  CG        51.5790    0.3340   11.6930 C.ar   39  PHE39      -0.0200
     32  CD1       51.3580   -0.9190   12.2390 C.ar   39  PHE39      -0.0042
     33  CD2       51.5800    0.4650   10.3120 C.ar   39  PHE39      -0.0042
     34  CE1       51.1520   -2.0210   11.4270 C.ar   39  PHE39      -0.0003
     35  CE2       51.3750   -0.6320    9.4950 C.ar   39  PHE39      -0.0003
     36  CZ        51.1590   -1.8760   10.0540 C.ar   39  PHE39      -0.0000
     37  N         57.1550    2.7780   11.3490 N.3    41  LEU41      -0.1231
     38  CA        58.5110    2.6930   11.8820 C.3    41  LEU41       0.1693
     39  C         58.7510    1.3510   12.5590 C.2    41  LEU41       0.2593
     40  O         59.8450    0.7840   12.4620 O.2    41  LEU41      -0.2718
     41  CB        58.7710    3.8380   12.8590 C.3    41  LEU41       0.0284
     42  CG        59.2510    5.1550   12.2510 C.3    41  LEU41       0.0019
     43  CD1       59.1760    6.2650   13.2790 C.3    41  LEU41       0.0001
     44  CD2       60.6680    5.0110   11.7270 C.3    41  LEU41       0.0001
     45  N         57.7420    0.8300   13.2600 N.am   42  GLY42      -0.1942
     46  CA        57.8710   -0.4980   13.8360 C.3    42  GLY42       0.2014
     47  C         58.0160   -1.5730   12.7760 C.2    42  GLY42       0.2638
     48  O         58.7580   -2.5430   12.9570 O.2    42  GLY42      -0.2714
     49  N         57.3070   -1.4170   11.6550 N.am   43  GLN43      -0.1977
     50  CA        57.4610   -2.3500   10.5450 C.3    43  GLN43       0.1601
     51  C         58.8450   -2.2330    9.9200 C.2    43  GLN43       0.2287
     52  O         59.4490   -3.2430    9.5420 O.2    43  GLN43      -0.2864
     53  CB        56.3760   -2.1020    9.4970 C.3    43  GLN43       0.0394
     54  CG        54.9580   -2.3120   10.0070 C.3    43  GLN43       0.0908
     55  CD        54.6410   -3.7720   10.2620 C.2    43  GLN43       0.2608
     56  OE1       54.5790   -4.5770    9.3320 O.2    43  GLN43      -0.2717
     57  NE2       54.4430   -4.1230   11.5280 N.am   43  GLN43      -0.0878
     58  N         61.6200   -1.3180   11.4820 N.3    45  ILE45      -0.1231
     59  CA        62.5410   -1.9600   12.4170 C.3    45  ILE45       0.1692
     60  C         62.5100   -3.4730   12.2430 C.2    45  ILE45       0.2591
     61  O         63.5480   -4.1430   12.3100 O.2    45  ILE45      -0.2718
     62  CB        62.2030   -1.5430   13.8620 C.3    45  ILE45       0.0266
     63  CG1       62.5010   -0.0570   14.0650 C.3    45  ILE45       0.0019
     64  CG2       62.9750   -2.3930   14.8660 C.3    45  ILE45       0.0020
     65  CD1       62.0600    0.4850   15.4080 C.3    45  ILE45       0.0001
     66  N         61.3230   -4.0340   12.0010 N.am   46  MET46      -0.1979
     67  CA        61.2190   -5.4700   11.7650 C.3    46  MET46       0.1605
     68  C         61.8610   -5.8570   10.4390 C.2    46  MET46       0.2287
     69  O         62.6220   -6.8290   10.3680 O.2    46  MET46      -0.2864
     70  CB        59.7530   -5.9030   11.7960 C.3    46  MET46       0.0413
     71  CG        59.1320   -5.8820   13.1770 C.3    46  MET46       0.0598
     72  SD        57.5660   -6.7670   13.2590 S.3    46  MET46      -0.1393
     73  CE        58.0670   -8.3870   12.6840 C.3    46  MET46       0.0692
     74  N         65.6810   -4.7340   15.7050 N.3    51  TYR51      -0.1241
     75  CA        65.3810   -5.0700   17.0890 C.3    51  TYR51       0.1605
     76  C         66.3900   -6.0830   17.6200 C.2    51  TYR51       0.2264
     77  O         66.9360   -6.9000   16.8750 O.2    51  TYR51      -0.2867
     78  CB        63.9610   -5.6230   17.2200 C.3    51  TYR51       0.0534
     79  CG        63.5620   -5.9060   18.6520 C.ar   51  TYR51      -0.0201
     80  CD1       63.5400   -4.8910   19.5990 C.ar   51  TYR51      -0.0009
     81  CD2       63.2160   -7.1900   19.0580 C.ar   51  TYR51      -0.0009
     82  CE1       63.1830   -5.1430   20.9110 C.ar   51  TYR51       0.0417
     83  CE2       62.8560   -7.4520   20.3690 C.ar   51  TYR51       0.0417
     84  CZ        62.8420   -6.4250   21.2900 C.ar   51  TYR51       0.1957
     85  OH        62.4850   -6.6810   22.5940 O.3    51  TYR51      -0.2866
     86  N         66.3840   -1.2950   20.4590 N.3    59  VAL59      -0.1245
     87  CA        66.5790   -1.2430   19.0140 C.3    59  VAL59       0.1561
     88  C         67.9910   -0.7460   18.7460 C.2    59  VAL59       0.2260
     89  O         68.3940    0.2980   19.2690 O.2    59  VAL59      -0.2867
     90  CB        65.5430   -0.3250   18.3410 C.3    59  VAL59       0.0252
     91  CG1       65.9640   -0.0040   16.9120 C.3    59  VAL59       0.0019
     92  CG2       64.1630   -0.9600   18.3650 C.3    59  VAL59       0.0019
     93  N         67.7260    4.8980   10.3600 N.3    66  LEU66      -0.1245
     94  CA        66.9870    5.2000   11.5820 C.3    66  LEU66       0.1561
     95  C         67.8960    5.8230   12.6340 C.2    66  LEU66       0.2260
     96  O         67.4990    6.7640   13.3300 O.2    66  LEU66      -0.2867
     97  CB        66.3270    3.9310   12.1260 C.3    66  LEU66       0.0270
     98  CG        65.4540    4.1020   13.3730 C.3    66  LEU66       0.0019
     99  CD1       64.3580    5.1290   13.1310 C.3    66  LEU66       0.0001
    100  CD2       64.8590    2.7680   13.7880 C.3    66  LEU66       0.0001
    101  N         67.3370    9.4540   14.2400 N.3    70  PHE70      -0.1241
    102  CA        67.0810    9.5840   15.6670 C.3    70  PHE70       0.1605
    103  C         68.2450   10.2080   16.4210 C.2    70  PHE70       0.2264
    104  O         68.0430   10.7220   17.5260 O.2    70  PHE70      -0.2867
    105  CB        66.7470    8.2120   16.2560 C.3    70  PHE70       0.0534
    106  CG        65.3020    7.8180   16.0970 C.ar   70  PHE70      -0.0203
    107  CD1       64.4440    8.5790   15.3190 C.ar   70  PHE70      -0.0042
    108  CD2       64.8080    6.6800   16.7120 C.ar   70  PHE70      -0.0042
    109  CE1       63.1170    8.2200   15.1690 C.ar   70  PHE70      -0.0003
    110  CE2       63.4800    6.3130   16.5640 C.ar   70  PHE70      -0.0003
    111  CZ        62.6350    7.0870   15.7910 C.ar   70  PHE70      -0.0000
    112  N         68.0870    2.6700   21.4090 N.3    75  PHE75      -0.1241
    113  CA        67.0960    3.2310   22.3160 C.3    75  PHE75       0.1605
    114  C         66.1990    2.1150   22.8260 C.2    75  PHE75       0.2264
    115  O         66.1380    1.0250   22.2490 O.2    75  PHE75      -0.2867
    116  CB        66.2650    4.3370   21.6440 C.3    75  PHE75       0.0534
    117  CG        65.4850    3.8750   20.4400 C.ar   75  PHE75      -0.0203
    118  CD1       64.1870    3.4030   20.5750 C.ar   75  PHE75      -0.0042
    119  CD2       66.0450    3.9230   19.1720 C.ar   75  PHE75      -0.0042
    120  CE1       63.4650    2.9780   19.4710 C.ar   75  PHE75      -0.0003
    121  CE2       65.3290    3.5000   18.0630 C.ar   75  PHE75      -0.0003
    122  CZ        64.0360    3.0280   18.2140 C.ar   75  PHE75      -0.0000
    123  N         62.5670    0.5020   23.5510 N.3    77  VAL77      -0.1245
    124  CA        61.2080    0.5380   23.0160 C.3    77  VAL77       0.1561
    125  C         60.1740    0.7950   24.0950 C.2    77  VAL77       0.2260
    126  O         58.9900    0.9630   23.7780 O.2    77  VAL77      -0.2867
    127  CB        60.8580   -0.7740   22.2890 C.3    77  VAL77       0.0252
    128  CG1       61.8500   -1.0410   21.1710 C.3    77  VAL77       0.0019
    129  CG2       60.8320   -1.9340   23.2720 C.3    77  VAL77       0.0019
    130  N         58.2170    5.6470   25.2980 N.3    80  HIS80      -0.1241
    131  CA        57.4420    6.1660   24.1720 C.3    80  HIS80       0.1621
    132  C         57.6370    7.6680   23.9920 C.2    80  HIS80       0.2264
    133  O         57.7390    8.1510   22.8580 O.2    80  HIS80      -0.2867
    134  CB        55.9570    5.8530   24.3580 C.3    80  HIS80       0.0745
    135  CG        55.6200    4.3980   24.2500 C.ar   80  HIS80       0.0817
    136  ND1       54.3350    3.9520   24.0300 N.ar   80  HIS80      -0.2268
    137  CD2       56.3910    3.2890   24.3530 C.ar   80  HIS80       0.1154
    138  CE1       54.3300    2.6320   23.9890 C.ar   80  HIS80       0.1986
    139  NE2       55.5650    2.2040   24.1840 N.ar   80  HIS80      -0.2212
    140  N         60.7620    8.3490   22.1840 N.3    83  ILE83      -0.1231
    141  CA        60.6140    7.9570   20.7860 C.3    83  ILE83       0.1692
    142  C         59.7870    8.9900   20.0290 C.2    83  ILE83       0.2592
    143  O         60.1240    9.3680   18.9010 O.2    83  ILE83      -0.2718
    144  CB        60.0010    6.5480   20.6930 C.3    83  ILE83       0.0266
    145  CG1       60.9990    5.4990   21.1880 C.3    83  ILE83       0.0019
    146  CG2       59.5770    6.2400   19.2660 C.3    83  ILE83       0.0020
    147  CD1       60.4000    4.1100   21.3570 C.3    83  ILE83       0.0001
    148  N         58.6950    9.4670   20.6360 N.am   84  TYR84      -0.1976
    149  CA        57.9010   10.5180   20.0050 C.3    84  TYR84       0.1639
    150  C         58.7340   11.7720   19.7770 C.2    84  TYR84       0.2290
    151  O         58.6480   12.3960   18.7130 O.2    84  TYR84      -0.2864
    152  CB        56.6750   10.8400   20.8610 C.3    84  TYR84       0.0560
    153  CG        55.4080   10.1540   20.3990 C.ar   84  TYR84      -0.0198
    154  CD1       55.2920    8.7710   20.4330 C.ar   84  TYR84      -0.0009
    155  CD2       54.3310   10.8900   19.9210 C.ar   84  TYR84      -0.0009
    156  CE1       54.1370    8.1380   20.0100 C.ar   84  TYR84       0.0417
    157  CE2       53.1720   10.2660   19.4930 C.ar   84  TYR84       0.0417
    158  CZ        53.0800    8.8920   19.5400 C.ar   84  TYR84       0.1957
    159  OH        51.9270    8.2680   19.1160 O.3    84  TYR84      -0.2866
@<TRIPOS>BOND
     1    56    55    2
     2    35    36   ar
     3    35    33   ar
     4    53    54    1
     5    53    50    1
     6    52    51    2
     7    51    50    1
     8    54    55    1
     9    36    34   ar
    10    55    57   am
    11    33    31   ar
    12    93    94    1
    13    69    68    2
    14    68    67    1
    15    50    49    1
    16    37    38    1
    17    34    32   ar
    18    58    59    1
    19    94    97    1
    20    94    95    1
    21    49    47   am
    22    31    32   ar
    23    31    30    1
    24    44    42    1
    25    67    70    1
    26    67    66    1
    27    70    71    1
    28    38    39    1
    29    38    41    1
    30    29    28    2
    31    28    27    1
    32    66    60   am
    33    97    98    1
    34    60    61    2
    35    60    59    1
    36    42    41    1
    37    42    43    1
    38    59    62    1
    39    40    39    2
    40    39    45   am
    41    30    27    1
    42    95    96    2
    43    73    72    1
    44    47    48    2
    45    47    46    1
    46    27    26    1
    47    99    98    1
    48    71    72    1
    49    45    46    1
    50    98   100    1
    51    26    20   am
    52    18    19    1
    53    62    63    1
    54    62    64    1
    55    63    65    1
    56   101   102    1
    57    20    21    2
    58    20    19    1
    59    19    22    1
    60   109   107   ar
    61   109   111   ar
    62   107   106   ar
    63   102   105    1
    64   102   103    1
    65    74    75    1
    66   111   110   ar
    67   106   105    1
    68   106   108   ar
    69    22    23    1
    70    12    11    2
    71   103   104    2
    72   110   108   ar
    73    25    23    1
    74    77    76    2
    75    91    90    1
    76    75    78    1
    77    75    76    1
    78    23    24    1
    79    11    10    1
    80    78    79    1
    81   121   122   ar
    82   121   119   ar
    83   122   120   ar
    84    90    92    1
    85    90    87    1
    86    10    13    1
    87    10     9    1
    88    79    81   ar
    89    79    80   ar
    90   151   150    2
    91    88    87    1
    92    88    89    2
    93   143   142    2
    94    87    86    1
    95    81    83   ar
    96    13    14    1
    97   159   158    1
    98   119   117   ar
    99   146   144    1
   100   120   118   ar
   101   157   158   ar
   102   157   155   ar
   103   158   156   ar
   104    80    82   ar
   105   150   149    1
   106    17    15   am
   107   155   153   ar
   108   149   148    1
   109   149   152    1
   110   156   154   ar
   111   142   148   am
   112   142   141    1
   113    83    84   ar
   114   153   154   ar
   115   153   152    1
   116    14    15    1
   117   117   118   ar
   118   117   116    1
   119   144   141    1
   120   144   145    1
   121    15    16    2
   122   141   140    1
   123    82    84   ar
   124   128   127    1
   125   145   147    1
   126    84    85    1
   127   112   113    1
   128   116   113    1
   129   115   114    2
   130   127   124    1
   131   127   129    1
   132   113   114    1
   133     7     5    1
   134   133   132    2
   135   124   123    1
   136   124   125    1
   137     5     6    1
   138     5     2    1
   139     6     8    1
   140   126   125    2
   141   138   136   ar
   142   138   139   ar
   143   132   131    1
   144   136   135   ar
   145   131   134    1
   146   131   130    1
   147   139   137   ar
   148   135   137   ar
   149   135   134    1
   150     4     3    2
   151     3     2    1
   152     2     1    1
