@<TRIPOS>MOLECULE
tmp/5oarD03.pdb
 147 145 0 0 0
SMALL
GASTEIGER

@<TRIPOS>ATOM
      1  N         -2.8960   36.1700  139.6750 N.3    91  ARG91      -0.1245
      2  CA        -2.2680   37.5000  139.7890 C.3    91  ARG91       0.1563
      3  C         -0.7630   37.4520  139.5110 C.2    91  ARG91       0.2260
      4  O         -0.1890   38.3450  138.8320 O.2    91  ARG91      -0.2867
      5  CB        -2.4930   38.0750  141.1690 C.3    91  ARG91       0.0307
      6  CG        -3.8490   38.7520  141.3380 C.3    91  ARG91       0.0489
      7  CD        -5.0460   37.9320  140.8300 C.3    91  ARG91       0.2205
      8  NE        -6.2930   38.6630  141.0270 N.pl3  91  ARG91      -0.0865
      9  CZ        -6.9670   38.7220  142.1710 C.cat  91  ARG91       0.5346
     10  NH1       -6.5590   38.0720  143.2540 N.pl3  91  ARG91       0.1354
     11  NH2       -8.0630   39.4460  142.2250 N.pl3  91  ARG91       0.1354
     12  N         -7.1510   34.4400  137.0980 N.3   120  ASP120     -0.1239
     13  CA        -7.9560   35.5860  137.4760 C.3   120  ASP120      0.1674
     14  C         -8.0200   36.5210  136.2790 C.2   120  ASP120      0.2266
     15  O         -7.6720   36.1460  135.1650 O.2   120  ASP120     -0.2867
     16  CB        -7.4050   36.2760  138.7420 C.3   120  ASP120      0.1410
     17  CG        -8.4920   36.9270  139.5790 C.2   120  ASP120      0.3668
     18  OD1       -8.8940   38.0630  139.2410 O.co2 120  ASP120     -0.2456
     19  OD2       -8.9500   36.3410  140.5980 O.co2 120  ASP120     -0.2456
     20  N        -14.0410   38.2260  138.1080 N.3   173  HIS173     -0.1241
     21  CA       -12.6060   37.9210  138.0180 C.3   173  HIS173      0.1621
     22  C        -12.3510   37.1240  136.7910 C.2   173  HIS173      0.2264
     23  O        -11.6860   36.0840  136.8440 O.2   173  HIS173     -0.2867
     24  CB       -12.1150   37.1490  139.2450 C.3   173  HIS173      0.0745
     25  CG       -12.0800   37.9750  140.4860 C.ar  173  HIS173      0.0817
     26  ND1      -12.8740   37.7110  141.5740 N.ar  173  HIS173     -0.2268
     27  CD2      -11.3540   39.0730  140.8020 C.ar  173  HIS173      0.1154
     28  CE1      -12.6450   38.6090  142.5100 C.ar  173  HIS173      0.1986
     29  NE2      -11.7230   39.4450  142.0670 N.ar  173  HIS173     -0.2212
     30  N        -13.1940   46.1070  141.7430 N.3   204  VAL204     -0.1231
     31  CA       -12.4900   46.4240  143.0040 C.3   204  VAL204      0.1692
     32  C        -10.9730   46.6020  142.7950 C.2   204  VAL204      0.2591
     33  O        -10.3590   47.4480  143.4480 O.2   204  VAL204     -0.2718
     34  CB       -12.7440   45.3440  144.0810 C.3   204  VAL204      0.0266
     35  CG1      -12.0230   45.6680  145.3890 C.3   204  VAL204      0.0020
     36  CG2      -14.2210   45.2400  144.3590 C.3   204  VAL204      0.0020
     37  N        -10.4120   45.8080  141.8730 N.am  205  GLU205     -0.1979
     38  CA        -8.9860   45.7850  141.5240 C.3   205  GLU205      0.1602
     39  C         -8.8060   45.9370  140.0420 C.2   205  GLU205      0.2287
     40  O         -9.5610   45.3400  139.2730 O.2   205  GLU205     -0.2864
     41  CB        -8.3730   44.4230  141.8250 C.3   205  GLU205      0.0415
     42  CG        -7.6620   44.3300  143.1450 C.3   205  GLU205      0.1163
     43  CD        -7.5740   42.8910  143.6100 C.2   205  GLU205      0.3649
     44  OE1       -7.2080   42.0330  142.7790 O.co2 205  GLU205     -0.2457
     45  OE2       -7.9190   42.6280  144.8050 O.co2 205  GLU205     -0.2457
     46  N        -17.4150   35.5350  143.5060 N.3   243  ASP243     -0.1225
     47  CA       -17.2300   36.6470  144.4450 C.3   243  ASP243      0.1805
     48  C        -17.1910   37.9550  143.6950 C.2   243  ASP243      0.2597
     49  O        -16.8390   37.9820  142.5140 O.2   243  ASP243     -0.2718
     50  CB       -15.9560   36.4940  145.2770 C.3   243  ASP243      0.1424
     51  CG       -14.6850   36.5170  144.4330 C.2   243  ASP243      0.3668
     52  OD1      -14.7030   36.0120  143.2840 O.co2 243  ASP243     -0.2456
     53  OD2      -13.6640   37.0360  144.9320 O.co2 243  ASP243     -0.2456
     54  N        -17.5860   39.0210  144.3890 N.am  244  GLU244     -0.1979
     55  CA       -17.4220   40.3910  143.9140 C.3   244  GLU244      0.1602
     56  C        -17.9980   40.6040  142.5050 C.2   244  GLU244      0.2287
     57  O        -17.2710   40.8930  141.5470 O.2   244  GLU244     -0.2864
     58  CB       -15.9410   40.7890  143.9780 C.3   244  GLU244      0.0415
     59  CG       -15.3720   40.7290  145.3890 C.3   244  GLU244      0.1163
     60  CD       -13.9530   41.2590  145.4730 C.2   244  GLU244      0.3649
     61  OE1      -13.1500   40.9150  144.5870 O.co2 244  GLU244     -0.2457
     62  OE2      -13.6440   42.0130  146.4240 O.co2 244  GLU244     -0.2457
     63  N        -17.6190   31.3580  146.9140 N.3   295  TRP295     -0.1241
     64  CA       -17.4840   32.4340  147.8660 C.3   295  TRP295      0.1605
     65  C        -18.8670   32.8940  148.2470 C.2   295  TRP295      0.2264
     66  O        -19.7800   32.8660  147.4150 O.2   295  TRP295     -0.2867
     67  CB       -16.7210   33.5970  147.2420 C.3   295  TRP295      0.0550
     68  CG       -15.3050   33.2720  146.8270 C.ar  295  TRP295      0.0003
     69  CD1      -14.8430   33.1250  145.5610 C.ar  295  TRP295      0.0946
     70  CD2      -14.1820   33.0630  147.6930 C.ar  295  TRP295      0.0152
     71  NE1      -13.4970   32.8440  145.5710 N.ar  295  TRP295     -0.2442
     72  CE2      -13.0670   32.7960  146.8710 C.ar  295  TRP295      0.0810
     73  CE3      -14.0100   33.0810  149.0880 C.ar  295  TRP295      0.0012
     74  CZ2      -11.7870   32.5540  147.3940 C.ar  295  TRP295      0.0191
     75  CZ3      -12.7470   32.8340  149.6060 C.ar  295  TRP295      0.0001
     76  CH2      -11.6480   32.5730  148.7560 C.ar  295  TRP295      0.0015
     77  N        -15.4910   35.1240  154.0190 N.3   317  TRP317     -0.1241
     78  CA       -14.3260   35.9730  154.2080 C.3   317  TRP317      0.1605
     79  C        -14.5960   37.3680  154.7480 C.2   317  TRP317      0.2264
     80  O        -13.6550   38.0880  155.0780 O.2   317  TRP317     -0.2867
     81  CB       -13.5580   36.1070  152.8970 C.3   317  TRP317      0.0550
     82  CG       -14.2950   36.6940  151.7400 C.ar  317  TRP317      0.0003
     83  CD1      -15.1700   36.0540  150.9490 C.ar  317  TRP317      0.0946
     84  CD2      -14.1580   38.0110  151.2000 C.ar  317  TRP317      0.0152
     85  NE1      -15.6100   36.8790  149.9510 N.ar  317  TRP317     -0.2442
     86  CE2      -15.0110   38.0940  150.0870 C.ar  317  TRP317      0.0810
     87  CE3      -13.3990   39.1250  151.5460 C.ar  317  TRP317      0.0012
     88  CZ2      -15.1450   39.2510  149.3160 C.ar  317  TRP317      0.0191
     89  CZ3      -13.5160   40.2850  150.7670 C.ar  317  TRP317      0.0001
     90  CH2      -14.3760   40.3310  149.6580 C.ar  317  TRP317      0.0015
     91  N         -6.5890   36.3490  156.3340 N.3   343  TYR343     -0.1241
     92  CA        -6.0600   36.7830  155.0400 C.3   343  TYR343      0.1605
     93  C         -4.5690   37.0950  155.1810 C.2   343  TYR343      0.2264
     94  O         -4.2040   38.0490  155.8490 O.2   343  TYR343     -0.2867
     95  CB        -6.8310   38.0220  154.5380 C.3   343  TYR343      0.0534
     96  CG        -8.0030   37.7300  153.6030 C.ar  343  TYR343     -0.0201
     97  CD1       -8.8040   36.6000  153.7640 C.ar  343  TYR343     -0.0009
     98  CD2       -8.3020   38.5950  152.5610 C.ar  343  TYR343     -0.0009
     99  CE1       -9.8480   36.3370  152.8990 C.ar  343  TYR343      0.0417
    100  CE2       -9.3310   38.3370  151.6830 C.ar  343  TYR343      0.0417
    101  CZ       -10.1160   37.2060  151.8560 C.ar  343  TYR343      0.1957
    102  OH       -11.1640   36.9460  150.9800 O.3   343  TYR343     -0.2866
    103  N         -2.1900   37.8670  152.8840 N.3   345  ASP345     -0.1239
    104  CA        -1.7030   38.9680  152.0930 C.3   345  ASP345      0.1674
    105  C         -1.7860   40.3340  152.7660 C.2   345  ASP345      0.2266
    106  O         -1.1060   41.2250  152.3580 O.2   345  ASP345     -0.2867
    107  CB        -2.4630   39.0320  150.7660 C.3   345  ASP345      0.1410
    108  CG        -3.9520   39.1640  150.9530 C.2   345  ASP345      0.3668
    109  OD1       -4.5960   38.1510  151.3130 O.co2 345  ASP345     -0.2456
    110  OD2       -4.4900   40.2740  150.7380 O.co2 345  ASP345     -0.2456
    111  N         -6.7200   47.2450  152.1650 N.3   380  TRP380     -0.1241
    112  CA        -8.0960   47.2900  152.6900 C.3   380  TRP380      0.1605
    113  C         -8.2980   46.4020  153.9260 C.2   380  TRP380      0.2264
    114  O         -9.0060   46.7780  154.8440 O.2   380  TRP380     -0.2867
    115  CB        -9.0720   46.8760  151.5830 C.3   380  TRP380      0.0550
    116  CG        -8.9770   45.4340  151.2650 C.ar  380  TRP380      0.0003
    117  CD1       -8.0690   44.8350  150.4640 C.ar  380  TRP380      0.0946
    118  CD2       -9.8080   44.4050  151.7870 C.ar  380  TRP380      0.0152
    119  NE1       -8.2920   43.4820  150.4260 N.ar  380  TRP380     -0.2442
    120  CE2       -9.3560   43.1930  151.2410 C.ar  380  TRP380      0.0810
    121  CE3      -10.8980   44.3920  152.6730 C.ar  380  TRP380      0.0012
    122  CZ2       -9.9530   41.9820  151.5380 C.ar  380  TRP380      0.0191
    123  CZ3      -11.4730   43.2140  152.9710 C.ar  380  TRP380      0.0001
    124  CH2      -11.0130   42.0150  152.4100 C.ar  380  TRP380      0.0015
    125  N         -3.5010   35.9900  148.8500 N.3   415  TRP415     -0.1241
    126  CA        -3.7660   36.6180  147.5670 C.3   415  TRP415      0.1605
    127  C         -2.4450   37.0850  147.0350 C.2   415  TRP415      0.2264
    128  O         -1.5840   37.4880  147.8260 O.2   415  TRP415     -0.2867
    129  CB        -4.8000   37.7470  147.7420 C.3   415  TRP415      0.0550
    130  CG        -6.1840   37.1970  148.1150 C.ar  415  TRP415      0.0003
    131  CD1       -6.7840   37.2540  149.3280 C.ar  415  TRP415      0.0946
    132  CD2       -7.0790   36.4900  147.2600 C.ar  415  TRP415      0.0152
    133  NE1       -8.0210   36.6610  149.2790 N.ar  415  TRP415     -0.2442
    134  CE2       -8.2270   36.1840  148.0170 C.ar  415  TRP415      0.0810
    135  CE3       -7.0410   36.1050  145.9130 C.ar  415  TRP415      0.0012
    136  CZ2       -9.3030   35.4700  147.4870 C.ar  415  TRP415      0.0191
    137  CZ3       -8.1150   35.4040  145.3890 C.ar  415  TRP415      0.0001
    138  CH2       -9.2260   35.1080  146.1660 C.ar  415  TRP415      0.0015
    139  N         -1.2150   39.4710  144.7860 N.3   417  GLU417     -0.1245
    140  CA        -0.8930   40.7090  144.1360 C.3   417  GLU417      0.1567
    141  C          0.5920   41.0390  144.2960 C.2   417  GLU417      0.2260
    142  O          1.2320   41.4680  143.3350 O.2   417  GLU417     -0.2867
    143  CB        -1.7360   41.8570  144.6640 C.3   417  GLU417      0.0388
    144  CG        -3.0650   41.9200  143.9610 C.3   417  GLU417      0.1160
    145  CD        -4.1410   41.0930  144.6470 C.2   417  GLU417      0.3649
    146  OE1       -3.8080   40.1690  145.4330 O.co2 417  GLU417     -0.2457
    147  OE2       -5.3300   41.3830  144.4000 O.co2 417  GLU417     -0.2457
@<TRIPOS>BOND
     1    15    14    2
     2    14    13    1
     3    22    23    2
     4    22    21    1
     5    12    13    1
     6    13    16    1
     7    21    20    1
     8    21    24    1
     9    16    17    1
    10     4     3    2
    11    18    17   ar
    12    24    25    1
    13    40    39    2
    14     3     2    1
    15    17    19   ar
    16     1     2    1
    17     2     5    1
    18    39    38    1
    19    25    27   ar
    20    25    26   ar
    21    27    29   ar
    22     7     8    1
    23     7     6    1
    24     8     9    2
    25     5     6    1
    26    38    41    1
    27    38    37    1
    28    57    56    2
    29    26    28   ar
    30    30    31    1
    31    41    42    1
    32    37    32   am
    33    29    28   ar
    34     9    11    1
    35     9    10    1
    36    56    55    1
    37    49    48    2
    38    44    43   ar
    39    32    31    1
    40    32    33    2
    41    31    34    1
    42    42    43    1
    43    52    51   ar
    44   142   141    2
    45    46    47    1
    46    43    45   ar
    47    48    54   am
    48    48    47    1
    49    55    58    1
    50    55    54    1
    51   144   145    1
    52   144   143    1
    53    58    59    1
    54    34    36    1
    55    34    35    1
    56   140   141    1
    57   140   143    1
    58   140   139    1
    59   147   145   ar
    60    51    53   ar
    61    51    50    1
    62    47    50    1
    63    61    60   ar
    64   145   146   ar
    65   137   135   ar
    66   137   138   ar
    67    59    60    1
    68    60    62   ar
    69    69    71   ar
    70    69    68   ar
    71    71    72   ar
    72   135   132   ar
    73   138   136   ar
    74    68    67    1
    75    68    70   ar
    76    72    74   ar
    77    72    70   ar
    78    63    64    1
    79   127   126    1
    80   127   128    2
    81    67    64    1
    82   132   134   ar
    83   132   130   ar
    84    74    76   ar
    85    66    65    2
    86   136   134   ar
    87   126   129    1
    88   126   125    1
    89    70    73   ar
    90   129   130    1
    91    64    65    1
    92   134   133   ar
    93   130   131   ar
    94    76    75   ar
    95    73    75   ar
    96   133   131   ar
    97    88    90   ar
    98    88    86   ar
    99    90    89   ar
   100    85    86   ar
   101    85    83   ar
   102    86    84   ar
   103   119   117   ar
   104   119   120   ar
   105   117   116   ar
   106   110   108   ar
   107   107   108    1
   108   107   104    1
   109    89    87   ar
   110    83    82   ar
   111   108   109   ar
   112   102   101    1
   113    84    87   ar
   114    84    82   ar
   115   120   122   ar
   116   120   118   ar
   117   116   115    1
   118   116   118   ar
   119   122   124   ar
   120   115   112    1
   121   100   101   ar
   122   100    98   ar
   123    82    81    1
   124   118   121   ar
   125   101    99   ar
   126   104   105    1
   127   104   103    1
   128   111   112    1
   129   106   105    2
   130   124   123   ar
   131    98    96   ar
   132   121   123   ar
   133   112   113    1
   134    81    78    1
   135    99    97   ar
   136    96    97   ar
   137    96    95    1
   138   113   114    2
   139    77    78    1
   140    78    79    1
   141    95    92    1
   142    79    80    2
   143    92    93    1
   144    92    91    1
   145    93    94    2
