@<TRIPOS>MOLECULE
tmp/5oavC00.pdb
 146 146 0 0 0
SMALL
GASTEIGER

@<TRIPOS>ATOM
      1  N         54.6740  -21.5560   85.2450 N.3     6  TYR6       -0.1227
      2  CA        55.9820  -20.9570   85.4490 C.3     6  TYR6        0.1736
      3  C         55.7870  -19.4500   85.4780 C.2     6  TYR6        0.2595
      4  O         54.7640  -18.9420   85.0190 O.2     6  TYR6       -0.2718
      5  CB        56.9310  -21.2820   84.2770 C.3     6  TYR6        0.0548
      6  CG        57.0280  -22.7500   83.9450 C.ar    6  TYR6       -0.0200
      7  CD1       56.1420  -23.3420   83.0710 C.ar    6  TYR6       -0.0009
      8  CD2       58.0050  -23.5490   84.5140 C.ar    6  TYR6       -0.0009
      9  CE1       56.2170  -24.6930   82.7760 C.ar    6  TYR6        0.0417
     10  CE2       58.0870  -24.8920   84.2330 C.ar    6  TYR6        0.0417
     11  CZ        57.1940  -25.4620   83.3680 C.ar    6  TYR6        0.1957
     12  OH        57.3060  -26.8030   83.0920 O.3     6  TYR6       -0.2866
     13  N         56.7840  -18.7310   85.9900 N.am    7  ASP7       -0.1960
     14  CA        56.8560  -17.3000   85.7350 C.3     7  ASP7        0.1840
     15  C         57.3140  -17.0640   84.2920 C.2     7  ASP7        0.2622
     16  O         58.0050  -17.8880   83.6850 O.2     7  ASP7       -0.2715
     17  CB        57.8960  -16.5990   86.6210 C.3     7  ASP7        0.1450
     18  CG        57.5530  -16.5100   88.1280 C.2     7  ASP7        0.3671
     19  OD1       56.5900  -17.1410   88.6210 O.co2   7  ASP7       -0.2456
     20  OD2       58.3110  -15.7630   88.8060 O.co2   7  ASP7       -0.2456
     21  N         56.9610  -15.8890   83.7670 N.am    8  TYR8       -0.1974
     22  CA        57.3970  -15.4630   82.4470 C.3     8  TYR8        0.1639
     23  C         57.6870  -13.9690   82.4870 C.2     8  TYR8        0.2290
     24  O         56.8070  -13.1680   82.8130 O.2     8  TYR8       -0.2864
     25  CB        56.3520  -15.8050   81.3560 C.3     8  TYR8        0.0560
     26  CG        56.8130  -15.3090   80.0040 C.ar    8  TYR8       -0.0198
     27  CD1       57.8880  -15.9050   79.3680 C.ar    8  TYR8       -0.0009
     28  CD2       56.2240  -14.2070   79.3850 C.ar    8  TYR8       -0.0009
     29  CE1       58.3860  -15.4100   78.1780 C.ar    8  TYR8        0.0417
     30  CE2       56.7190  -13.7060   78.1900 C.ar    8  TYR8        0.0417
     31  CZ        57.8150  -14.2960   77.6080 C.ar    8  TYR8        0.1957
     32  OH        58.4070  -13.8280   76.4730 O.3     8  TYR8       -0.2866
     33  N         59.5930  -10.1450   77.0780 N.3    11  ARG11      -0.1231
     34  CA        60.7420   -9.9840   76.2040 C.3    11  ARG11       0.1694
     35  C         60.4720   -9.0230   75.0520 C.2    11  ARG11       0.2592
     36  O         61.3720   -8.7720   74.2490 O.2    11  ARG11      -0.2718
     37  CB        61.2070  -11.3530   75.6930 C.3    11  ARG11       0.0321
     38  CG        61.9060  -12.1620   76.7900 C.3    11  ARG11       0.0489
     39  CD        61.9590  -13.6190   76.4310 C.3    11  ARG11       0.2205
     40  NE        62.8150  -14.4690   77.2650 N.pl3  11  ARG11      -0.0865
     41  CZ        62.4840  -14.9430   78.4620 C.cat  11  ARG11       0.5346
     42  NH1       61.3560  -14.6060   79.0610 N.pl3  11  ARG11       0.1354
     43  NH2       63.2890  -15.7940   79.0570 N.pl3  11  ARG11       0.1354
     44  N         59.2600   -8.4810   74.9640 N.am   12  THR12      -0.1953
     45  CA        58.9020   -7.4270   74.0220 C.3    12  THR12       0.1897
     46  C         57.7080   -6.6750   74.6030 C.2    12  THR12       0.2313
     47  O         57.0500   -7.1470   75.5300 O.2    12  THR12      -0.2863
     48  CB        58.6110   -7.9810   72.6260 C.3    12  THR12       0.1794
     49  OG1       58.5020   -6.8900   71.7040 O.3    12  THR12      -0.2208
     50  CG2       57.3230   -8.8020   72.6130 C.3    12  THR12       0.0378
     51  N         54.3910   -8.6060   74.9850 N.3    15  ASP15      -0.1239
     52  CA        54.3030   -9.7920   75.8220 C.3    15  ASP15       0.1674
     53  C         53.5260   -9.4690   77.0930 C.2    15  ASP15       0.2266
     54  O         53.5050   -8.3330   77.5840 O.2    15  ASP15      -0.2867
     55  CB        55.6980  -10.2950   76.2220 C.3    15  ASP15       0.1410
     56  CG        56.3930  -11.0930   75.1430 C.2    15  ASP15       0.3668
     57  OD1       55.7830  -11.3590   74.0820 O.co2  15  ASP15      -0.2456
     58  OD2       57.5630  -11.4920   75.4110 O.co2  15  ASP15      -0.2456
     59  N         41.4660  -14.6120   72.0010 N.3    28  ASN28      -0.1240
     60  CA        40.9390  -14.9320   70.6990 C.3    28  ASN28       0.1653
     61  C         41.4850  -16.2790   70.2940 C.2    28  ASN28       0.2266
     62  O         42.3100  -16.8830   70.9880 O.2    28  ASN28      -0.2867
     63  CB        41.2630  -13.8420   69.6540 C.3    28  ASN28       0.1155
     64  CG        42.7590  -13.6310   69.4420 C.2    28  ASN28       0.2627
     65  OD1       43.5930  -14.3600   69.9780 O.2    28  ASN28      -0.2716
     66  ND2       43.0990  -12.6180   68.6440 N.am   28  ASN28      -0.0877
     67  N         46.6830  -18.4770   66.9470 N.3    31  GLU31      -0.1231
     68  CA        47.2410  -18.3300   65.6150 C.3    31  GLU31       0.1699
     69  C         48.6890  -18.8030   65.5420 C.2    31  GLU31       0.2593
     70  O         49.3050  -18.7000   64.4860 O.2    31  GLU31      -0.2718
     71  CB        47.1160  -16.8730   65.1430 C.3    31  GLU31       0.0402
     72  CG        45.6700  -16.4020   64.9980 C.3    31  GLU31       0.1161
     73  CD        44.9530  -17.0430   63.8270 C.2    31  GLU31       0.3649
     74  OE1       45.6300  -17.6940   63.0020 O.co2  31  GLU31      -0.2457
     75  OE2       43.7180  -16.8940   63.7280 O.co2  31  GLU31      -0.2457
     76  N         49.2300  -19.3620   66.6120 N.am   32  GLY32      -0.1942
     77  CA        50.6350  -19.7100   66.6610 C.3    32  GLY32       0.2014
     78  C         50.9600  -20.1560   68.0680 C.2    32  GLY32       0.2639
     79  O         50.0610  -20.3700   68.8810 O.2    32  GLY32      -0.2714
     80  N         52.2700  -20.2990   68.3340 N.am   33  ASP33      -0.1957
     81  CA        52.7020  -20.7430   69.6510 C.3    33  ASP33       0.1840
     82  C         52.5100  -19.6880   70.7230 C.2    33  ASP33       0.2622
     83  O         52.5070  -20.0450   71.9060 O.2    33  ASP33      -0.2715
     84  CB        54.1670  -21.1700   69.6460 C.3    33  ASP33       0.1450
     85  CG        54.3830  -22.4740   68.9200 C.2    33  ASP33       0.3671
     86  OD1       53.9320  -23.5220   69.4390 O.co2  33  ASP33      -0.2456
     87  OD2       55.0020  -22.4430   67.8400 O.co2  33  ASP33      -0.2456
     88  N         52.3830  -18.4180   70.3500 N.am   34  TRP34      -0.1974
     89  CA        52.1680  -17.3350   71.2980 C.3    34  TRP34       0.1640
     90  C         50.7080  -16.9310   71.2280 C.2    34  TRP34       0.2290
     91  O         50.1700  -16.6940   70.1370 O.2    34  TRP34      -0.2864
     92  CB        53.0870  -16.1540   70.9800 C.3    34  TRP34       0.0576
     93  CG        54.5280  -16.5280   71.2240 C.ar   34  TRP34       0.0006
     94  CD1       55.3020  -17.3170   70.4360 C.ar   34  TRP34       0.0946
     95  CD2       55.3290  -16.1830   72.3610 C.ar   34  TRP34       0.0152
     96  NE1       56.5430  -17.4840   70.9990 N.ar   34  TRP34      -0.2442
     97  CE2       56.5830  -16.7880   72.1790 C.ar   34  TRP34       0.0810
     98  CE3       55.1150  -15.4010   73.5070 C.ar   34  TRP34       0.0012
     99  CZ2       57.6200  -16.6430   73.0960 C.ar   34  TRP34       0.0191
    100  CZ3       56.1520  -15.2440   74.4080 C.ar   34  TRP34       0.0001
    101  CH2       57.3850  -15.8730   74.2050 C.ar   34  TRP34       0.0015
    102  N         50.9210  -11.1990   74.7410 N.3    47  TYR47      -0.1241
    103  CA        51.2060  -12.5410   74.2540 C.3    47  TYR47       0.1605
    104  C         51.9550  -13.3730   75.2930 C.2    47  TYR47       0.2264
    105  O         52.8420  -12.8800   76.0050 O.2    47  TYR47      -0.2867
    106  CB        52.0060  -12.4770   72.9460 C.3    47  TYR47       0.0534
    107  CG        51.1050  -12.1240   71.7930 C.ar   47  TYR47      -0.0201
    108  CD1       50.3980  -13.1150   71.1260 C.ar   47  TYR47      -0.0009
    109  CD2       50.8860  -10.8010   71.4120 C.ar   47  TYR47      -0.0009
    110  CE1       49.5090  -12.8120   70.1150 C.ar   47  TYR47       0.0417
    111  CE2       49.9980  -10.4940   70.4000 C.ar   47  TYR47       0.0417
    112  CZ        49.3080  -11.5040   69.7650 C.ar   47  TYR47       0.1957
    113  OH        48.4020  -11.2100   68.7710 O.3    47  TYR47      -0.2866
    114  N         53.7230  -17.5060   75.9860 N.3    49  PRO49      -0.2102
    115  CA        54.1420  -18.7710   75.3740 C.3    49  PRO49       0.1504
    116  C         53.1930  -19.8760   75.8110 C.2    49  PRO49       0.2576
    117  O         53.0180  -20.1360   77.0040 O.2    49  PRO49      -0.2718
    118  CB        55.5650  -18.9710   75.9130 C.3    49  PRO49       0.0282
    119  CG        55.5900  -18.2360   77.2290 C.3    49  PRO49       0.0208
    120  CD        54.6200  -17.0920   77.0920 C.3    49  PRO49       0.0893
    121  N         52.5540  -20.5150   74.8300 N.am   50  SER50      -0.1938
    122  CA        51.4620  -21.4420   75.1100 C.3    50  SER50       0.2055
    123  C         51.8820  -22.6620   75.9250 C.2    50  SER50       0.2643
    124  O         51.0310  -23.2770   76.5730 O.2    50  SER50      -0.2714
    125  CB        50.8260  -21.8920   73.7990 C.3    50  SER50       0.2130
    126  OG        51.7690  -22.4790   72.9280 O.3    50  SER50      -0.2179
    127  N         53.1590  -23.0160   75.9090 N.am   51  ASN51      -0.1957
    128  CA        53.6370  -24.1590   76.6760 C.3    51  ASN51       0.1819
    129  C         53.9610  -23.8190   78.1340 C.2    51  ASN51       0.2621
    130  O         54.4210  -24.6970   78.8720 O.2    51  ASN51      -0.2715
    131  CB        54.8200  -24.8240   75.9690 C.3    51  ASN51       0.1195
    132  CG        56.0050  -23.9040   75.7840 C.2    51  ASN51       0.2630
    133  OD1       55.8800  -22.6820   75.7610 O.2    51  ASN51      -0.2716
    134  ND2       57.1810  -24.5030   75.6200 N.am   51  ASN51      -0.0877
    135  N         53.6980  -22.5810   78.5730 N.am   52  TYR52      -0.1974
    136  CA        53.9350  -22.1790   79.9550 C.3    52  TYR52       0.1639
    137  C         52.6690  -22.1770   80.7920 C.2    52  TYR52       0.2290
    138  O         52.7410  -21.8620   81.9900 O.2    52  TYR52      -0.2864
    139  CB        54.6080  -20.7910   80.0160 C.3    52  TYR52       0.0560
    140  CG        56.1160  -20.8060   79.8130 C.ar   52  TYR52      -0.0198
    141  CD1       56.6960  -21.5480   78.8020 C.ar   52  TYR52      -0.0009
    142  CD2       56.9490  -20.0520   80.6090 C.ar   52  TYR52      -0.0009
    143  CE1       58.0710  -21.5750   78.6110 C.ar   52  TYR52       0.0417
    144  CE2       58.3410  -20.0650   80.4290 C.ar   52  TYR52       0.0417
    145  CZ        58.8890  -20.8380   79.4430 C.ar   52  TYR52       0.1957
    146  OH        60.2550  -20.8460   79.2870 O.3    52  TYR52      -0.2866
@<TRIPOS>BOND
     1    74    73   ar
     2    75    73   ar
     3    73    72    1
     4    70    69    2
     5    72    71    1
     6    71    68    1
     7    69    68    1
     8    69    76   am
     9    68    67    1
    10    76    77    1
    11    77    78    1
    12    87    85   ar
    13    78    80   am
    14    78    79    2
    15    80    81    1
    16    66    64   am
    17   113   112    1
    18    85    86   ar
    19    85    84    1
    20    64    63    1
    21    64    65    2
    22    84    81    1
    23    81    82    1
    24    63    60    1
    25   112   110   ar
    26   112   111   ar
    27   110   108   ar
    28    91    90    2
    29    61    60    1
    30    61    62    2
    31    88    82   am
    32    88    89    1
    33   111   109   ar
    34    94    96   ar
    35    94    93   ar
    36    60    59    1
    37    82    83    2
    38    92    93    1
    39    92    89    1
    40    96    97   ar
    41   108   107   ar
    42    93    95   ar
    43    90    89    1
    44   109   107   ar
    45    49    48    1
    46   107   106    1
    47    97    95   ar
    48    97    99   ar
    49    95    98   ar
    50    50    48    1
    51    48    45    1
    52   126   125    1
    53   106   103    1
    54    99   101   ar
    55    98   100   ar
    56   125   122    1
    57    45    46    1
    58    45    44    1
    59    57    56   ar
    60   101   100   ar
    61    36    35    2
    62   103   102    1
    63   103   104    1
    64    46    47    2
    65   121   122    1
    66   121   116   am
    67    44    35   am
    68    51    52    1
    69    35    34    1
    70   122   123    1
    71    56    58   ar
    72    56    55    1
    73   104   105    2
    74   115   116    1
    75   115   118    1
    76   115   114    1
    77   134   132   am
    78    37    34    1
    79    37    38    1
    80   133   132    2
    81   132   131    1
    82   116   117    2
    83    52    55    1
    84    52    53    1
    85   127   123   am
    86   127   128    1
    87   118   119    1
    88   123   124    2
    89   131   128    1
    90   114   120    1
    91    34    33    1
    92    39    38    1
    93    39    40    1
    94    32    31    1
    95   128   129    1
    96   120   119    1
    97    53    54    2
    98    40    41    2
    99    31    29   ar
   100    31    30   ar
   101   129   135   am
   102   129   130    2
   103    29    27   ar
   104    30    28   ar
   105    41    43    1
   106    41    42    1
   107   135   136    1
   108   143   141   ar
   109   143   145   ar
   110   141   140   ar
   111   146   145    1
   112    27    26   ar
   113    28    26   ar
   114   145   144   ar
   115   140   139    1
   116   140   142   ar
   117   136   139    1
   118   136   137    1
   119    26    25    1
   120   144   142   ar
   121   137   138    2
   122    25    22    1
   123    22    23    1
   124    22    21    1
   125    23    24    2
   126     9     7   ar
   127     9    11   ar
   128     7     6   ar
   129    12    11    1
   130    11    10   ar
   131    16    15    2
   132    21    15   am
   133     6     5    1
   134     6     8   ar
   135    10     8   ar
   136     5     2    1
   137    15    14    1
   138     4     3    2
   139     1     2    1
   140     2     3    1
   141     3    13   am
   142    14    13    1
   143    14    17    1
   144    17    18    1
   145    18    19   ar
   146    18    20   ar
