@<TRIPOS>MOLECULE
tmp/5oavA00.pdb
 130 130 0 0 0
SMALL
GASTEIGER

@<TRIPOS>ATOM
      1  N         73.1150  -21.0840   60.7490 N.3     6  TYR6       -0.1241
      2  CA        74.4710  -20.6120   60.9690 C.3     6  TYR6        0.1605
      3  C         74.4100  -19.0950   61.0600 C.2     6  TYR6        0.2264
      4  O         73.4550  -18.4710   60.5980 O.2     6  TYR6       -0.2867
      5  CB        75.3850  -20.9670   59.7840 C.3     6  TYR6        0.0534
      6  CG        75.3860  -22.4240   59.4310 C.ar    6  TYR6       -0.0201
      7  CD1       74.4620  -22.9400   58.5310 C.ar    6  TYR6       -0.0009
      8  CD2       76.2990  -23.2940   60.0020 C.ar    6  TYR6       -0.0009
      9  CE1       74.4450  -24.2820   58.2150 C.ar    6  TYR6        0.0417
     10  CE2       76.2940  -24.6350   59.6830 C.ar    6  TYR6        0.0417
     11  CZ        75.3560  -25.1230   58.7970 C.ar    6  TYR6        0.1957
     12  OH        75.3520  -26.4630   58.4790 O.3     6  TYR6       -0.2866
     13  N         75.9000  -15.6410   59.4900 N.3     8  TYR8       -0.1241
     14  CA        76.3870  -15.2290   58.1820 C.3     8  TYR8        0.1605
     15  C         76.7960  -13.7630   58.2620 C.2     8  TYR8        0.2264
     16  O         75.9830  -12.9030   58.6180 O.2     8  TYR8       -0.2867
     17  CB        75.3180  -15.4480   57.0780 C.3     8  TYR8        0.0534
     18  CG        75.8340  -14.9450   55.7510 C.ar    8  TYR8       -0.0201
     19  CD1       76.8400  -15.6150   55.0920 C.ar    8  TYR8       -0.0009
     20  CD2       75.3780  -13.7500   55.2090 C.ar    8  TYR8       -0.0009
     21  CE1       77.3960  -15.1150   53.9350 C.ar    8  TYR8        0.0417
     22  CE2       75.9310  -13.2330   54.0530 C.ar    8  TYR8        0.0417
     23  CZ        76.9490  -13.9090   53.4220 C.ar    8  TYR8        0.1957
     24  OH        77.5710  -13.4390   52.2980 O.3     8  TYR8       -0.2866
     25  N         79.2150  -10.0500   52.9610 N.3    11  ARG11      -0.1231
     26  CA        80.4000   -9.9410   52.1320 C.3    11  ARG11       0.1694
     27  C         80.2460   -8.9120   51.0180 C.2    11  ARG11       0.2592
     28  O         81.2090   -8.6690   50.2830 O.2    11  ARG11      -0.2718
     29  CB        80.7590  -11.3210   51.5710 C.3    11  ARG11       0.0321
     30  CG        81.3150  -12.2540   52.6570 C.3    11  ARG11       0.0489
     31  CD        81.2050  -13.6870   52.2320 C.3    11  ARG11       0.2205
     32  NE        81.9380  -14.6720   53.0380 N.pl3  11  ARG11      -0.0865
     33  CZ        81.5270  -15.1590   54.2050 C.cat  11  ARG11       0.5346
     34  NH1       80.4620  -14.6750   54.8150 N.pl3  11  ARG11       0.1354
     35  NH2       82.1990  -16.1390   54.7760 N.pl3  11  ARG11       0.1354
     36  N         79.0640   -8.3120   50.8790 N.am   12  THR12      -0.1953
     37  CA        78.8190   -7.1950   49.9780 C.3    12  THR12       0.1897
     38  C         77.7660   -6.3110   50.6280 C.2    12  THR12       0.2313
     39  O         77.0510   -6.7330   51.5390 O.2    12  THR12      -0.2863
     40  CB        78.3000   -7.6580   48.6090 C.3    12  THR12       0.1794
     41  OG1       76.9080   -7.9800   48.7160 O.3    12  THR12      -0.2208
     42  CG2       79.0720   -8.8810   48.1050 C.3    12  THR12       0.0378
     43  N         74.1930   -7.7830   50.8530 N.3    15  ASP15      -0.1239
     44  CA        73.9390   -8.9790   51.6400 C.3    15  ASP15       0.1674
     45  C         73.2010   -8.5940   52.9190 C.2    15  ASP15       0.2266
     46  O         73.2130   -7.4370   53.3580 O.2    15  ASP15      -0.2867
     47  CB        75.2530   -9.6610   52.0560 C.3    15  ASP15       0.1410
     48  CG        75.9290  -10.4410   50.9430 C.2    15  ASP15       0.3668
     49  OD1       75.4120  -10.4880   49.8080 O.co2  15  ASP15      -0.2456
     50  OD2       77.0060  -11.0270   51.2480 O.co2  15  ASP15      -0.2456
     51  N         66.4350  -15.6700   41.8320 N.3    31  GLU31      -0.1231
     52  CA        67.6830  -15.1890   41.2500 C.3    31  GLU31       0.1699
     53  C         68.8530  -16.1430   41.4850 C.2    31  GLU31       0.2593
     54  O         70.0150  -15.7360   41.3620 O.2    31  GLU31      -0.2718
     55  CB        68.0090  -13.7880   41.7710 C.3    31  GLU31       0.0402
     56  CG        66.8050  -12.8770   41.8850 C.3    31  GLU31       0.1161
     57  CD        66.5180  -12.1560   40.5930 C.2    31  GLU31       0.3649
     58  OE1       67.4560  -11.9970   39.7840 O.co2  31  GLU31      -0.2457
     59  OE2       65.3540  -11.7530   40.3850 O.co2  31  GLU31      -0.2457
     60  N         68.5740  -17.3970   41.8400 N.am   32  GLY32      -0.1942
     61  CA        69.6100  -18.3990   41.9900 C.3    32  GLY32       0.2014
     62  C         69.7830  -18.8620   43.4200 C.2    32  GLY32       0.2639
     63  O         68.8250  -18.9260   44.1960 O.2    32  GLY32      -0.2714
     64  N         71.0240  -19.1770   43.7880 N.am   33  ASP33      -0.1957
     65  CA        71.3120  -19.7310   45.1050 C.3    33  ASP33       0.1840
     66  C         71.2550  -18.6910   46.2190 C.2    33  ASP33       0.2622
     67  O         71.1940  -19.0730   47.3940 O.2    33  ASP33      -0.2715
     68  CB        72.7140  -20.3490   45.1310 C.3    33  ASP33       0.1450
     69  CG        72.8280  -21.6470   44.3530 C.2    33  ASP33       0.3671
     70  OD1       71.8600  -22.4140   44.2840 O.co2  33  ASP33      -0.2456
     71  OD2       73.9330  -21.9310   43.8430 O.co2  33  ASP33      -0.2456
     72  N         71.3050  -17.4050   45.8890 N.am   34  TRP34      -0.1974
     73  CA        71.2010  -16.3430   46.8760 C.3    34  TRP34       0.1640
     74  C         69.7960  -15.7680   46.8070 C.2    34  TRP34       0.2290
     75  O         69.3110  -15.4020   45.7320 O.2    34  TRP34      -0.2864
     76  CB        72.2630  -15.2690   46.6270 C.3    34  TRP34       0.0576
     77  CG        73.6260  -15.7940   46.9200 C.ar   34  TRP34       0.0006
     78  CD1       74.3300  -16.7070   46.1890 C.ar   34  TRP34       0.0946
     79  CD2       74.4480  -15.4620   48.0400 C.ar   34  TRP34       0.0152
     80  NE1       75.5330  -16.9730   46.7870 N.ar   34  TRP34      -0.2442
     81  CE2       75.6310  -16.2210   47.9270 C.ar   34  TRP34       0.0810
     82  CE3       74.2980  -14.6030   49.1340 C.ar   34  TRP34       0.0012
     83  CZ2       76.6610  -16.1300   48.8580 C.ar   34  TRP34       0.0191
     84  CZ3       75.3180  -14.5200   50.0530 C.ar   34  TRP34       0.0001
     85  CH2       76.4770  -15.2850   49.9180 C.ar   34  TRP34       0.0015
     86  N         70.5300  -10.0280   50.5560 N.3    47  TYR47      -0.1241
     87  CA        70.7260  -11.3570   49.9940 C.3    47  TYR47       0.1605
     88  C         71.4300  -12.2850   50.9800 C.2    47  TYR47       0.2264
     89  O         72.3390  -11.8810   51.7180 O.2    47  TYR47      -0.2867
     90  CB        71.5030  -11.2840   48.6770 C.3    47  TYR47       0.0534
     91  CG        70.6150  -10.7680   47.5690 C.ar   47  TYR47      -0.0201
     92  CD1       69.8130  -11.6370   46.8550 C.ar   47  TYR47      -0.0009
     93  CD2       70.5130   -9.4180   47.2990 C.ar   47  TYR47      -0.0009
     94  CE1       68.9500  -11.1770   45.8700 C.ar   47  TYR47       0.0417
     95  CE2       69.6550   -8.9450   46.3190 C.ar   47  TYR47       0.0417
     96  CZ        68.8730   -9.8310   45.6170 C.ar   47  TYR47       0.1957
     97  OH        68.0160   -9.3660   44.6450 O.3    47  TYR47      -0.2866
     98  N         72.7710  -16.6600   51.5430 N.3    49  PRO49      -0.2102
     99  CA        72.9980  -17.9680   50.9250 C.3    49  PRO49       0.1504
    100  C         71.8850  -18.9220   51.3400 C.2    49  PRO49       0.2576
    101  O         71.6770  -19.1770   52.5290 O.2    49  PRO49      -0.2718
    102  CB        74.3650  -18.3900   51.4850 C.3    49  PRO49       0.0282
    103  CG        74.4500  -17.6740   52.8200 C.3    49  PRO49       0.0208
    104  CD        73.7100  -16.3830   52.6570 C.3    49  PRO49       0.0893
    105  N         71.1710  -19.4650   50.3480 N.am   50  SER50      -0.1938
    106  CA        69.9690  -20.2440   50.6370 C.3    50  SER50       0.2055
    107  C         70.2580  -21.5100   51.4300 C.2    50  SER50       0.2643
    108  O         69.3560  -22.0230   52.0950 O.2    50  SER50      -0.2714
    109  CB        69.2240  -20.5950   49.3380 C.3    50  SER50       0.2130
    110  OG        70.0420  -21.3270   48.4510 O.3    50  SER50      -0.2179
    111  N         71.4860  -22.0260   51.3790 N.am   51  ASN51      -0.1957
    112  CA        71.8320  -23.2340   52.1200 C.3    51  ASN51       0.1819
    113  C         72.1860  -22.9770   53.5790 C.2    51  ASN51       0.2621
    114  O         72.5170  -23.9300   54.2950 O.2    51  ASN51      -0.2715
    115  CB        72.9410  -24.0130   51.4120 C.3    51  ASN51       0.1195
    116  CG        74.2240  -23.2330   51.2650 C.2    51  ASN51       0.2630
    117  OD1       74.2240  -22.0140   51.1840 O.2    51  ASN51      -0.2716
    118  ND2       75.3290  -23.9510   51.2110 N.am   51  ASN51      -0.0877
    119  N         72.0880  -21.7390   54.0530 N.am   52  TYR52      -0.1974
    120  CA        72.3680  -21.4340   55.4510 C.3    52  TYR52       0.1639
    121  C         71.1060  -21.3190   56.2840 C.2    52  TYR52       0.2290
    122  O         71.1950  -21.0520   57.4850 O.2    52  TYR52      -0.2864
    123  CB        73.1950  -20.1400   55.5700 C.3    52  TYR52       0.0560
    124  CG        74.6850  -20.3150   55.3480 C.ar   52  TYR52      -0.0198
    125  CD1       75.1890  -21.1400   54.3490 C.ar   52  TYR52      -0.0009
    126  CD2       75.5960  -19.6370   56.1360 C.ar   52  TYR52      -0.0009
    127  CE1       76.5610  -21.3050   54.1670 C.ar   52  TYR52       0.0417
    128  CE2       76.9610  -19.7930   55.9560 C.ar   52  TYR52       0.0417
    129  CZ        77.4440  -20.6260   54.9750 C.ar   52  TYR52       0.1957
    130  OH        78.8130  -20.7680   54.8240 O.3    52  TYR52      -0.2866
@<TRIPOS>BOND
     1    58    57   ar
     2    59    57   ar
     3    57    56    1
     4    52    53    1
     5    52    55    1
     6    52    51    1
     7    54    53    2
     8    53    60   am
     9    55    56    1
    10    60    61    1
    11    61    62    1
    12    62    64   am
    13    62    63    2
    14    64    65    1
    15    71    69   ar
    16    70    69   ar
    17    69    68    1
    18    97    96    1
    19    65    68    1
    20    65    66    1
    21    96    94   ar
    22    96    95   ar
    23    75    74    2
    24    94    92   ar
    25    72    66   am
    26    72    73    1
    27    78    80   ar
    28    78    77   ar
    29    66    67    2
    30    95    93   ar
    31    76    73    1
    32    76    77    1
    33    80    81   ar
    34    74    73    1
    35    92    91   ar
    36    77    79   ar
    37    93    91   ar
    38    91    90    1
    39    81    79   ar
    40    81    83   ar
    41    79    82   ar
    42    42    40    1
    43   110   109    1
    44    40    41    1
    45    40    37    1
    46    90    87    1
    47    83    85   ar
    48    82    84   ar
    49   109   106    1
    50    49    48   ar
    51    85    84   ar
    52    37    38    1
    53    37    36    1
    54    87    86    1
    55    87    88    1
    56    28    27    2
    57   105   106    1
    58   105   100   am
    59    38    39    2
    60   106   107    1
    61    43    44    1
    62    36    27   am
    63    99   100    1
    64    99   102    1
    65    99    98    1
    66    48    50   ar
    67    48    47    1
    68    88    89    2
    69    27    26    1
    70   117   116    2
    71   118   116   am
    72   116   115    1
    73   100   101    2
    74   111   107   am
    75   111   112    1
    76   115   112    1
    77   107   108    2
    78   102   103    1
    79    98   104    1
    80    29    26    1
    81    29    30    1
    82    44    47    1
    83    44    45    1
    84   112   113    1
    85    26    25    1
    86    31    30    1
    87    31    32    1
    88    24    23    1
    89   104   103    1
    90    45    46    2
    91    32    33    2
    92    23    21   ar
    93    23    22   ar
    94   113   119   am
    95   113   114    2
    96    21    19   ar
    97    22    20   ar
    98   119   120    1
    99   127   125   ar
   100   127   129   ar
   101    33    35    1
   102    33    34    1
   103   125   124   ar
   104   130   129    1
   105   129   128   ar
   106    19    18   ar
   107    20    18   ar
   108   124   123    1
   109   124   126   ar
   110   120   123    1
   111   120   121    1
   112    18    17    1
   113   128   126   ar
   114   121   122    2
   115    17    14    1
   116    14    15    1
   117    14    13    1
   118     9     7   ar
   119     9    11   ar
   120    15    16    2
   121    12    11    1
   122     7     6   ar
   123    11    10   ar
   124     6     5    1
   125     6     8   ar
   126    10     8   ar
   127     5     2    1
   128     4     3    2
   129     1     2    1
   130     2     3    1
