@<TRIPOS>MOLECULE
tmp/5oawA00.pdb
 125 117 0 0 0
SMALL
GASTEIGER

@<TRIPOS>ATOM
      1  N         12.1310   33.7030   31.9240 N.3    26  THR26      -0.1203
      2  CA        11.1910   32.5770   31.8880 C.3    26  THR26       0.1994
      3  C         11.8570   31.1860   31.7010 C.2    26  THR26       0.2617
      4  O         11.5680   30.2430   32.4500 O.2    26  THR26      -0.2717
      5  CB        10.0570   32.8490   30.8500 C.3    26  THR26       0.1784
      6  OG1        9.2610   31.6760   30.6790 O.3    26  THR26      -0.2211
      7  CG2       10.6000   33.3130   29.4690 C.3    26  THR26       0.0376
      8  N         12.7760   31.1010   30.7360 N.am   27  ALA27      -0.1979
      9  CA        13.4720   29.8680   30.3690 C.3    27  ALA27       0.1597
     10  C         14.8990   29.7770   30.9320 C.2    27  ALA27       0.2287
     11  O         15.7130   28.9820   30.4420 O.2    27  ALA27      -0.2864
     12  CB        13.4930   29.7360   28.8490 C.3    27  ALA27       0.0319
     13  N         10.7150   26.5720   40.3010 N.3    83  MET83      -0.1245
     14  CA        11.6710   27.3530   39.5300 C.3    83  MET83       0.1570
     15  C         12.1510   28.5050   40.3900 C.2    83  MET83       0.2261
     16  O         11.4270   28.9400   41.2980 O.2    83  MET83      -0.2867
     17  CB        11.0280   27.8940   38.2660 C.3    83  MET83       0.0387
     18  CG        10.7010   26.8550   37.2030 C.3    83  MET83       0.0595
     19  SD         9.4470   27.4540   36.0460 S.3    83  MET83      -0.1393
     20  CE        10.1670   28.9850   35.4240 C.3    83  MET83       0.0692
     21  N         -5.5290   31.7140   26.3620 N.3   332  TYR332     -0.1241
     22  CA        -5.4640   30.8440   25.1710 C.3   332  TYR332      0.1605
     23  C         -6.3170   29.5850   25.2380 C.2   332  TYR332      0.2264
     24  O         -6.5790   28.9590   24.2010 O.2   332  TYR332     -0.2867
     25  CB        -4.0260   30.4580   24.8840 C.3   332  TYR332      0.0534
     26  CG        -3.1640   31.6240   24.5130 C.ar  332  TYR332     -0.0201
     27  CD1       -2.3560   32.2580   25.4770 C.ar  332  TYR332     -0.0009
     28  CD2       -3.1760   32.1390   23.2000 C.ar  332  TYR332     -0.0009
     29  CE1       -1.5570   33.3510   25.1360 C.ar  332  TYR332      0.0417
     30  CE2       -2.3830   33.2310   22.8490 C.ar  332  TYR332      0.0417
     31  CZ        -1.5780   33.8340   23.8130 C.ar  332  TYR332      0.1957
     32  OH        -0.7880   34.9070   23.4700 O.3   332  TYR332     -0.2866
     33  N         -0.0770   34.3120   31.3260 N.3   354  THR354     -0.1203
     34  CA         0.7660   33.2950   30.7300 C.3   354  THR354      0.1994
     35  C          2.0580   33.1880   31.5660 C.2   354  THR354      0.2618
     36  O          2.5430   34.1990   32.1140 O.2   354  THR354     -0.2717
     37  CB         1.0160   33.6620   29.2460 C.3   354  THR354      0.1784
     38  OG1        0.1180   32.9170   28.4100 O.3   354  THR354     -0.2211
     39  CG2        2.4450   33.4080   28.8100 C.3   354  THR354      0.0376
     40  N          2.5970   31.9720   31.6760 N.am  355  GLY355     -0.1942
     41  CA         3.8540   31.7460   32.4120 C.3   355  GLY355      0.2014
     42  C          3.6100   30.8110   33.5760 C.2   355  GLY355      0.2639
     43  O          2.7500   31.0800   34.4230 O.2   355  GLY355     -0.2714
     44  N          4.3640   29.7110   33.6150 N.am  356  VAL356     -0.1963
     45  CA         4.1080   28.6190   34.5670 C.3   356  VAL356      0.1727
     46  C          4.0800   29.0740   36.0260 C.2   356  VAL356      0.2616
     47  O          3.2540   28.5830   36.8050 O.2   356  VAL356     -0.2715
     48  CB         5.0440   27.3930   34.3890 C.3   356  VAL356      0.0290
     49  CG1        5.0700   26.9050   32.9390 C.3   356  VAL356      0.0023
     50  CG2        6.4440   27.6970   34.8490 C.3   356  VAL356      0.0023
     51  N          4.9420   30.0390   36.3600 N.am  357  LYS357     -0.1977
     52  CA         4.9540   30.6690   37.6830 C.3   357  LYS357      0.1596
     53  C          3.5840   31.1510   38.1070 C.2   357  LYS357      0.2287
     54  O          3.1220   30.8080   39.1970 O.2   357  LYS357     -0.2864
     55  CB         5.9160   31.8450   37.7240 C.3   357  LYS357      0.0298
     56  CG         7.0490   31.6480   38.6880 C.3   357  LYS357      0.0038
     57  CD         8.2510   30.9940   38.0270 C.3   357  LYS357      0.0206
     58  CE         9.2750   30.6520   39.0890 C.3   357  LYS357      0.1093
     59  NZ         9.5240   31.7870   40.0270 N.3   357  LYS357     -0.1314
     60  N         -1.1150   24.3460   30.5790 N.3   373  GLU373     -0.1245
     61  CA        -1.1400   25.1610   29.3770 C.3   373  GLU373      0.1567
     62  C         -1.3990   24.2480   28.1810 C.2   373  GLU373      0.2260
     63  O         -1.2080   23.0140   28.2830 O.2   373  GLU373     -0.2867
     64  CB         0.1510   25.9710   29.2370 C.3   373  GLU373      0.0388
     65  CG         0.1610   27.1790   30.1540 C.3   373  GLU373      0.1160
     66  CD         1.4660   27.9440   30.1470 C.2   373  GLU373      0.3649
     67  OE1        2.4840   27.3860   30.6350 O.co2 373  GLU373     -0.2457
     68  OE2        1.4670   29.1140   29.6760 O.co2 373  GLU373     -0.2457
     69  N          0.2580   23.8520   25.4870 N.3   375  ASN375     -0.1240
     70  CA         1.5110   23.2050   25.0740 C.3   375  ASN375      0.1653
     71  C          1.8120   21.8750   25.8190 C.2   375  ASN375      0.2266
     72  O          2.7670   21.1550   25.4830 O.2   375  ASN375     -0.2867
     73  CB         2.6950   24.2000   25.1860 C.3   375  ASN375      0.1155
     74  CG         2.9880   24.6410   26.6210 C.2   375  ASN375      0.2627
     75  OD1        2.4140   24.1340   27.5890 O.2   375  ASN375     -0.2716
     76  ND2        3.8950   25.6010   26.7600 N.am  375  ASN375     -0.0877
     77  N          2.4010   21.4520   29.2650 N.3   377  HIS377     -0.1241
     78  CA         2.9700   21.5990   30.5990 C.3   377  HIS377      0.1621
     79  C          1.8750   21.7920   31.6440 C.2   377  HIS377      0.2264
     80  O          1.0350   22.6840   31.5160 O.2   377  HIS377     -0.2867
     81  CB         3.9510   22.7730   30.6820 C.3   377  HIS377      0.0745
     82  CG         4.6840   22.8240   31.9850 C.ar  377  HIS377      0.0817
     83  ND1        4.2510   23.5790   33.0570 N.ar  377  HIS377     -0.2268
     84  CD2        5.7720   22.1470   32.4190 C.ar  377  HIS377      0.1154
     85  CE1        5.0580   23.3860   34.0840 C.ar  377  HIS377      0.1986
     86  NE2        5.9920   22.5240   33.7220 N.ar  377  HIS377     -0.2212
     87  N         -1.4060   40.0690   22.7880 N.3   497  ARG497     -0.1245
     88  CA        -0.3760   40.3470   23.7930 C.3   497  ARG497      0.1563
     89  C          0.9910   40.2160   23.1940 C.2   497  ARG497      0.2260
     90  O          1.1970   39.3900   22.2940 O.2   497  ARG497     -0.2867
     91  CB        -0.5010   39.3940   24.9890 C.3   497  ARG497      0.0307
     92  CG        -0.6200   37.9280   24.6070 C.3   497  ARG497      0.0489
     93  CD        -0.6400   37.0150   25.8290 C.3   497  ARG497      0.2205
     94  NE         0.6670   36.9010   26.4710 N.pl3 497  ARG497     -0.0865
     95  CZ         1.6830   36.1700   26.0160 C.cat 497  ARG497      0.5346
     96  NH1        1.5700   35.4530   24.8990 N.pl3 497  ARG497      0.1354
     97  NH2        2.8260   36.1540   26.6910 N.pl3 497  ARG497      0.1354
     98  N          4.6050   38.8430   22.9500 N.3   499  SER499     -0.1202
     99  CA         5.2970   37.6150   23.3180 C.3   499  SER499      0.2020
    100  C          6.4320   37.9530   24.2730 C.2   499  SER499      0.2619
    101  O          7.0950   38.9690   24.1080 O.2   499  SER499     -0.2717
    102  CB         5.8520   36.9160   22.0750 C.3   499  SER499      0.2103
    103  OG         6.6660   35.8070   22.4160 O.3   499  SER499     -0.2182
    104  N          6.6340   37.0940   25.2700 N.am  500  GLY500     -0.1942
    105  CA         7.8280   37.1350   26.1170 C.3   500  GLY500      0.2014
    106  C          9.0460   36.4760   25.4740 C.2   500  GLY500      0.2639
    107  O         10.1810   36.8960   25.7130 O.2   500  GLY500     -0.2714
    108  N          8.8150   35.4600   24.6410 N.am  501  THR501     -0.1950
    109  CA         9.8990   34.6290   24.1000 C.3   501  THR501      0.1897
    110  C         10.3190   34.9210   22.6410 C.2   501  THR501      0.2313
    111  O         11.3740   34.4440   22.1960 O.2   501  THR501     -0.2863
    112  CB         9.5900   33.1210   24.2730 C.3   501  THR501      0.1794
    113  OG1        8.4560   32.7580   23.4780 O.3   501  THR501     -0.2208
    114  CG2        9.3330   32.7620   25.7540 C.3   501  THR501      0.0378
    115  N          1.2280   38.3830   19.7490 N.3   506  ARG506     -0.1245
    116  CA         0.4050   37.2510   19.3960 C.3   506  ARG506      0.1563
    117  C         -1.0520   37.6560   19.4580 C.2   506  ARG506      0.2260
    118  O         -1.4780   38.3080   20.4180 O.2   506  ARG506     -0.2867
    119  CB         0.6170   36.1080   20.3690 C.3   506  ARG506      0.0307
    120  CG         2.0340   35.6190   20.5250 C.3   506  ARG506      0.0489
    121  CD         1.9790   34.2320   21.1570 C.3   506  ARG506      0.2205
    122  NE         3.2970   33.7090   21.4980 N.pl3 506  ARG506     -0.0865
    123  CZ         4.1790   33.2170   20.6250 C.cat 506  ARG506      0.5346
    124  NH1        3.9160   33.1820   19.3170 N.pl3 506  ARG506      0.1354
    125  NH2        5.3460   32.7720   21.0710 N.pl3 506  ARG506      0.1354
@<TRIPOS>BOND
     1   124   123    1
     2   116   117    1
     3   116   115    1
     4   116   119    1
     5   117   118    2
     6   119   120    1
     7   120   121    1
     8   123   125    1
     9   123   122    2
    10   121   122    1
    11   102   103    1
    12   102    99    1
    13   111   110    2
    14    90    89    2
    15   110   109    1
    16    87    88    1
    17    30    28   ar
    18    30    31   ar
    19    98    99    1
    20    89    88    1
    21    28    26   ar
    22    99   100    1
    23    32    31    1
    24   113   112    1
    25    88    91    1
    26    31    29   ar
    27   109   112    1
    28   109   108    1
    29   101   100    2
    30    24    23    2
    31   112   114    1
    32   100   104   am
    33    26    25    1
    34    26    27   ar
    35    92    91    1
    36    92    93    1
    37   108   106   am
    38    25    22    1
    39    96    95    1
    40    70    73    1
    41    70    69    1
    42    70    71    1
    43    29    27   ar
    44    22    23    1
    45    22    21    1
    46    73    74    1
    47   104   105    1
    48   106   107    2
    49   106   105    1
    50    72    71    2
    51    93    94    1
    52    95    94    2
    53    95    97    1
    54    74    76   am
    55    74    75    2
    56    62    63    2
    57    62    61    1
    58    38    37    1
    59    39    37    1
    60    12     9    1
    61    64    61    1
    62    64    65    1
    63    37    34    1
    64    77    78    1
    65    61    60    1
    66     7     5    1
    67    68    66   ar
    68    66    65    1
    69    66    67   ar
    70     9     8    1
    71     9    10    1
    72    11    10    2
    73    78    81    1
    74    78    79    1
    75     6     5    1
    76    81    82    1
    77    34    33    1
    78    34    35    1
    79     8     3   am
    80     5     2    1
    81    80    79    2
    82    35    40   am
    83    35    36    2
    84    40    41    1
    85     3     2    1
    86     3     4    2
    87     2     1    1
    88    82    84   ar
    89    82    83   ar
    90    41    42    1
    91    84    86   ar
    92    49    48    1
    93    83    85   ar
    94    42    44   am
    95    42    43    2
    96    44    45    1
    97    86    85   ar
    98    48    45    1
    99    48    50    1
   100    45    46    1
   101    20    19    1
   102    46    51   am
   103    46    47    2
   104    19    18    1
   105    51    52    1
   106    18    17    1
   107    52    55    1
   108    52    53    1
   109    55    56    1
   110    57    56    1
   111    57    58    1
   112    53    54    2
   113    17    14    1
   114    58    59    1
   115    14    13    1
   116    14    15    1
   117    15    16    2
