@<TRIPOS>MOLECULE
tmp/5oaxA00.pdb
 129 119 0 0 0
SMALL
GASTEIGER

@<TRIPOS>ATOM
      1  N        -11.3850   14.8290    8.5980 N.3    31  ASN31      -0.1225
      2  CA       -12.6390   14.8220    7.8950 C.3    31  ASN31       0.1785
      3  C        -13.1090   13.3730    7.5860 C.2    31  ASN31       0.2597
      4  O        -14.2990   13.0940    7.6960 O.2    31  ASN31      -0.2718
      5  CB       -12.5020   15.5950    6.5740 C.3    31  ASN31       0.1169
      6  CG       -13.8170   15.7700    5.9240 C.2    31  ASN31       0.2627
      7  OD1      -14.6830   16.4800    6.4010 O.2    31  ASN31      -0.2716
      8  ND2      -14.0140   15.0640    4.8970 N.am   31  ASN31      -0.0877
      9  N        -12.2010   12.4860    7.1690 N.am   32  ARG32      -0.1979
     10  CA       -12.6530   11.1400    6.7850 C.3    32  ARG32       0.1597
     11  C        -11.5190   10.1720    6.8210 C.2    32  ARG32       0.2287
     12  O        -10.3060   10.5380    6.7970 O.2    32  ARG32      -0.2864
     13  CB       -13.1270   11.1870    5.3580 C.3    32  ARG32       0.0334
     14  CG       -11.9450   11.3820    4.3680 C.3    32  ARG32       0.0492
     15  CD       -12.4350   11.4360    2.9230 C.3    32  ARG32       0.2205
     16  NE       -13.0560   10.2100    2.3930 N.pl3  32  ARG32      -0.0865
     17  CZ       -12.4380    9.1840    1.7870 C.cat  32  ARG32       0.5346
     18  NH1      -11.1130    9.0900    1.6520 N.pl3  32  ARG32       0.1354
     19  NH2      -13.2020    8.2500    1.3430 N.pl3  32  ARG32       0.1354
     20  N        -10.8700    0.2390    1.9180 N.3    36  ASP36      -0.1239
     21  CA       -11.4750   -0.2760    0.6840 C.3    36  ASP36       0.1674
     22  C        -10.9210   -1.6800    0.3940 C.2    36  ASP36       0.2266
     23  O         -9.8000   -1.7990   -0.0820 O.2    36  ASP36      -0.2867
     24  CB       -11.2420    0.6880   -0.4710 C.3    36  ASP36       0.1410
     25  CG       -12.0100    1.9470   -0.3400 C.2    36  ASP36       0.3668
     26  OD1      -13.2050    1.9240   -0.5480 O.co2  36  ASP36      -0.2456
     27  OD2      -11.4190    3.0150    0.0070 O.co2  36  ASP36      -0.2456
     28  N        -16.3660   -1.1010    1.5970 N.3    46  HIS46      -0.1241
     29  CA       -15.9120    0.2690    1.8820 C.3    46  HIS46       0.1621
     30  C        -16.4020    0.5930    3.3150 C.2    46  HIS46       0.2264
     31  O        -17.5900    0.4910    3.5710 O.2    46  HIS46      -0.2867
     32  CB       -16.5820    1.2060    0.8810 C.3    46  HIS46       0.0745
     33  CG       -16.3560    2.6810    0.9980 C.ar   46  HIS46       0.0817
     34  ND1      -15.1840    3.2970    0.6590 N.ar   46  HIS46      -0.2268
     35  CD2      -17.2340    3.6740    1.3360 C.ar   46  HIS46       0.1154
     36  CE1      -15.3990    4.6230    0.7360 C.ar   46  HIS46       0.1986
     37  NE2      -16.6190    4.8830    1.1510 N.ar   46  HIS46      -0.2212
     38  N        -16.1160    3.6660    5.9210 N.3    48  ASN48      -0.1240
     39  CA       -15.8200    5.0870    5.7680 C.3    48  ASN48       0.1653
     40  C        -16.3430    5.9170    6.9270 C.2    48  ASN48       0.2266
     41  O        -17.4190    6.5260    6.8550 O.2    48  ASN48      -0.2867
     42  CB       -16.4230    5.5190    4.4450 C.3    48  ASN48       0.1155
     43  CG       -16.3530    7.0350    4.1090 C.2    48  ASN48       0.2627
     44  OD1      -17.2850    7.5440    3.4820 O.2    48  ASN48      -0.2716
     45  ND2      -15.3010    7.7240    4.5060 N.am   48  ASN48      -0.0877
     46  N        -16.8550    9.2450    8.6850 N.3    50  ARG50      -0.1245
     47  CA       -17.0190   10.6660    8.3250 C.3    50  ARG50       0.1563
     48  C        -17.1690   11.4410    9.5850 C.2    50  ARG50       0.2260
     49  O        -18.0470   11.2300   10.4020 O.2    50  ARG50      -0.2867
     50  CB       -18.2340   10.8160    7.4480 C.3    50  ARG50       0.0307
     51  CG       -18.2020   10.0290    6.1420 C.3    50  ARG50       0.0489
     52  CD       -19.4030   10.2230    5.2960 C.3    50  ARG50       0.2205
     53  NE       -19.2910    9.3960    4.0990 N.pl3  50  ARG50      -0.0865
     54  CZ       -20.1650    9.3590    3.1360 C.cat  50  ARG50       0.5346
     55  NH1      -21.2620   10.1490    3.1390 N.pl3  50  ARG50       0.1354
     56  NH2      -19.9990    8.5320    2.0970 N.pl3  50  ARG50       0.1354
     57  N        -20.3580   15.1350    8.6610 N.3    53  GLU53      -0.1245
     58  CA       -21.3680   15.0640    7.6340 C.3    53  GLU53       0.1567
     59  C        -22.5790   15.8290    8.2350 C.2    53  GLU53       0.2260
     60  O        -23.2320   15.3550    9.1400 O.2    53  GLU53      -0.2867
     61  CB       -21.7320   13.6360    7.3180 C.3    53  GLU53       0.0388
     62  CG       -22.7690   13.5800    6.1730 C.3    53  GLU53       0.1160
     63  CD       -23.2810   12.2280    5.8930 C.2    53  GLU53       0.3649
     64  OE1      -24.0100   11.7070    6.7940 O.co2  53  GLU53      -0.2457
     65  OE2      -23.0180   11.6340    4.8310 O.co2  53  GLU53      -0.2457
     66  N        -20.0510    5.1480    7.2760 N.3    60  VAL60      -0.1245
     67  CA       -20.7630    4.7040    6.1020 C.3    60  VAL60       0.1561
     68  C        -20.0650    3.4360    5.5680 C.2    60  VAL60       0.2260
     69  O        -18.8500    3.4810    5.3320 O.2    60  VAL60      -0.2867
     70  CB       -20.8260    5.7960    5.0030 C.3    60  VAL60       0.0252
     71  CG1      -21.4290    5.2680    3.7080 C.3    60  VAL60       0.0019
     72  CG2      -21.5890    7.0160    5.5230 C.3    60  VAL60       0.0019
     73  N        -20.3960    0.4540    2.3540 N.3    62  ASN62      -0.1240
     74  CA       -20.9960    0.2090    1.0570 C.3    62  ASN62       0.1653
     75  C        -20.1280   -0.7080    0.1800 C.2    62  ASN62       0.2266
     76  O        -19.0220   -1.0860    0.5890 O.2    62  ASN62      -0.2867
     77  CB       -21.3090    1.5510    0.3490 C.3    62  ASN62       0.1155
     78  CG       -22.4970    1.5030   -0.6230 C.2    62  ASN62       0.2627
     79  OD1      -23.0410    0.4260   -0.9610 O.2    62  ASN62      -0.2716
     80  ND2      -22.9150    2.6950   -1.0600 N.am   62  ASN62      -0.0877
     81  N        -19.0430   -1.0620   -4.1610 N.3    64  LYS64      -0.1245
     82  CA       -19.0350   -0.3940   -5.4740 C.3    64  LYS64       0.1561
     83  C        -18.8790   -1.5190   -6.5220 C.2    64  LYS64       0.2260
     84  O        -17.8750   -2.2800   -6.4880 O.2    64  LYS64      -0.2867
     85  CB       -17.8850    0.6020   -5.5680 C.3    64  LYS64       0.0271
     86  CG       -18.0780    1.5420   -6.7550 C.3    64  LYS64       0.0035
     87  CD       -17.1020    2.6150   -6.8030 C.3    64  LYS64       0.0206
     88  CE       -15.8650    2.1750   -7.1260 C.3    64  LYS64       0.1093
     89  NZ       -14.7870    3.3730   -7.2550 N.3    64  LYS64      -0.1314
     90  N        -21.9810    2.8230   -6.6560 N.3    69  TRP69      -0.1241
     91  CA       -22.2070    2.5620   -5.2480 C.3    69  TRP69       0.1605
     92  C        -23.5860    1.9910   -5.0490 C.2    69  TRP69       0.2264
     93  O        -24.5740    2.4490   -5.7040 O.2    69  TRP69      -0.2867
     94  CB       -21.9900    3.8640   -4.4300 C.3    69  TRP69       0.0550
     95  CG       -20.5780    4.2510   -4.3330 C.ar   69  TRP69       0.0003
     96  CD1      -19.9660    5.3110   -4.9190 C.ar   69  TRP69       0.0946
     97  CD2      -19.5460    3.5920   -3.5800 C.ar   69  TRP69       0.0152
     98  NE1      -18.6480    5.3990   -4.5920 N.ar   69  TRP69      -0.2442
     99  CE2      -18.3390    4.3390   -3.7950 C.ar   69  TRP69       0.0810
    100  CE3      -19.5120    2.4490   -2.7560 C.ar   69  TRP69       0.0012
    101  CZ2      -17.1290    3.9570   -3.1550 C.ar   69  TRP69       0.0191
    102  CZ3      -18.3200    2.1000   -2.1800 C.ar   69  TRP69       0.0001
    103  CH2      -17.1640    2.8270   -2.3460 C.ar   69  TRP69       0.0015
    104  N        -26.1180    2.2460    1.1030 N.3    72  GLU72      -0.1245
    105  CA       -25.3170    2.4270    2.2770 C.3    72  GLU72       0.1567
    106  C        -25.8420    1.7460    3.4750 C.2    72  GLU72       0.2260
    107  O        -27.0930    1.7370    3.7270 O.2    72  GLU72      -0.2867
    108  CB       -25.1120    3.9230    2.6000 C.3    72  GLU72       0.0388
    109  CG       -24.3340    4.6410    1.5850 C.3    72  GLU72       0.1160
    110  CD       -24.1210    6.1420    1.7380 C.2    72  GLU72       0.3649
    111  OE1      -24.7650    6.7220    2.6600 O.co2  72  GLU72      -0.2457
    112  OE2      -23.2860    6.7320    1.0040 O.co2  72  GLU72      -0.2457
    113  N        -25.4240    2.4200    7.5120 N.3    74  ARG74      -0.1245
    114  CA       -24.8770    3.4590    8.3900 C.3    74  ARG74       0.1563
    115  C        -24.9680    3.0770    9.8830 C.2    74  ARG74       0.2260
    116  O        -25.9130    2.4690   10.2980 O.2    74  ARG74      -0.2867
    117  CB       -25.6230    4.7460    8.1620 C.3    74  ARG74       0.0307
    118  CG       -25.2020    5.4020    6.8690 C.3    74  ARG74       0.0489
    119  CD       -26.1560    6.4680    6.3840 C.3    74  ARG74       0.2205
    120  NE       -25.5800    7.2480    5.3190 N.pl3  74  ARG74      -0.0865
    121  CZ       -25.0340    8.4660    5.4350 C.cat  74  ARG74       0.5346
    122  NH1      -25.0820    9.1090    6.6110 N.pl3  74  ARG74       0.1354
    123  NH2      -24.4110    9.0080    4.4240 N.pl3  74  ARG74       0.1354
    124  N         -6.9220    4.8800    3.2830 N.3   125  SER125     -0.1217
    125  CA        -6.8000    6.2310    2.9400 C.3   125  SER125      0.1889
    126  C         -7.4140    7.1630    3.9650 C.2   125  SER125      0.2288
    127  O         -8.1650    6.7230    4.8560 O.2   125  SER125     -0.2866
    128  CB        -7.4020    6.4950    1.5460 C.3   125  SER125      0.2089
    129  OG        -8.7310    6.1590    1.4990 O.3   125  SER125     -0.2183
@<TRIPOS>BOND
     1    89    88    1
     2    88    87    1
     3    87    86    1
     4    86    85    1
     5    90    91    1
     6    83    84    2
     7    83    82    1
     8    93    92    2
     9    85    82    1
    10    82    81    1
    11    91    92    1
    12    91    94    1
    13    96    98   ar
    14    96    95   ar
    15    98    99   ar
    16    94    95    1
    17    95    97   ar
    18    99    97   ar
    19    99   101   ar
    20    97   100   ar
    21   101   103   ar
    22   100   102   ar
    23   103   102   ar
    24    80    78   am
    25    79    78    2
    26    78    77    1
    27    26    25   ar
    28    24    25    1
    29    24    21    1
    30    25    27   ar
    31    23    22    2
    32    75    76    2
    33    75    74    1
    34    77    74    1
    35    22    21    1
    36    34    36   ar
    37    34    33   ar
    38    21    20    1
    39    36    37   ar
    40    32    33    1
    41    32    29    1
    42    33    35   ar
    43   112   110   ar
    44    74    73    1
    45   104   105    1
    46    37    35   ar
    47    19    17    1
    48   129   128    1
    49   128   125    1
    50   109   110    1
    51   109   108    1
    52    28    29    1
    53    18    17    1
    54   110   111   ar
    55    17    16    2
    56    29    30    1
    57    56    54    1
    58   105   108    1
    59   105   106    1
    60    16    15    1
    61    15    14    1
    62   125   124    1
    63   125   126    1
    64    54    55    1
    65    54    53    2
    66    30    31    2
    67   106   107    2
    68    44    43    2
    69    71    70    1
    70   126   127    2
    71    53    52    1
    72    43    42    1
    73    43    45   am
    74    14    13    1
    75   123   121    1
    76    42    39    1
    77    65    63   ar
    78     8     6   am
    79    70    72    1
    80    70    67    1
    81    52    51    1
    82   120   121    2
    83   120   119    1
    84    69    68    2
    85    13    10    1
    86   121   122    1
    87    68    67    1
    88    39    38    1
    89    39    40    1
    90    63    62    1
    91    63    64   ar
    92     6     7    2
    93     6     5    1
    94    67    66    1
    95    51    50    1
    96    62    61    1
    97   119   118    1
    98     5     2    1
    99    10    11    1
   100    10     9    1
   101    12    11    2
   102    41    40    2
   103   118   117    1
   104     9     3   am
   105    61    58    1
   106    50    47    1
   107   113   114    1
   108     3     4    2
   109     3     2    1
   110    58    59    1
   111    58    57    1
   112     2     1    1
   113   117   114    1
   114    59    60    2
   115    47    46    1
   116    47    48    1
   117   114   115    1
   118    48    49    2
   119   115   116    2
