@<TRIPOS>MOLECULE
tmp/5obkA00.pdb
 153 149 0 0 0
SMALL
GASTEIGER

@<TRIPOS>ATOM
      1  N          2.4200  -18.0340  -11.4330 N.3    45  TYR45      -0.1241
      2  CA         2.5070  -16.5940  -11.5280 C.3    45  TYR45       0.1605
      3  C          1.4880  -16.0290  -12.4870 C.2    45  TYR45       0.2264
      4  O          0.9730  -16.7200  -13.3720 O.2    45  TYR45      -0.2867
      5  CB         3.9150  -16.1520  -11.9590 C.3    45  TYR45       0.0534
      6  CG         4.2260  -16.4550  -13.4160 C.ar   45  TYR45      -0.0201
      7  CD1        4.0770  -15.4950  -14.4130 C.ar   45  TYR45      -0.0009
      8  CD2        4.6470  -17.7160  -13.8120 C.ar   45  TYR45      -0.0009
      9  CE1        4.3290  -15.7770  -15.7350 C.ar   45  TYR45       0.0417
     10  CE2        4.9180  -17.9880  -15.1240 C.ar   45  TYR45       0.0417
     11  CZ         4.7550  -17.0520  -16.1050 C.ar   45  TYR45       0.1957
     12  OH         5.0410  -17.3810  -17.3980 O.3    45  TYR45      -0.2866
     13  N         -0.4540  -10.0580  -19.2500 N.3    55  PHE55      -0.1227
     14  CA         0.2720  -10.5920  -20.3950 C.3    55  PHE55       0.1736
     15  C          0.6080  -12.0610  -20.2670 C.2    55  PHE55       0.2595
     16  O          0.9470  -12.6740  -21.2830 O.2    55  PHE55      -0.2718
     17  CB         1.5150   -9.7530  -20.7230 C.3    55  PHE55       0.0547
     18  CG         2.6050   -9.8320  -19.6940 C.ar   55  PHE55      -0.0202
     19  CD1        3.5230  -10.8370  -19.7150 C.ar   55  PHE55      -0.0042
     20  CD2        2.7080   -8.8850  -18.6890 C.ar   55  PHE55      -0.0042
     21  CE1        4.5120  -10.9010  -18.7730 C.ar   55  PHE55      -0.0003
     22  CE2        3.7090   -8.9320  -17.7310 C.ar   55  PHE55      -0.0003
     23  CZ         4.6210   -9.9340  -17.7900 C.ar   55  PHE55      -0.0000
     24  N          0.5370  -12.6550  -19.0800 N.am   56  ASP56      -0.1974
     25  CA         0.7920  -14.0720  -18.9770 C.3    56  ASP56       0.1709
     26  C          0.2930  -14.6040  -17.6690 C.2    56  ASP56       0.2293
     27  O          0.1450  -13.8730  -16.6860 O.2    56  ASP56      -0.2864
     28  CB         2.2940  -14.3570  -19.0870 C.3    56  ASP56       0.1436
     29  CG         2.6150  -15.7990  -19.4780 C.2    56  ASP56       0.3671
     30  OD1        1.7270  -16.5010  -20.0010 O.co2  56  ASP56      -0.2456
     31  OD2        3.7840  -16.1990  -19.3140 O.co2  56  ASP56      -0.2456
     32  N         -2.4130  -22.1810  -17.8620 N.3    61  ARG61      -0.1245
     33  CA        -1.8460  -23.3500  -18.5200 C.3    61  ARG61       0.1563
     34  C         -2.0250  -24.6260  -17.7180 C.2    61  ARG61       0.2260
     35  O         -1.6380  -25.6880  -18.1950 O.2    61  ARG61      -0.2867
     36  CB        -0.3440  -23.1480  -18.7690 C.3    61  ARG61       0.0307
     37  CG        -0.0400  -22.1460  -19.8820 C.3    61  ARG61       0.0489
     38  CD         1.4190  -22.0530  -20.2080 C.3    61  ARG61       0.2205
     39  NE         2.2130  -21.3950  -19.1690 N.pl3  61  ARG61      -0.0865
     40  CZ         2.4820  -20.1120  -19.1110 C.cat  61  ARG61       0.5346
     41  NH1        1.9840  -19.3030  -20.0240 N.pl3  61  ARG61       0.1354
     42  NH2        3.2210  -19.6550  -18.1170 N.pl3  61  ARG61       0.1354
     43  N          5.4680  -23.0070  -13.7170 N.3    65  PHE65      -0.1241
     44  CA         6.6950  -22.6160  -14.3820 C.3    65  PHE65       0.1605
     45  C          7.8710  -23.1050  -13.5350 C.2    65  PHE65       0.2264
     46  O          7.8690  -22.9390  -12.3110 O.2    65  PHE65      -0.2867
     47  CB         6.7140  -21.1270  -14.5540 C.3    65  PHE65       0.0534
     48  CG         7.9570  -20.6150  -15.2460 C.ar   65  PHE65      -0.0203
     49  CD1        8.1720  -20.7950  -16.5880 C.ar   65  PHE65      -0.0042
     50  CD2        8.9320  -19.9770  -14.5130 C.ar   65  PHE65      -0.0042
     51  CE1        9.3460  -20.3320  -17.1830 C.ar   65  PHE65      -0.0003
     52  CE2       10.0820  -19.5310  -15.0910 C.ar   65  PHE65      -0.0003
     53  CZ        10.3070  -19.7320  -16.4120 C.ar   65  PHE65      -0.0000
     54  N         18.2430  -17.7770  -16.1100 N.3    73  GLN73      -0.1231
     55  CA        17.2370  -18.3930  -16.9770 C.3    73  GLN73       0.1698
     56  C         15.9860  -17.5490  -17.0800 C.2    73  GLN73       0.2592
     57  O         15.1420  -17.7860  -17.9380 O.2    73  GLN73      -0.2718
     58  CB        16.8680  -19.7880  -16.4810 C.3    73  GLN73       0.0381
     59  CG        18.0590  -20.7310  -16.5120 C.3    73  GLN73       0.0905
     60  CD        17.7090  -22.1390  -16.0790 C.2    73  GLN73       0.2608
     61  OE1       16.5900  -22.4200  -15.6300 O.2    73  GLN73      -0.2717
     62  NE2       18.6600  -23.0490  -16.2240 N.am   73  GLN73      -0.0878
     63  N         15.8620  -16.5780  -16.1700 N.am   74  VAL74      -0.1966
     64  CA        14.7350  -15.6630  -16.0750 C.3    74  VAL74       0.1727
     65  C         15.2950  -14.2640  -15.9170 C.2    74  VAL74       0.2616
     66  O         16.4930  -14.0880  -15.6740 O.2    74  VAL74      -0.2715
     67  CB        13.8540  -16.0200  -14.8670 C.3    74  VAL74       0.0290
     68  CG1       13.1540  -17.3660  -15.0800 C.3    74  VAL74       0.0023
     69  CG2       14.6550  -16.0290  -13.5640 C.3    74  VAL74       0.0023
     70  N         14.4350  -13.2620  -16.0160 N.am   75  ILE75      -0.1977
     71  CA        14.8370  -11.8850  -15.7720 C.3    75  ILE75       0.1596
     72  C         15.4450  -11.7340  -14.3890 C.2    75  ILE75       0.2287
     73  O         15.1280  -12.4580  -13.4280 O.2    75  ILE75      -0.2864
     74  CB        13.6650  -10.8920  -15.9910 C.3    75  ILE75       0.0276
     75  CG1       12.4360  -11.2420  -15.1290 C.3    75  ILE75       0.0022
     76  CG2       13.3140  -10.8000  -17.4650 C.3    75  ILE75       0.0022
     77  CD1       11.3890  -10.1590  -15.1240 C.3    75  ILE75       0.0001
     78  N         13.3590  -11.7330  -11.1990 N.3    78  TRP78      -0.1241
     79  CA        12.8950  -13.0410  -10.7180 C.3    78  TRP78       0.1605
     80  C         13.9700  -13.8030  -10.0110 C.2    78  TRP78       0.2264
     81  O         13.7130  -14.4150   -8.9630 O.2    78  TRP78      -0.2867
     82  CB        12.3550  -13.8880  -11.8860 C.3    78  TRP78       0.0550
     83  CG        10.9060  -13.7110  -12.1600 C.ar   78  TRP78       0.0003
     84  CD1       10.1990  -12.5670  -12.4040 C.ar   78  TRP78       0.0946
     85  CD2        9.9700  -14.7780  -12.1980 C.ar   78  TRP78       0.0152
     86  NE1        8.8810  -12.8830  -12.6200 N.ar   78  TRP78      -0.2442
     87  CE2        8.7230  -14.2410  -12.5070 C.ar   78  TRP78       0.0810
     88  CE3       10.1020  -16.1570  -12.0280 C.ar   78  TRP78       0.0012
     89  CZ2        7.5820  -15.0290  -12.6270 C.ar   78  TRP78       0.0191
     90  CZ3        8.9980  -16.9480  -12.1450 C.ar   78  TRP78       0.0001
     91  CH2        7.7440  -16.3950  -12.4480 C.ar   78  TRP78       0.0015
     92  N         13.3490   -6.5070  -19.1010 N.3   101  TYR101     -0.1241
     93  CA        13.7160   -6.5930  -20.5110 C.3   101  TYR101      0.1605
     94  C         14.2750   -5.2860  -21.0780 C.2   101  TYR101      0.2264
     95  O         14.5470   -5.2170  -22.2750 O.2   101  TYR101     -0.2867
     96  CB        12.5520   -7.1020  -21.3400 C.3   101  TYR101      0.0534
     97  CG        12.1690   -8.5160  -20.9880 C.ar  101  TYR101     -0.0201
     98  CD1       12.8760   -9.5910  -21.4830 C.ar  101  TYR101     -0.0009
     99  CD2       11.1280   -8.7770  -20.1140 C.ar  101  TYR101     -0.0009
    100  CE1       12.5530  -10.9030  -21.1500 C.ar  101  TYR101      0.0417
    101  CE2       10.7700  -10.0820  -19.7950 C.ar  101  TYR101      0.0417
    102  CZ        11.4930  -11.1420  -20.3040 C.ar  101  TYR101      0.1957
    103  OH        11.1290  -12.4200  -19.9470 O.3   101  TYR101     -0.2866
    104  N         10.7220   -7.3910  -25.3100 N.3   106  SER106     -0.1202
    105  CA        10.7410   -8.7910  -25.7680 C.3   106  SER106      0.2020
    106  C          9.4800   -8.9790  -26.5670 C.2   106  SER106      0.2618
    107  O          8.4180   -9.2320  -26.0170 O.2   106  SER106     -0.2717
    108  CB        10.8200   -9.7620  -24.5890 C.3   106  SER106      0.2103
    109  OG        11.0890  -11.0760  -25.0560 O.3   106  SER106     -0.2182
    110  N          9.6260   -8.8040  -27.8890 N.am  107  LEU107     -0.1979
    111  CA         8.4990   -8.8170  -28.8170 C.3   107  LEU107      0.1596
    112  C          7.8730  -10.2000  -28.9350 C.2   107  LEU107      0.2287
    113  O          8.6060  -11.1550  -28.9560 O.2   107  LEU107     -0.2864
    114  CB         8.9830   -8.3970  -30.2050 C.3   107  LEU107      0.0297
    115  CG         9.1520   -6.8870  -30.3560 C.3   107  LEU107      0.0022
    116  CD1       10.6040   -6.4570  -30.4970 C.3   107  LEU107      0.0001
    117  CD2        8.3660   -6.4800  -31.5760 C.3   107  LEU107      0.0001
    118  N          5.1490   -9.2970  -26.8840 N.3   109  LYS109     -0.1231
    119  CA         4.3600   -8.8810  -25.7280 C.3   109  LYS109      0.1693
    120  C          4.9200   -7.7940  -24.8430 C.2   109  LYS109      0.2591
    121  O          4.1470   -7.0530  -24.2330 O.2   109  LYS109     -0.2718
    122  CB         4.1010  -10.0710  -24.8390 C.3   109  LYS109      0.0285
    123  CG         3.2430  -11.1470  -25.4710 C.3   109  LYS109      0.0035
    124  CD         2.5610  -11.9610  -24.3870 C.3   109  LYS109      0.0206
    125  CE         1.4630  -12.8450  -24.9450 C.3   109  LYS109      0.1093
    126  NZ         0.4580  -13.1290  -23.8830 N.3   109  LYS109     -0.1314
    127  N          6.2380   -7.7110  -24.7290 N.am  110  ILE110     -0.1980
    128  CA         6.8200   -6.8130  -23.7480 C.3   110  ILE110      0.1595
    129  C          7.3880   -5.6030  -24.4550 C.2   110  ILE110      0.2287
    130  O          8.3360   -5.7650  -25.1920 O.2   110  ILE110     -0.2864
    131  CB         7.9440   -7.4880  -22.8980 C.3   110  ILE110      0.0276
    132  CG1        7.5200   -8.8330  -22.2740 C.3   110  ILE110      0.0022
    133  CG2        8.3870   -6.5210  -21.8070 C.3   110  ILE110      0.0022
    134  CD1        6.3130   -8.7750  -21.3850 C.3   110  ILE110      0.0001
    135  N          7.2770   -4.2340  -15.0060 N.3   116  LEU116     -0.1245
    136  CA         6.4240   -5.4180  -14.9500 C.3   116  LEU116      0.1561
    137  C          5.9430   -5.6480  -13.5330 C.2   116  LEU116      0.2260
    138  O          6.6680   -5.4140  -12.5630 O.2   116  LEU116     -0.2867
    139  CB         7.1770   -6.6500  -15.4330 C.3   116  LEU116      0.0270
    140  CG         7.8260   -6.5730  -16.7920 C.3   116  LEU116      0.0019
    141  CD1        8.5150   -7.8690  -17.1250 C.3   116  LEU116      0.0001
    142  CD2        6.8070   -6.1780  -17.8610 C.3   116  LEU116      0.0001
    143  N          4.2630   -8.7300  -11.1170 N.3   118  PHE118     -0.1241
    144  CA         3.9530  -10.1500  -10.9860 C.3   118  PHE118      0.1605
    145  C          3.3390  -10.4560   -9.6470 C.2   118  PHE118      0.2264
    146  O          3.7360   -9.8970   -8.6140 O.2   118  PHE118     -0.2867
    147  CB         5.2060  -11.0250  -11.1090 C.3   118  PHE118      0.0534
    148  CG         5.8670  -10.9670  -12.4380 C.ar  118  PHE118     -0.0203
    149  CD1        5.5060  -11.8410  -13.4720 C.ar  118  PHE118     -0.0042
    150  CD2        6.8740  -10.0650  -12.6880 C.ar  118  PHE118     -0.0042
    151  CE1        6.1320  -11.8060  -14.7090 C.ar  118  PHE118     -0.0003
    152  CE2        7.4890  -10.0100  -13.9420 C.ar  118  PHE118     -0.0003
    153  CZ         7.1270  -10.8950  -14.9370 C.ar  118  PHE118     -0.0000
@<TRIPOS>BOND
     1   117   115    1
     2   116   115    1
     3   115   114    1
     4   114   111    1
     5   113   112    2
     6   112   111    1
     7   111   110    1
     8   110   106   am
     9   118   119    1
    10   106   107    2
    11   106   105    1
    12   105   104    1
    13   105   108    1
    14   119   120    1
    15   119   122    1
    16   123   122    1
    17   123   124    1
    18   130   129    2
    19   109   108    1
    20   125   124    1
    21   125   126    1
    22   120   127   am
    23   120   121    2
    24   127   128    1
    25   129   128    1
    26   128   131    1
    27   131   132    1
    28   131   133    1
    29    95    94    2
    30   132   134    1
    31    98   100   ar
    32    98    97   ar
    33    96    97    1
    34    96    93    1
    35    16    15    2
    36   100   102   ar
    37    94    93    1
    38    97    99   ar
    39    17    14    1
    40    17    18    1
    41    93    92    1
    42    14    15    1
    43    14    13    1
    44   102   103    1
    45   102   101   ar
    46    15    24   am
    47    38    37    1
    48    38    39    1
    49    99   101   ar
    50    41    40    1
    51    30    29   ar
    52    37    36    1
    53    19    18   ar
    54    19    21   ar
    55    18    20   ar
    56    29    31   ar
    57    29    28    1
    58    39    40    2
    59    40    42    1
    60    28    25    1
    61    24    25    1
    62    25    26    1
    63    21    23   ar
    64    36    33    1
    65    20    22   ar
    66    33    32    1
    67    33    34    1
    68    35    34    2
    69    57    56    2
    70   142   140    1
    71    23    22   ar
    72    26    27    2
    73    76    74    1
    74    12    11    1
    75    51    49   ar
    76    51    53   ar
    77   141   140    1
    78    56    55    1
    79    56    63   am
    80    55    58    1
    81    55    54    1
    82   140   139    1
    83    49    48   ar
    84    59    58    1
    85    59    60    1
    86    53    52   ar
    87    62    60   am
    88    63    64    1
    89    11     9   ar
    90    11    10   ar
    91    60    61    2
    92    64    65    1
    93    64    67    1
    94    70    65   am
    95    70    71    1
    96    74    71    1
    97    74    75    1
    98    65    66    2
    99    71    72    1
   100     9     7   ar
   101   139   136    1
   102    48    47    1
   103    48    50   ar
   104    75    77    1
   105    10     8   ar
   106    52    50   ar
   107    68    67    1
   108   135   136    1
   109   136   137    1
   110   153   151   ar
   111   153   152   ar
   112    67    69    1
   113   151   149   ar
   114    47    44    1
   115     7     6   ar
   116    72    73    2
   117    44    43    1
   118    44    45    1
   119   152   150   ar
   120     8     6   ar
   121    45    46    2
   122   137   138    2
   123   149   148   ar
   124     6     5    1
   125     4     3    2
   126   150   148   ar
   127    89    87   ar
   128    89    91   ar
   129    86    87   ar
   130    86    84   ar
   131    87    85   ar
   132     3     2    1
   133    91    90   ar
   134   148   147    1
   135    84    83   ar
   136    85    83   ar
   137    85    88   ar
   138    83    82    1
   139    90    88   ar
   140     5     2    1
   141    82    79    1
   142     2     1    1
   143    78    79    1
   144   143   144    1
   145   147   144    1
   146   144   145    1
   147    79    80    1
   148    80    81    2
   149   145   146    2
