@<TRIPOS>MOLECULE
tmp/5obrA00.pdb
 109 104 0 0 0
SMALL
GASTEIGER

@<TRIPOS>ATOM
      1  N          3.9610  -11.4700   -5.7980 N.3    41  LYS41      -0.1245
      2  CA         4.8860  -10.4670   -6.3230 C.3    41  LYS41       0.1561
      3  C          5.5220   -9.6790   -5.1920 C.2    41  LYS41       0.2260
      4  O          6.7430   -9.4840   -5.1690 O.2    41  LYS41      -0.2867
      5  CB         4.1580   -9.5240   -7.2790 C.3    41  LYS41       0.0271
      6  CG         3.8290  -10.1390   -8.6240 C.3    41  LYS41       0.0035
      7  CD         2.9160   -9.2420   -9.4190 C.3    41  LYS41       0.0206
      8  CE         2.7990   -9.7270  -10.8330 C.3    41  LYS41       0.1093
      9  NZ         1.9340   -8.8140  -11.6270 N.3    41  LYS41      -0.1314
     10  N          8.1630  -11.8540   -3.9220 N.3    44  LEU44      -0.1231
     11  CA         9.2090  -12.1080   -4.9070 C.3    44  LEU44       0.1693
     12  C         10.0970  -10.8850   -5.0750 C.2    44  LEU44       0.2591
     13  O         11.3200  -11.0110   -5.2010 O.2    44  LEU44      -0.2718
     14  CB         8.5940  -12.5290   -6.2430 C.3    44  LEU44       0.0284
     15  CG         7.9610  -13.9170   -6.3800 C.3    44  LEU44       0.0019
     16  CD1        7.0580  -13.9190   -7.5930 C.3    44  LEU44       0.0001
     17  CD2        8.9990  -14.9950   -6.5210 C.3    44  LEU44       0.0001
     18  N          9.5040   -9.6890   -5.0460 N.am   45  GLU45      -0.1979
     19  CA        10.3040   -8.4660   -5.0610 C.3    45  GLU45       0.1602
     20  C         11.2780   -8.4360   -3.8840 C.2    45  GLU45       0.2287
     21  O         12.5010   -8.4200   -4.0790 O.2    45  GLU45      -0.2864
     22  CB         9.3860   -7.2320   -5.0570 C.3    45  GLU45       0.0415
     23  CG         9.9500   -6.0430   -5.8440 C.3    45  GLU45       0.1163
     24  CD         8.8780   -5.1230   -6.4490 C.2    45  GLU45       0.3649
     25  OE1        9.1440   -4.5420   -7.5290 O.co2  45  GLU45      -0.2457
     26  OE2        7.7830   -4.9760   -5.8550 O.co2  45  GLU45      -0.2457
     27  N         12.6180  -11.8710   -9.1500 N.3    50  GLU50      -0.1245
     28  CA        11.8100  -11.7850  -10.3580 C.3    50  GLU50       0.1567
     29  C         12.6220  -12.1920  -11.5760 C.2    50  GLU50       0.2260
     30  O         12.1030  -12.8280  -12.5020 O.2    50  GLU50      -0.2867
     31  CB        11.2430  -10.3760  -10.5420 C.3    50  GLU50       0.0388
     32  CG        10.8420  -10.1210  -11.9690 C.3    50  GLU50       0.1160
     33  CD         9.9680   -8.9050  -12.1710 C.2    50  GLU50       0.3649
     34  OE1        9.3730   -8.8340  -13.2830 O.co2  50  GLU50      -0.2457
     35  OE2        9.8930   -8.0380  -11.2560 O.co2  50  GLU50      -0.2457
     36  N         13.3790  -16.1310  -11.2820 N.3    53  LEU53      -0.1231
     37  CA        12.1380  -16.8410  -11.5700 C.3    53  LEU53       0.1693
     38  C         11.8250  -16.8430  -13.0660 C.2    53  LEU53       0.2591
     39  O         11.4280  -17.8780  -13.6140 O.2    53  LEU53      -0.2718
     40  CB        10.9860  -16.2310  -10.7730 C.3    53  LEU53       0.0284
     41  CG         9.5820  -16.7270  -11.1040 C.3    53  LEU53       0.0019
     42  CD1        9.4160  -18.2000  -10.6910 C.3    53  LEU53       0.0001
     43  CD2        8.5670  -15.8410  -10.4010 C.3    53  LEU53       0.0001
     44  N         11.9930  -15.7020  -13.7460 N.am   54  ARG54      -0.1980
     45  CA        11.7680  -15.6730  -15.1920 C.3    54  ARG54       0.1597
     46  C         12.7080  -16.6380  -15.9000 C.2    54  ARG54       0.2287
     47  O         12.2920  -17.3880  -16.7910 O.2    54  ARG54      -0.2864
     48  CB        11.9470  -14.2530  -15.7370 C.3    54  ARG54       0.0334
     49  CG        10.8540  -13.2770  -15.3100 C.3    54  ARG54       0.0492
     50  CD        10.9050  -11.9850  -16.0970 C.3    54  ARG54       0.2205
     51  NE         9.9650  -10.9960  -15.5780 N.pl3  54  ARG54      -0.0865
     52  CZ         8.7820  -10.7510  -16.1300 C.cat  54  ARG54       0.5346
     53  NH1        8.4040  -11.4280  -17.2110 N.pl3  54  ARG54       0.1354
     54  NH2        7.9760   -9.8370  -15.6060 N.pl3  54  ARG54       0.1354
     55  N         11.4640  -20.2100  -15.2680 N.3    57  VAL57      -0.1245
     56  CA        10.2640  -20.4620  -16.0530 C.3    57  VAL57       0.1561
     57  C         10.6290  -20.6220  -17.5250 C.2    57  VAL57       0.2260
     58  O         10.1370  -21.5270  -18.2120 O.2    57  VAL57      -0.2867
     59  CB         9.2480  -19.3230  -15.8340 C.3    57  VAL57       0.0252
     60  CG1        8.1420  -19.3860  -16.8450 C.3    57  VAL57       0.0019
     61  CG2        8.6750  -19.3750  -14.4350 C.3    57  VAL57       0.0019
     62  N          1.9690  -19.9380  -17.7280 N.3    74  TYR74      -0.1227
     63  CA         2.0910  -19.0120  -16.6060 C.3    74  TYR74       0.1736
     64  C          1.3090  -17.7370  -16.9230 C.2    74  TYR74       0.2595
     65  O          0.9200  -17.4920  -18.0700 O.2    74  TYR74      -0.2718
     66  CB         3.5660  -18.6940  -16.3060 C.3    74  TYR74       0.0548
     67  CG         4.3190  -18.1120  -17.5000 C.ar   74  TYR74      -0.0200
     68  CD1        4.1930  -16.7570  -17.8320 C.ar   74  TYR74      -0.0009
     69  CD2        5.1270  -18.9100  -18.3010 C.ar   74  TYR74      -0.0009
     70  CE1        4.8580  -16.2200  -18.8970 C.ar   74  TYR74       0.0417
     71  CE2        5.8020  -18.3770  -19.3820 C.ar   74  TYR74       0.0417
     72  CZ         5.6610  -17.0350  -19.6780 C.ar   74  TYR74       0.1957
     73  OH         6.3160  -16.4910  -20.7640 O.3    74  TYR74      -0.2866
     74  N          1.0890  -16.9230  -15.8850 N.am   75  PHE75      -0.1962
     75  CA         0.4080  -15.6290  -15.9970 C.3    75  PHE75       0.1771
     76  C          0.5450  -14.9080  -14.6640 C.2    75  PHE75       0.2619
     77  O          1.1310  -15.4310  -13.7110 O.2    75  PHE75      -0.2715
     78  CB        -1.0660  -15.7450  -16.4050 C.3    75  PHE75       0.0574
     79  CG        -1.8870  -16.6310  -15.5180 C.ar   75  PHE75      -0.0200
     80  CD1       -1.9970  -17.9820  -15.7860 C.ar   75  PHE75      -0.0042
     81  CD2       -2.5690  -16.1100  -14.4240 C.ar   75  PHE75      -0.0042
     82  CE1       -2.7500  -18.7900  -14.9830 C.ar   75  PHE75      -0.0003
     83  CE2       -3.3370  -16.9230  -13.6150 C.ar   75  PHE75      -0.0003
     84  CZ        -3.4180  -18.2630  -13.8910 C.ar   75  PHE75      -0.0000
     85  N          0.0340  -13.6790  -14.6130 N.am   76  HIS76      -0.1973
     86  CA         0.1990  -12.8610  -13.4230 C.3    76  HIS76       0.1656
     87  C         -0.9310  -11.8490  -13.3620 C.2    76  HIS76       0.2291
     88  O         -1.6540  -11.6320  -14.3410 O.2    76  HIS76      -0.2864
     89  CB         1.5710  -12.1550  -13.3720 C.3    76  HIS76       0.0771
     90  CG         1.8830  -11.2870  -14.5630 C.ar   76  HIS76       0.0820
     91  ND1        1.7510   -9.9120  -14.5410 N.ar   76  HIS76      -0.2267
     92  CD2        2.3920  -11.5930  -15.7820 C.ar   76  HIS76       0.1154
     93  CE1        2.1200   -9.4180  -15.7090 C.ar   76  HIS76       0.1986
     94  NE2        2.5160  -10.4160  -16.4800 N.ar   76  HIS76      -0.2212
     95  N          1.8520  -14.1680   -9.1590 N.3    81  VAL81      -0.1245
     96  CA         2.3250  -14.8620  -10.3560 C.3    81  VAL81       0.1561
     97  C          1.9530  -16.3400  -10.2400 C.2    81  VAL81       0.2260
     98  O          2.1350  -16.9470   -9.1810 O.2    81  VAL81      -0.2867
     99  CB         3.8540  -14.7230  -10.5330 C.3    81  VAL81       0.0252
    100  CG1        4.3770  -15.6850  -11.6300 C.3    81  VAL81       0.0019
    101  CG2        4.2290  -13.2990  -10.8410 C.3    81  VAL81       0.0019
    102  N          2.1610  -20.3170  -11.8550 N.3    83  LEU83      -0.1245
    103  CA         2.7500  -21.3630  -12.6860 C.3    83  LEU83       0.1561
    104  C          1.7470  -22.5040  -12.8480 C.2    83  LEU83       0.2260
    105  O          1.1650  -22.9600  -11.8600 O.2    83  LEU83      -0.2867
    106  CB         4.0520  -21.8800  -12.0560 C.3    83  LEU83       0.0270
    107  CG         5.1070  -20.8690  -11.5580 C.3    83  LEU83       0.0019
    108  CD1        6.4510  -21.5150  -11.2220 C.3    83  LEU83       0.0001
    109  CD2        5.3110  -19.8060  -12.5850 C.3    83  LEU83       0.0001
@<TRIPOS>BOND
     1    73    72    1
     2    72    71   ar
     3    72    70   ar
     4    71    69   ar
     5    70    68   ar
     6    69    67   ar
     7    58    57    2
     8    65    64    2
     9    68    67   ar
    10    62    63    1
    11    57    56    1
    12    67    66    1
    13    53    52    1
    14    64    63    1
    15    64    74   am
    16    60    59    1
    17    47    46    2
    18    63    66    1
    19    94    92   ar
    20    94    93   ar
    21    78    75    1
    22    78    79    1
    23    52    54    1
    24    52    51    2
    25    50    51    1
    26    50    49    1
    27    56    59    1
    28    56    55    1
    29    75    74    1
    30    75    76    1
    31    46    45    1
    32    59    61    1
    33    80    79   ar
    34    80    82   ar
    35    92    90   ar
    36    48    49    1
    37    48    45    1
    38    93    91   ar
    39    79    81   ar
    40    45    44    1
    41    82    84   ar
    42    76    85   am
    43    76    77    2
    44    85    86    1
    45    90    91   ar
    46    90    89    1
    47    81    83   ar
    48    88    87    2
    49    84    83   ar
    50    44    38   am
    51    39    38    2
    52    86    89    1
    53    86    87    1
    54    34    33   ar
    55    38    37    1
    56   104   103    1
    57   104   105    2
    58   103   106    1
    59   103   102    1
    60   109   107    1
    61    30    29    2
    62    33    32    1
    63    33    35   ar
    64   106   107    1
    65    32    31    1
    66   100    99    1
    67     9     8    1
    68    29    28    1
    69    37    36    1
    70    37    40    1
    71   107   108    1
    72    41    40    1
    73    41    42    1
    74    41    43    1
    75   101    99    1
    76     8     7    1
    77    31    28    1
    78    99    96    1
    79    28    27    1
    80    96    97    1
    81    96    95    1
    82    97    98    2
    83     7     6    1
    84     6     5    1
    85    16    15    1
    86    25    24   ar
    87     5     2    1
    88    17    15    1
    89    24    26   ar
    90    24    23    1
    91    15    14    1
    92     2     1    1
    93     2     3    1
    94    14    11    1
    95    23    22    1
    96    13    12    2
    97     3     4    2
    98    12    18   am
    99    12    11    1
   100    19    22    1
   101    19    18    1
   102    19    20    1
   103    11    10    1
   104    21    20    2
