@<TRIPOS>MOLECULE
tmp/5obtD00.pdb
 163 164 0 0 0
SMALL
GASTEIGER

@<TRIPOS>ATOM
      1  N          9.4270   -5.4030  -12.2590 N.3    18  TRP18      -0.1241
      2  CA         9.2790   -4.3430  -11.2610 C.3    18  TRP18       0.1605
      3  C          8.5180   -3.1400  -11.8110 C.2    18  TRP18       0.2264
      4  O          8.0460   -2.3000  -11.0360 O.2    18  TRP18      -0.2867
      5  CB        10.6600   -3.9020  -10.7370 C.3    18  TRP18       0.0550
      6  CG        11.6490   -3.7750  -11.8390 C.ar   18  TRP18       0.0003
      7  CD1       11.9240   -2.6660  -12.5750 C.ar   18  TRP18       0.0946
      8  CD2       12.4630   -4.8260  -12.3680 C.ar   18  TRP18       0.0152
      9  NE1       12.8650   -2.9610  -13.5370 N.ar   18  TRP18      -0.2442
     10  CE2       13.2060   -4.2830  -13.4340 C.ar   18  TRP18       0.0810
     11  CE3       12.6170   -6.1840  -12.0570 C.ar   18  TRP18       0.0012
     12  CZ2       14.1140   -5.0420  -14.1790 C.ar   18  TRP18       0.0191
     13  CZ3       13.5160   -6.9390  -12.7960 C.ar   18  TRP18       0.0001
     14  CH2       14.2540   -6.3640  -13.8450 C.ar   18  TRP18       0.0015
     15  N          3.3650   -2.2120  -13.3810 N.3    21  ARG21      -0.1231
     16  CA         2.2580   -1.2620  -13.3360 C.3    21  ARG21       0.1694
     17  C          2.0570   -0.4590  -14.6200 C.2    21  ARG21       0.2592
     18  O          0.9240   -0.1250  -14.9600 O.2    21  ARG21      -0.2718
     19  CB         2.4540   -0.3060  -12.1490 C.3    21  ARG21       0.0321
     20  CG         3.7210    0.5330  -12.2340 C.3    21  ARG21       0.0489
     21  CD         3.9760    1.2180  -10.8890 C.3    21  ARG21       0.2205
     22  NE         5.1740    2.0570  -10.9160 N.pl3  21  ARG21      -0.0865
     23  CZ         6.4100    1.5950  -10.7820 C.cat  21  ARG21       0.5346
     24  NH1        6.6160    0.2910  -10.6090 N.pl3  21  ARG21       0.1354
     25  NH2        7.4410    2.4380  -10.8250 N.pl3  21  ARG21       0.1354
     26  N          3.1250   -0.1560  -15.3410 N.am   22  HIS22      -0.1976
     27  CA         2.9800    0.6940  -16.5210 C.3    22  HIS22       0.1656
     28  C          2.2920   -0.0420  -17.6450 C.2    22  HIS22       0.2291
     29  O          1.4340    0.5230  -18.3330 O.2    22  HIS22      -0.2864
     30  CB         4.3490    1.2160  -16.9560 C.3    22  HIS22       0.0771
     31  CG         5.0650    1.9570  -15.8710 C.ar   22  HIS22       0.0820
     32  ND1        6.4070    1.7780  -15.6000 N.ar   22  HIS22      -0.2267
     33  CD2        4.6120    2.8520  -14.9620 C.ar   22  HIS22       0.1154
     34  CE1        6.7510    2.5490  -14.5810 C.ar   22  HIS22       0.1986
     35  NE2        5.6780    3.2040  -14.1700 N.ar   22  HIS22      -0.2212
     36  N          8.2150    5.9050  -16.6700 N.3   123  HIS123     -0.1226
     37  CA         9.1410    6.7040  -15.8680 C.3   123  HIS123      0.1752
     38  C          9.4460    7.9860  -16.6030 C.2   123  HIS123      0.2596
     39  O          9.2630    8.0690  -17.8140 O.2   123  HIS123     -0.2718
     40  CB        10.4550    5.9570  -15.5690 C.3   123  HIS123      0.0759
     41  CG        10.3040    4.8070  -14.6160 C.ar  123  HIS123      0.0818
     42  ND1       10.0990    4.9860  -13.2660 N.ar  123  HIS123     -0.2268
     43  CD2       10.3490    3.4650  -14.8150 C.ar  123  HIS123      0.1154
     44  CE1       10.0110    3.8050  -12.6740 C.ar  123  HIS123      0.1986
     45  NE2       10.1520    2.8680  -13.5920 N.ar  123  HIS123     -0.2212
     46  N          9.8960    8.9910  -15.8660 N.am  124  GLY124     -0.1957
     47  CA        10.2410   10.2580  -16.4650 C.3   124  GLY124      0.1869
     48  C         11.1330   11.0430  -15.5450 C.2   124  GLY124      0.2309
     49  O         11.3070   10.6810  -14.3790 O.2   124  GLY124     -0.2863
     50  N          1.4360   10.0170  -17.3820 N.3   163  GLU163     -0.1231
     51  CA         1.8720    9.4950  -16.0870 C.3   163  GLU163      0.1699
     52  C          3.3800    9.3380  -16.0680 C.2   163  GLU163      0.2592
     53  O          3.9040    8.4780  -16.7780 O.2   163  GLU163     -0.2718
     54  CB         1.2300    8.1280  -15.8180 C.3   163  GLU163      0.0402
     55  CG         1.7420    7.4630  -14.5610 C.3   163  GLU163      0.1161
     56  CD         1.0240    7.9580  -13.3380 C.2   163  GLU163      0.3649
     57  OE1       -0.1920    7.6860  -13.2360 O.co2 163  GLU163     -0.2457
     58  OE2        1.6720    8.6100  -12.4870 O.co2 163  GLU163     -0.2457
     59  N          4.0750   10.1550  -15.2710 N.am  164  ALA164     -0.1966
     60  CA         5.5210   10.0270  -15.0920 C.3   164  ALA164      0.1728
     61  C          5.9860   11.0000  -14.0170 C.2   164  ALA164      0.2616
     62  O          5.2970   11.9650  -13.7190 O.2   164  ALA164     -0.2715
     63  CB         6.2610   10.2840  -16.4040 C.3   164  ALA164      0.0334
     64  N          7.1440   10.7380  -13.4200 N.am  165  CYS165     -0.1968
     65  CA         7.7450   11.7220  -12.5160 C.3   165  CYS165      0.1712
     66  C          8.0880   12.9990  -13.2710 C.2   165  CYS165      0.2296
     67  O          8.5740   12.9350  -14.3880 O.2   165  CYS165     -0.2864
     68  CB         9.0090   11.1640  -11.8610 C.3   165  CYS165      0.0983
     69  SG         8.6790   10.0010  -10.5210 S.3   165  CYS165     -0.0798
     70  N          7.7320   13.9740   -7.8810 N.3   192  SER192     -0.1202
     71  CA         7.4820   12.5990   -8.3110 C.3   192  SER192      0.2020
     72  C          6.0020   12.3330   -8.5620 C.2   192  SER192      0.2619
     73  O          5.1450   13.0270   -8.0140 O.2   192  SER192     -0.2717
     74  CB         7.9810   11.6180   -7.2390 C.3   192  SER192      0.2103
     75  OG         9.3760   11.7170   -7.0630 O.3   192  SER192     -0.2182
     76  N          5.7010   11.3320   -9.3940 N.am  193  SER193     -0.1937
     77  CA         4.3650   10.7480   -9.4250 C.3   193  SER193      0.2055
     78  C          4.4960    9.3490   -8.8330 C.2   193  SER193      0.2643
     79  O          5.6020    8.8090   -8.7650 O.2   193  SER193     -0.2714
     80  CB         3.7810   10.7260  -10.8450 C.3   193  SER193      0.2130
     81  OG         4.3090    9.6700  -11.6260 O.3   193  SER193     -0.2179
     82  N          3.3830    8.7750   -8.3910 N.am  194  TRP194     -0.1959
     83  CA         3.4290    7.5720   -7.5750 C.3   194  TRP194      0.1771
     84  C          2.6970    6.3890   -8.1600 C.2   194  TRP194      0.2620
     85  O          1.6310    6.5220   -8.7530 O.2   194  TRP194     -0.2715
     86  CB         2.8520    7.8660   -6.1860 C.3   194  TRP194      0.0590
     87  CG         3.5940    8.9430   -5.4700 C.ar  194  TRP194      0.0006
     88  CD1        3.2350   10.2540   -5.3590 C.ar  194  TRP194      0.0946
     89  CD2        4.8460    8.8050   -4.7780 C.ar  194  TRP194      0.0152
     90  NE1        4.1860   10.9470   -4.6270 N.ar  194  TRP194     -0.2442
     91  CE2        5.1840   10.0780   -4.2680 C.ar  194  TRP194      0.0810
     92  CE3        5.7050    7.7280   -4.5330 C.ar  194  TRP194      0.0012
     93  CZ2        6.3400   10.3010   -3.5260 C.ar  194  TRP194      0.0191
     94  CZ3        6.8600    7.9500   -3.8040 C.ar  194  TRP194      0.0001
     95  CH2        7.1680    9.2290   -3.3130 C.ar  194  TRP194      0.0015
     96  N          3.2660    5.2160   -7.9400 N.am  195  GLY195     -0.1940
     97  CA         2.5510    3.9760   -8.1440 C.3   195  GLY195      0.2014
     98  C          1.4700    3.8390   -7.0870 C.2   195  GLY195      0.2640
     99  O          1.4480    4.5840   -6.1050 O.2   195  GLY195     -0.2714
    100  N          0.5640    2.8930   -7.2820 N.am  196  THR196     -0.1936
    101  CA        -0.4380    2.5910   -6.2680 C.3   196  THR196      0.2028
    102  C         -0.7390    1.0900   -6.3150 C.2   196  THR196      0.2642
    103  O         -0.2540    0.4040   -7.2110 O.2   196  THR196     -0.2714
    104  CB        -1.7190    3.4350   -6.4650 C.3   196  THR196      0.1808
    105  OG1       -2.5600    3.3190   -5.3070 O.3   196  THR196     -0.2208
    106  CG2       -2.4790    3.0070   -7.7310 C.3   196  THR196      0.0379
    107  N         -1.5230    0.5890   -5.3590 N.am  197  TYR197     -0.1959
    108  CA        -1.7770   -0.8480   -5.2280 C.3   197  TYR197      0.1771
    109  C         -0.4330   -1.5540   -5.0300 C.2   197  TYR197      0.2620
    110  O         -0.0480   -2.4500   -5.7920 O.2   197  TYR197     -0.2715
    111  CB        -2.5390   -1.4010   -6.4440 C.3   197  TYR197      0.0574
    112  CG        -3.8610   -0.7050   -6.6950 C.ar  197  TYR197     -0.0198
    113  CD1       -4.6410   -0.2480   -5.6400 C.ar  197  TYR197     -0.0009
    114  CD2       -4.3200   -0.4860   -7.9870 C.ar  197  TYR197     -0.0009
    115  CE1       -5.8590    0.3920   -5.8670 C.ar  197  TYR197      0.0417
    116  CE2       -5.5380    0.1520   -8.2290 C.ar  197  TYR197      0.0417
    117  CZ        -6.2990    0.5850   -7.1660 C.ar  197  TYR197      0.1957
    118  OH        -7.4950    1.2170   -7.4070 O.3   197  TYR197     -0.2866
    119  N          0.2720   -1.1060   -3.9920 N.am  198  CYS198     -0.1954
    120  CA         1.6540   -1.4930   -3.7130 C.3   198  CYS198      0.1828
    121  C          1.7080   -2.3900   -2.5040 C.2   198  CYS198      0.2467
    122  O          0.9230   -2.2120   -1.5710 O.2   198  CYS198     -0.2730
    123  CB         2.5300   -0.2590   -3.4620 C.3   198  CYS198      0.0996
    124  SG         2.8160    0.7650   -4.9300 S.3   198  CYS198     -0.0798
    125  N          2.6340   -3.3660   -2.5130 N.am  199  PRO199     -0.2726
    126  CA         2.8560   -4.2150   -1.3370 C.3   199  PRO199      0.1402
    127  C          3.0400   -3.3610   -0.0930 C.2   199  PRO199      0.2269
    128  O          3.8080   -2.4030   -0.1260 O.2   199  PRO199     -0.2865
    129  CB         4.1450   -4.9630   -1.6840 C.3   199  PRO199      0.0296
    130  CG         4.1690   -4.9870   -3.1690 C.3   199  PRO199      0.0237
    131  CD         3.5830   -3.6660   -3.5970 C.3   199  PRO199      0.0939
    132  N          0.9170   -1.3440    1.3250 N.3   201  GLU201     -0.1231
    133  CA         0.0260   -0.2000    1.3990 C.3   201  GLU201      0.1699
    134  C         -1.4130   -0.6650    1.2620 C.2   201  GLU201      0.2592
    135  O         -1.6720   -1.8220    0.9470 O.2   201  GLU201     -0.2718
    136  CB         0.3750    0.8280    0.3200 C.3   201  GLU201      0.0402
    137  CG         1.8050    1.3540    0.4290 C.3   201  GLU201      0.1161
    138  CD         2.0480    2.0880    1.7330 C.2   201  GLU201      0.3649
    139  OE1        1.0960    2.6900    2.2660 O.co2 201  GLU201     -0.2457
    140  OE2        3.1900    2.0540    2.2270 O.co2 201  GLU201     -0.2457
    141  N         -2.3520    0.2360    1.5160 N.am  202  GLU202     -0.1979
    142  CA        -3.7690   -0.0940    1.4030 C.3   202  GLU202      0.1602
    143  C         -4.4040    0.7310    0.2960 C.2   202  GLU202      0.2287
    144  O         -4.1940    1.9400    0.2360 O.2   202  GLU202     -0.2864
    145  CB        -4.4920    0.1590    2.7270 C.3   202  GLU202      0.0415
    146  CG        -4.1910   -0.8700    3.7930 C.3   202  GLU202      0.1163
    147  CD        -4.5460   -2.2690    3.3390 C.2   202  GLU202      0.3649
    148  OE1       -5.5870   -2.4200    2.6610 O.co2 202  GLU202     -0.2457
    149  OE2       -3.7800   -3.2100    3.6470 O.co2 202  GLU202     -0.2457
    150  N          3.9500   -3.1290   -7.5410 N.3   212  CYS212     -0.1235
    151  CA         2.7200   -2.3310   -7.6040 C.3   212  CYS212      0.1677
    152  C          1.9020   -2.6680   -8.8510 C.2   212  CYS212      0.2270
    153  O          2.4610   -2.8880   -9.9220 O.2   212  CYS212     -0.2867
    154  CB         3.0450   -0.8430   -7.5990 C.3   212  CYS212      0.0956
    155  SG         4.0270   -0.3030   -6.1640 S.3   212  CYS212     -0.0801
    156  N         -0.6340    2.8290  -11.3040 N.3   215  ASP215     -0.1239
    157  CA        -0.1410    4.1410  -10.8930 C.3   215  ASP215      0.1674
    158  C         -1.3200    5.0280  -10.5380 C.2   215  ASP215      0.2266
    159  O         -2.3810    4.8940  -11.1360 O.2   215  ASP215     -0.2867
    160  CB         0.6920    4.7430  -12.0100 C.3   215  ASP215      0.1410
    161  CG         1.8850    3.8820  -12.3460 C.2   215  ASP215      0.3668
    162  OD1        2.9390    4.0710  -11.7040 O.co2 215  ASP215     -0.2456
    163  OD2        1.7620    2.9810  -13.2090 O.co2 215  ASP215     -0.2456
@<TRIPOS>BOND
     1    29    28    2
     2    39    38    2
     3    28    27    1
     4    50    51    1
     5    30    27    1
     6    30    31    1
     7    53    52    2
     8    36    37    1
     9    38    37    1
    10    38    46   am
    11    27    26    1
    12    47    46    1
    13    47    48    1
    14    63    60    1
    15    51    52    1
    16    51    54    1
    17    52    59   am
    18    31    32   ar
    19    31    33   ar
    20    37    40    1
    21    54    55    1
    22    32    34   ar
    23    40    41    1
    24    48    49    2
    25    26    17   am
    26    59    60    1
    27    60    61    1
    28    33    35   ar
    29    18    17    2
    30    43    41   ar
    31    43    45   ar
    32    17    16    1
    33    41    42   ar
    34    34    35   ar
    35    55    56    1
    36    67    66    2
    37    12    14   ar
    38    12    10   ar
    39    61    62    2
    40    61    64   am
    41    14    13   ar
    42    45    44   ar
    43     9    10   ar
    44     9     7   ar
    45    10     8   ar
    46    64    65    1
    47    15    16    1
    48    56    57   ar
    49    56    58   ar
    50    16    19    1
    51    66    65    1
    52    42    44   ar
    53   163   161   ar
    54    13    11   ar
    55     7     6   ar
    56    65    68    1
    57     8    11   ar
    58     8     6   ar
    59   161   160    1
    60   161   162   ar
    61     1     2    1
    62    20    19    1
    63    20    21    1
    64   160   157    1
    65    68    69    1
    66     6     5    1
    67     3     2    1
    68     3     4    2
    69    81    80    1
    70   156   157    1
    71     2     5    1
    72   159   158    2
    73    22    21    1
    74    22    23    2
    75   157   158    1
    76    80    77    1
    77    25    23    1
    78    23    24    1
    79   153   152    2
    80    77    76    1
    81    77    78    1
    82    76    72   am
    83   152   151    1
    84    78    79    2
    85    78    82   am
    86    85    84    2
    87    72    71    1
    88    72    73    2
    89    82    83    1
    90    71    70    1
    91    71    74    1
    92   116   114   ar
    93   116   117   ar
    94    84    96   am
    95    84    83    1
    96    97    96    1
    97    97    98    1
    98   114   112   ar
    99   106   104    1
   100   151   154    1
   101   151   150    1
   102   154   155    1
   103    83    86    1
   104   118   117    1
   105   100    98   am
   106   100   101    1
   107    74    75    1
   108   103   102    2
   109   117   115   ar
   110    98    99    2
   111   112   111    1
   112   112   113   ar
   113   104   101    1
   114   104   105    1
   115   111   108    1
   116   102   101    1
   117   102   107   am
   118    86    87    1
   119   155   124    1
   120   115   113   ar
   121   110   109    2
   122    87    88   ar
   123    87    89   ar
   124    88    90   ar
   125   107   108    1
   126   108   109    1
   127   109   119   am
   128   124   123    1
   129    89    92   ar
   130    89    91   ar
   131    90    91   ar
   132    92    94   ar
   133    91    93   ar
   134   119   120    1
   135    94    95   ar
   136   120   123    1
   137   120   121    1
   138   131   130    1
   139   131   125    1
   140    93    95   ar
   141   130   129    1
   142   125   121   am
   143   125   126    1
   144   121   122    2
   145   129   126    1
   146   126   127    1
   147   128   127    2
   148   144   143    2
   149   143   142    1
   150   136   137    1
   151   136   133    1
   152   137   138    1
   153   135   134    2
   154   134   133    1
   155   134   141   am
   156   132   133    1
   157   142   141    1
   158   142   145    1
   159   138   140   ar
   160   138   139   ar
   161   148   147   ar
   162   145   146    1
   163   147   149   ar
   164   147   146    1
