@<TRIPOS>MOLECULE
tmp/5obtA00.pdb
 105 103 0 0 0
SMALL
GASTEIGER

@<TRIPOS>ATOM
      1  N         14.3660   -3.4510    3.7450 N.3    21  ARG21      -0.1231
      2  CA        15.4580   -2.4950    3.8800 C.3    21  ARG21       0.1694
      3  C         15.6420   -1.9330    5.2890 C.2    21  ARG21       0.2592
      4  O         16.7650   -1.6420    5.6820 O.2    21  ARG21      -0.2718
      5  CB        15.2600   -1.3420    2.8890 C.3    21  ARG21       0.0321
      6  CG        13.9980   -0.5300    3.1200 C.3    21  ARG21       0.0489
      7  CD        13.7110    0.3480    1.9080 C.3    21  ARG21       0.2205
      8  NE        12.5230    1.1740    2.0880 N.pl3  21  ARG21      -0.0865
      9  CZ        11.2870    0.7220    1.9040 C.cat  21  ARG21       0.5346
     10  NH1       11.0950   -0.5480    1.5570 N.pl3  21  ARG21       0.1354
     11  NH2       10.2500    1.5180    2.0860 N.pl3  21  ARG21       0.1354
     12  N         14.5690   -1.7760    6.0580 N.am   22  HIS22      -0.1976
     13  CA        14.7460   -1.1250    7.3560 C.3    22  HIS22       0.1656
     14  C         15.4400   -2.0430    8.3360 C.2    22  HIS22       0.2291
     15  O         16.3020   -1.6190    9.1080 O.2    22  HIS22      -0.2864
     16  CB        13.4000   -0.6690    7.9080 C.3    22  HIS22       0.0771
     17  CG        12.6810    0.2460    6.9710 C.ar   22  HIS22       0.0820
     18  ND1       11.3410    0.1230    6.6940 N.ar   22  HIS22      -0.2267
     19  CD2       13.1410    1.2640    6.2110 C.ar   22  HIS22       0.1154
     20  CE1       10.9950    1.0520    5.8120 C.ar   22  HIS22       0.1986
     21  NE2       12.0700    1.7500    5.5010 N.ar   22  HIS22      -0.2212
     22  N          9.4950    3.9880    8.4520 N.3   123  HIS123     -0.1226
     23  CA         8.5290    4.8720    7.7990 C.3   123  HIS123      0.1752
     24  C          8.2140    6.0190    8.7290 C.2   123  HIS123      0.2596
     25  O          8.3990    5.9350    9.9450 O.2   123  HIS123     -0.2718
     26  CB         7.2300    4.1490    7.4140 C.3   123  HIS123      0.0759
     27  CG         7.3820    3.1720    6.2840 C.ar  123  HIS123      0.0818
     28  ND1        7.6080    3.5670    4.9820 N.ar  123  HIS123     -0.2268
     29  CD2        7.3110    1.8190    6.2570 C.ar  123  HIS123      0.1154
     30  CE1        7.6930    2.4990    4.2060 C.ar  123  HIS123      0.1986
     31  NE2        7.5070    1.4270    4.9530 N.ar  123  HIS123     -0.2212
     32  N          7.7570    7.1160    8.1460 N.am  124  GLY124     -0.1957
     33  CA         7.4610    8.2980    8.9210 C.3   124  GLY124      0.1869
     34  C          6.5530    9.2270    8.1480 C.2   124  GLY124      0.2309
     35  O          6.3960    9.0970    6.9380 O.2   124  GLY124     -0.2863
     36  N         16.1830    7.9170    9.8420 N.3   163  GLU163     -0.1231
     37  CA        15.8010    7.6220    8.4590 C.3   163  GLU163      0.1699
     38  C         14.2870    7.4250    8.3790 C.2   163  GLU163      0.2592
     39  O         13.7780    6.4450    8.9260 O.2   163  GLU163     -0.2718
     40  CB        16.4980    6.3510    7.9710 C.3   163  GLU163      0.0402
     41  CG        15.9880    5.8570    6.6140 C.3   163  GLU163      0.1161
     42  CD        16.6820    6.5780    5.4740 C.2   163  GLU163      0.3649
     43  OE1       17.8910    6.3340    5.2860 O.co2 163  GLU163     -0.2457
     44  OE2       16.0340    7.3890    4.7860 O.co2 163  GLU163     -0.2457
     45  N         13.5900    8.3500    7.7170 N.am  164  ALA164     -0.1966
     46  CA        12.1350    8.2610    7.4990 C.3   164  ALA164      0.1728
     47  C         11.6770    9.4020    6.6100 C.2   164  ALA164      0.2616
     48  O         12.3570   10.4270    6.5280 O.2   164  ALA164     -0.2715
     49  CB        11.3750    8.3060    8.8250 C.3   164  ALA164      0.0334
     50  N         10.5210    9.2380    5.9680 N.am  165  CYS165     -0.1968
     51  CA         9.8910   10.3500    5.2680 C.3   165  CYS165      0.1712
     52  C          9.5480   11.4740    6.2280 C.2   165  CYS165      0.2296
     53  O          9.0740   11.2260    7.3360 O.2   165  CYS165     -0.2864
     54  CB         8.6250    9.9010    4.5550 C.3   165  CYS165      0.0983
     55  SG         8.9520    8.9870    3.0590 S.3   165  CYS165     -0.0798
     56  N          9.8850   13.3410    1.0560 N.3   192  SER192     -0.1202
     57  CA        10.1980   11.9260    1.2250 C.3   192  SER192      0.2020
     58  C         11.6710   11.6620    1.4750 C.2   192  SER192      0.2619
     59  O         12.5220   12.4610    1.0970 O.2   192  SER192     -0.2717
     60  CB         9.7770   11.1470   -0.0180 C.3   192  SER192      0.2103
     61  OG         8.3760   11.2180   -0.2050 O.3   192  SER192     -0.2182
     62  N         11.9630   10.5260    2.1050 N.am  193  SER193     -0.1937
     63  CA        13.3170    9.9740    2.0540 C.3   193  SER193      0.2055
     64  C         13.2040    8.6950    1.2460 C.2   193  SER193      0.2643
     65  O         12.1120    8.1490    1.1040 O.2   193  SER193     -0.2714
     66  CB        13.9150    9.7290    3.4470 C.3   193  SER193      0.2130
     67  OG        13.3720    8.5900    4.0980 O.3   193  SER193     -0.2179
     68  N         14.3220    8.2070    0.7300 N.am  194  TRP194     -0.1959
     69  CA        14.2590    7.1780   -0.3010 C.3   194  TRP194      0.1771
     70  C         14.9910    5.9070    0.0440 C.2   194  TRP194      0.2620
     71  O         16.0730    5.9290    0.6460 O.2   194  TRP194     -0.2715
     72  CB        14.8190    7.7250   -1.6200 C.3   194  TRP194      0.0590
     73  CG        14.0380    8.8810   -2.1450 C.ar  194  TRP194      0.0006
     74  CD1       14.3520   10.2080   -2.0350 C.ar  194  TRP194      0.0946
     75  CD2       12.7940    8.8230   -2.8590 C.ar  194  TRP194      0.0152
     76  NE1       13.3780   10.9720   -2.6300 N.ar  194  TRP194     -0.2442
     77  CE2       12.4170   10.1480   -3.1470 C.ar  194  TRP194      0.0810
     78  CE3       11.9680    7.7740   -3.2910 C.ar  194  TRP194      0.0012
     79  CZ2       11.2500   10.4560   -3.8440 C.ar  194  TRP194      0.0191
     80  CZ3       10.8110    8.0790   -3.9800 C.ar  194  TRP194      0.0001
     81  CH2       10.4620    9.4140   -4.2470 C.ar  194  TRP194      0.0015
     82  N         14.4030    4.7950   -0.3840 N.am  195  GLY195     -0.1954
     83  CA        15.1230    3.5340   -0.4150 C.3   195  GLY195      0.1869
     84  C         16.2120    3.6030   -1.4660 C.2   195  GLY195      0.2309
     85  O         16.2390    4.4970   -2.3240 O.2   195  GLY195     -0.2863
     86  N         17.4200   -0.7660   -5.3330 N.3   198  CYS198     -0.1235
     87  CA        16.0490   -1.1230   -5.6760 C.3   198  CYS198      0.1677
     88  C         15.9490   -1.8040   -7.0320 C.2   198  CYS198      0.2270
     89  O         16.7320   -1.5030   -7.9260 O.2   198  CYS198     -0.2867
     90  CB        15.1690    0.1270   -5.7020 C.3   198  CYS198      0.0956
     91  SG        15.0440    0.9960   -4.1430 S.3   198  CYS198     -0.0801
     92  N         13.7600   -3.2110   -2.0970 N.3   212  CYS212     -0.1235
     93  CA        15.0220   -2.4810   -1.9610 C.3   212  CYS212      0.1677
     94  C         15.8440   -3.0290   -0.8030 C.2   212  CYS212      0.2270
     95  O         15.2840   -3.4400    0.2110 O.2   212  CYS212     -0.2867
     96  CB        14.7760   -0.9900   -1.7390 C.3   212  CYS212      0.0956
     97  SG        13.7940   -0.1840   -3.0420 S.3   212  CYS212     -0.0801
     98  N         18.3130    1.9390    2.5690 N.3   215  ASP215     -0.1239
     99  CA        17.8340    3.2980    2.4130 C.3   215  ASP215      0.1674
    100  C         19.0230    4.2160    2.1960 C.2   215  ASP215      0.2266
    101  O         20.0760    3.9790    2.7610 O.2   215  ASP215     -0.2867
    102  CB        17.0090    3.6890    3.6310 C.3   215  ASP215      0.1410
    103  CG        15.8070    2.7860    3.7970 C.2   215  ASP215      0.3668
    104  OD1       14.7810    3.0260    3.1360 O.co2 215  ASP215     -0.2456
    105  OD2       15.9020    1.7830    4.5380 O.co2 215  ASP215     -0.2456
@<TRIPOS>BOND
     1    89    88    2
     2    88    87    1
     3    90    87    1
     4    90    91    1
     5    87    86    1
     6    81    80   ar
     7    81    79   ar
     8    91    97    1
     9    80    78   ar
    10    79    77   ar
    11    78    75   ar
    12    77    75   ar
    13    77    76   ar
    14    97    96    1
    15    75    73   ar
    16    76    74   ar
    17    85    84    2
    18    73    74   ar
    19    73    72    1
    20    92    93    1
    21    93    96    1
    22    93    94    1
    23    72    69    1
    24    84    83    1
    25    94    95    2
    26    83    82    1
    27    82    70   am
    28    69    70    1
    29    69    68    1
    30    61    60    1
    31    60    57    1
    32    70    71    2
    33    68    64   am
    34    56    57    1
    35    59    58    2
    36    65    64    2
    37    57    58    1
    38    64    63    1
    39    58    62   am
    40    10     9    1
    41     9    11    1
    42     9     8    2
    43     7     8    1
    44     7     6    1
    45    63    62    1
    46    63    66    1
    47   100    99    1
    48   100   101    2
    49    99    98    1
    50    99   102    1
    51     5     6    1
    52     5     2    1
    53    55    54    1
    54   104   103   ar
    55    66    67    1
    56   102   103    1
    57     1     2    1
    58   103   105   ar
    59     2     3    1
    60    30    31   ar
    61    30    28   ar
    62    54    51    1
    63    44    42   ar
    64    31    29   ar
    65    28    27   ar
    66    51    50    1
    67    51    52    1
    68    43    42   ar
    69     3     4    2
    70     3    12   am
    71    42    41    1
    72    21    20   ar
    73    21    19   ar
    74    20    18   ar
    75    50    47   am
    76    12    13    1
    77    19    17   ar
    78    52    53    2
    79    29    27   ar
    80    27    26    1
    81    48    47    2
    82    47    46    1
    83    41    40    1
    84    18    17   ar
    85    35    34    2
    86    17    16    1
    87    13    16    1
    88    13    14    1
    89    26    23    1
    90    46    45    1
    91    46    49    1
    92    45    38   am
    93    23    22    1
    94    23    24    1
    95    40    37    1
    96    32    24   am
    97    32    33    1
    98    34    33    1
    99    14    15    2
   100    38    37    1
   101    38    39    2
   102    37    36    1
   103    24    25    2
