@<TRIPOS>MOLECULE
tmp/5obuA00.pdb
 186 172 0 0 0
SMALL
GASTEIGER

@<TRIPOS>ATOM
      1  N         38.0990  -58.9870  -32.3400 N.3     8  ASP8       -0.1239
      2  CA        37.4330  -60.1330  -32.9330 C.3     8  ASP8        0.1674
      3  C         37.9990  -60.2490  -34.3360 C.2     8  ASP8        0.2266
      4  O         37.6820  -59.4340  -35.1950 O.2     8  ASP8       -0.2867
      5  CB        35.9210  -59.9090  -32.9480 C.3     8  ASP8        0.1410
      6  CG        35.1540  -60.9580  -33.7700 C.2     8  ASP8        0.3668
      7  OD1       35.6930  -62.0320  -34.1360 O.co2   8  ASP8       -0.2456
      8  OD2       33.9800  -60.6780  -34.0520 O.co2   8  ASP8       -0.2456
      9  N         37.6000  -62.2180  -37.2790 N.3    10  GLY10      -0.1210
     10  CA        36.6180  -63.1520  -37.8380 C.3    10  GLY10       0.1956
     11  C         37.0190  -63.6640  -39.2020 C.2    10  GLY10       0.2613
     12  O         37.8770  -63.0820  -39.8680 O.2    10  GLY10      -0.2717
     13  N         36.3920  -64.7550  -39.6280 N.am   11  THR11      -0.1938
     14  CA        36.6170  -65.2850  -40.9800 C.3    11  THR11       0.2028
     15  C         36.1840  -64.2810  -42.0390 C.2    11  THR11       0.2643
     16  O         36.8600  -64.1260  -43.0540 O.2    11  THR11      -0.2714
     17  CB        35.8590  -66.6060  -41.2220 C.3    11  THR11       0.1808
     18  OG1       36.1200  -67.5060  -40.1440 O.3    11  THR11      -0.2208
     19  CG2       36.2850  -67.2540  -42.5290 C.3    11  THR11       0.0379
     20  N         35.0640  -63.6090  -41.7750 N.am   12  THR12      -0.1936
     21  CA        34.4270  -62.6960  -42.7210 C.3    12  THR12       0.2028
     22  C         34.6790  -61.2390  -42.3660 C.2    12  THR12       0.2642
     23  O         35.0920  -60.4520  -43.2220 O.2    12  THR12      -0.2714
     24  CB        32.9050  -62.9510  -42.7610 C.3    12  THR12       0.1808
     25  OG1       32.6750  -64.3440  -42.9800 O.3    12  THR12      -0.2208
     26  CG2       32.2340  -62.1640  -43.8870 C.3    12  THR12       0.0379
     27  N         34.4150  -60.8800  -41.1130 N.am   13  ASN13      -0.1971
     28  CA        34.5540  -59.5090  -40.6370 C.3    13  ASN13       0.1688
     29  C         35.3240  -59.4670  -39.3300 C.2    13  ASN13       0.2292
     30  O         35.2370  -60.3860  -38.5170 O.2    13  ASN13      -0.2864
     31  CB        33.1790  -58.8790  -40.3980 C.3    13  ASN13       0.1181
     32  CG        32.3730  -58.7150  -41.6710 C.2    13  ASN13       0.2629
     33  OD1       31.2500  -59.2000  -41.7660 O.2    13  ASN13      -0.2716
     34  ND2       32.9290  -58.0180  -42.6390 N.am   13  ASN13      -0.0877
     35  N         32.4500  -52.6710  -38.3060 N.3    35  THR35      -0.1218
     36  CA        33.2140  -53.8750  -38.6390 C.3    35  THR35       0.1862
     37  C         33.9860  -53.6850  -39.9560 C.2    35  THR35       0.2287
     38  O         33.6240  -52.8470  -40.7880 O.2    35  THR35      -0.2866
     39  CB        32.3240  -55.1340  -38.7380 C.3    35  THR35       0.1770
     40  OG1       31.4010  -54.9970  -39.8210 O.3    35  THR35      -0.2211
     41  CG2       31.5660  -55.3750  -37.4260 C.3    35  THR35       0.0375
     42  N         41.4160  -67.1440  -42.2580 N.3    68  LYS68      -0.1245
     43  CA        41.2450  -67.8160  -40.9720 C.3    68  LYS68       0.1561
     44  C         41.0860  -69.3430  -41.1250 C.2    68  LYS68       0.2260
     45  O         41.5110  -70.0860  -40.2480 O.2    68  LYS68      -0.2867
     46  CB        40.0650  -67.1950  -40.1990 C.3    68  LYS68       0.0271
     47  CG        39.8660  -67.6750  -38.7720 C.3    68  LYS68       0.0035
     48  CD        38.8120  -66.8300  -38.0650 C.3    68  LYS68       0.0206
     49  CE        38.4950  -67.3110  -36.6660 C.3    68  LYS68       0.1093
     50  NZ        37.5430  -66.3840  -36.0040 N.3    68  LYS68      -0.1314
     51  N         35.5720  -67.1560  -28.4960 N.3   150  GLU150     -0.1245
     52  CA        34.5030  -66.2670  -28.9350 C.3   150  GLU150      0.1567
     53  C         33.2500  -66.3370  -28.0320 C.2   150  GLU150      0.2260
     54  O         32.7550  -65.2940  -27.6270 O.2   150  GLU150     -0.2867
     55  CB        34.1960  -66.4730  -30.4400 C.3   150  GLU150      0.0388
     56  CG        35.3320  -65.9090  -31.3170 C.3   150  GLU150      0.1160
     57  CD        35.4660  -66.5030  -32.7150 C.2   150  GLU150      0.3649
     58  OE1       34.5180  -67.1480  -33.1970 O.co2 150  GLU150     -0.2457
     59  OE2       36.5350  -66.2950  -33.3530 O.co2 150  GLU150     -0.2457
     60  N         26.2880  -69.0590  -32.5960 N.3   173  ASP173     -0.1239
     61  CA        27.0980  -68.1310  -33.3860 C.3   173  ASP173      0.1674
     62  C         27.0100  -68.4870  -34.8720 C.2   173  ASP173      0.2266
     63  O         27.5920  -69.4890  -35.3110 O.2   173  ASP173     -0.2867
     64  CB        28.5610  -68.2070  -32.9170 C.3   173  ASP173      0.1410
     65  CG        29.4450  -67.1080  -33.5060 C.2   173  ASP173      0.3668
     66  OD1       29.0900  -66.4720  -34.5240 O.co2 173  ASP173     -0.2456
     67  OD2       30.5230  -66.8830  -32.9350 O.co2 173  ASP173     -0.2456
     68  N         27.9810  -66.7360  -38.3380 N.3   175  GLY175     -0.1210
     69  CA        28.7150  -65.6390  -38.9550 C.3   175  GLY175      0.1956
     70  C         28.5260  -65.5840  -40.4560 C.2   175  GLY175      0.2612
     71  O         27.4960  -66.0190  -40.9790 O.2   175  GLY175     -0.2717
     72  N         29.5340  -65.0680  -41.1530 N.am  176  GLY176     -0.1942
     73  CA        29.5280  -65.0330  -42.6200 C.3   176  GLY176      0.2014
     74  C         29.9780  -66.3360  -43.2430 C.2   176  GLY176      0.2639
     75  O         29.4760  -66.7330  -44.2980 O.2   176  GLY176     -0.2714
     76  N         30.9340  -66.9960  -42.5940 N.am  177  GLY177     -0.1939
     77  CA        31.5290  -68.2290  -43.0890 C.3   177  GLY177      0.2014
     78  C         31.3230  -69.4630  -42.2330 C.2   177  GLY177      0.2639
     79  O         31.4300  -70.5860  -42.7560 O.2   177  GLY177     -0.2714
     80  N         31.0430  -69.2810  -40.9330 N.am  178  THR178     -0.1950
     81  CA        31.0540  -70.3940  -39.9800 C.3   178  THR178      0.1897
     82  C         29.8520  -70.3920  -39.0330 C.2   178  THR178      0.2313
     83  O         29.2450  -69.3520  -38.7590 O.2   178  THR178     -0.2863
     84  CB        32.3410  -70.4390  -39.1040 C.3   178  THR178      0.1794
     85  OG1       32.3030  -69.4210  -38.0920 O.3   178  THR178     -0.2208
     86  CG2       33.6240  -70.3110  -39.9390 C.3   178  THR178      0.0378
     87  N         26.5340  -66.9650  -43.4030 N.3   204  GLY204     -0.1210
     88  CA        25.8040  -66.0120  -44.2260 C.3   204  GLY204      0.1956
     89  C         26.1420  -65.9740  -45.7030 C.2   204  GLY204      0.2611
     90  O         25.2510  -65.7320  -46.5170 O.2   204  GLY204     -0.2717
     91  N         27.4090  -66.2240  -46.0590 N.am  205  ASP205     -0.1973
     92  CA        27.8270  -66.3540  -47.4740 C.3   205  ASP205      0.1709
     93  C         26.9720  -67.3630  -48.2470 C.2   205  ASP205      0.2293
     94  O         26.6620  -67.1640  -49.4240 O.2   205  ASP205     -0.2864
     95  CB        29.2950  -66.8000  -47.5840 C.3   205  ASP205      0.1436
     96  CG        30.2910  -65.6990  -47.2340 C.2   205  ASP205      0.3671
     97  OD1       29.9040  -64.5220  -47.1060 O.co2 205  ASP205     -0.2456
     98  OD2       31.4850  -66.0300  -47.0840 O.co2 205  ASP205     -0.2456
     99  N         23.6890  -65.8850  -49.0600 N.3   208  ASP208     -0.1239
    100  CA        23.9330  -65.0150  -50.2280 C.3   208  ASP208      0.1674
    101  C         23.9630  -65.8310  -51.5150 C.2   208  ASP208      0.2266
    102  O         23.3620  -65.4380  -52.5040 O.2   208  ASP208     -0.2867
    103  CB        25.2650  -64.2570  -50.1400 C.3   208  ASP208      0.1410
    104  CG        25.3500  -63.3240  -48.9660 C.2   208  ASP208      0.3668
    105  OD1       24.3460  -63.1480  -48.2440 O.co2 208  ASP208     -0.2456
    106  OD2       26.4460  -62.7620  -48.7610 O.co2 208  ASP208     -0.2456
    107  N         24.0930  -59.9570  -50.9850 N.3   243  GLU243     -0.1245
    108  CA        24.2700  -59.6540  -49.5610 C.3   243  GLU243      0.1567
    109  C         23.3500  -58.5000  -49.1350 C.2   243  GLU243      0.2260
    110  O         22.6990  -58.5810  -48.0900 O.2   243  GLU243     -0.2867
    111  CB        25.7260  -59.3530  -49.1920 C.3   243  GLU243      0.0388
    112  CG        25.9410  -59.4360  -47.6780 C.3   243  GLU243      0.1160
    113  CD        27.3440  -59.0920  -47.2210 C.2   243  GLU243      0.3649
    114  OE1       28.2030  -58.7310  -48.0610 O.co2 243  GLU243     -0.2457
    115  OE2       27.5890  -59.1920  -46.0000 O.co2 243  GLU243     -0.2457
    116  N         19.6600  -59.7360  -48.9170 N.3   246  LYS246     -0.1231
    117  CA        19.5180  -60.5160  -47.6770 C.3   246  LYS246      0.1693
    118  C         19.3590  -59.6210  -46.4470 C.2   246  LYS246      0.2591
    119  O         18.4330  -59.8100  -45.6440 O.2   246  LYS246     -0.2718
    120  CB        20.7200  -61.4480  -47.4830 C.3   246  LYS246      0.0285
    121  CG        20.7630  -62.1500  -46.1210 C.3   246  LYS246      0.0035
    122  CD        22.0480  -62.9480  -45.9310 C.3   246  LYS246      0.0206
    123  CE        23.2410  -62.0380  -45.7150 C.3   246  LYS246      0.1093
    124  NZ        24.4740  -62.8260  -45.4780 N.3   246  LYS246     -0.1314
    125  N         20.2580  -58.6530  -46.3120 N.am  247  ILE247     -0.1980
    126  CA        20.2380  -57.7360  -45.1760 C.3   247  ILE247      0.1595
    127  C         18.9110  -56.9700  -45.1110 C.2   247  ILE247      0.2287
    128  O         18.3220  -56.8650  -44.0390 O.2   247  ILE247     -0.2864
    129  CB        21.4660  -56.7900  -45.1740 C.3   247  ILE247      0.0276
    130  CG1       22.7320  -57.5970  -44.8270 C.3   247  ILE247      0.0022
    131  CG2       21.2850  -55.6490  -44.1750 C.3   247  ILE247      0.0022
    132  CD1       24.0370  -56.8680  -45.0660 C.3   247  ILE247      0.0001
    133  N         15.9430  -58.8860  -43.5580 N.3   250  SER250     -0.1217
    134  CA        15.8550  -58.9600  -42.1040 C.3   250  SER250      0.1889
    135  C         14.9130  -57.9100  -41.5290 C.2   250  SER250      0.2288
    136  O         14.4000  -58.1030  -40.4290 O.2   250  SER250     -0.2866
    137  CB        17.2340  -58.8310  -41.4620 C.3   250  SER250      0.2089
    138  OG        18.0150  -59.9500  -41.8120 O.3   250  SER250     -0.2183
    139  N         26.9600  -63.2140  -33.9790 N.3   317  GLY317     -0.1210
    140  CA        27.1730  -63.2310  -35.4180 C.3   317  GLY317      0.1956
    141  C         26.1050  -62.4610  -36.1620 C.2   317  GLY317      0.2612
    142  O         24.9440  -62.4660  -35.7620 O.2   317  GLY317     -0.2717
    143  N         26.5060  -61.7990  -37.2460 N.am  318  GLY318     -0.1942
    144  CA        25.6100  -60.9280  -38.0270 C.3   318  GLY318      0.2014
    145  C         24.3860  -61.6400  -38.5970 C.2   318  GLY318      0.2639
    146  O         23.3260  -61.0360  -38.7310 O.2   318  GLY318     -0.2714
    147  N         24.5310  -62.9280  -38.9180 N.am  319  SER319     -0.1949
    148  CA        23.4350  -63.7290  -39.4710 C.3   319  SER319      0.1924
    149  C         22.3000  -64.0030  -38.4730 C.2   319  SER319      0.2314
    150  O         21.1830  -64.3040  -38.9020 O.2   319  SER319     -0.2863
    151  CB        23.9620  -65.0520  -40.0220 C.3   319  SER319      0.2116
    152  OG        24.9470  -64.8270  -41.0270 O.3   319  SER319     -0.2180
    153  N         20.7600  -61.8100  -36.9620 N.3   321  ARG321     -0.1231
    154  CA        19.7480  -60.7890  -37.2340 C.3   321  ARG321      0.1694
    155  C         18.6080  -61.2840  -38.1200 C.2   321  ARG321      0.2591
    156  O         17.5880  -60.6030  -38.2110 O.2   321  ARG321     -0.2718
    157  CB        20.3760  -59.5500  -37.8770 C.3   321  ARG321      0.0321
    158  CG        21.3060  -58.7700  -36.9630 C.3   321  ARG321      0.0489
    159  CD        22.0410  -57.7130  -37.7620 C.3   321  ARG321      0.2205
    160  NE        23.1450  -57.0690  -37.0470 N.pl3 321  ARG321     -0.0865
    161  CZ        23.0220  -56.1050  -36.1360 C.cat 321  ARG321      0.5346
    162  NH1       21.8220  -55.6560  -35.7540 N.pl3 321  ARG321      0.1354
    163  NH2       24.1200  -55.5920  -35.5790 N.pl3 321  ARG321      0.1354
    164  N         18.7760  -62.4220  -38.8020 N.am  322  MET322     -0.1979
    165  CA        17.7040  -62.9770  -39.6390 C.3   322  MET322      0.1605
    166  C         16.5580  -63.5010  -38.7630 C.2   322  MET322      0.2287
    167  O         16.8020  -64.2730  -37.8370 O.2   322  MET322     -0.2864
    168  CB        18.2350  -64.0840  -40.5530 C.3   322  MET322      0.0413
    169  CG        19.2220  -63.5730  -41.5910 C.3   322  MET322      0.0598
    170  SD        19.5940  -64.7070  -42.9410 S.3   322  MET322     -0.1393
    171  CE        20.7230  -65.8620  -42.1490 C.3   322  MET322      0.0692
    172  N         25.0710  -58.2880  -32.5100 N.3   344  PRO344     -0.2102
    173  CA        25.7250  -59.5960  -32.4830 C.3   344  PRO344      0.1504
    174  C         27.0050  -59.6880  -33.3200 C.2   344  PRO344      0.2575
    175  O         27.8060  -60.5960  -33.0820 O.2   344  PRO344     -0.2718
    176  CB        24.6380  -60.5500  -32.9960 C.3   344  PRO344      0.0282
    177  CG        23.7710  -59.6900  -33.8400 C.3   344  PRO344      0.0208
    178  CD        23.7550  -58.3510  -33.1640 C.3   344  PRO344      0.0893
    179  N         27.2120  -58.7590  -34.2560 N.am  345  ASP345     -0.1974
    180  CA        28.4990  -58.6740  -34.9670 C.3   345  ASP345      0.1708
    181  C         29.5990  -57.8880  -34.2190 C.2   345  ASP345      0.2293
    182  O         30.7460  -57.8600  -34.6780 O.2   345  ASP345     -0.2864
    183  CB        28.3400  -58.1600  -36.4060 C.3   345  ASP345      0.1436
    184  CG        27.6220  -56.8320  -36.5030 C.2   345  ASP345      0.3671
    185  OD1       27.1680  -56.2830  -35.4760 O.co2 345  ASP345     -0.2456
    186  OD2       27.4940  -56.3480  -37.6460 O.co2 345  ASP345     -0.2456
@<TRIPOS>BOND
     1   102   101    2
     2   101   100    1
     3   107   108    1
     4   100   103    1
     5   100    99    1
     6   103   104    1
     7   108   111    1
     8   108   109    1
     9    94    93    2
    10   111   112    1
    11   109   110    2
    12   104   106   ar
    13   104   105   ar
    14   116   117    1
    15    93    92    1
    16   114   113   ar
    17   112   113    1
    18   117   120    1
    19   117   118    1
    20    95    92    1
    21    95    96    1
    22   120   121    1
    23    92    91    1
    24    96    97   ar
    25    96    98   ar
    26   113   115   ar
    27    90    89    2
    28   118   125   am
    29   118   119    2
    30   125   126    1
    31   121   122    1
    32    91    89   am
    33   122   123    1
    34   123   124    1
    35    89    88    1
    36   126   129    1
    37   126   127    1
    38   129   130    1
    39   129   131    1
    40   127   128    2
    41   132   130    1
    42    75    74    2
    43    88    87    1
    44    26    24    1
    45   133   134    1
    46    74    73    1
    47    74    76   am
    48    23    22    2
    49    77    76    1
    50    77    78    1
    51    16    15    2
    52    25    24    1
    53   170   171    1
    54   170   169    1
    55    24    21    1
    56    79    78    2
    57    21    22    1
    58    21    20    1
    59    34    32   am
    60    73    72    1
    61    19    17    1
    62    22    27   am
    63    42    43    1
    64    78    80   am
    65   134   135    1
    66   134   137    1
    67    15    20   am
    68    15    14    1
    69   138   137    1
    70    33    32    2
    71    32    31    1
    72   169   168    1
    73   135   136    2
    74    17    14    1
    75    17    18    1
    76    72    70   am
    77    44    43    1
    78    44    45    2
    79    27    28    1
    80   152   151    1
    81    14    13    1
    82    71    70    2
    83    43    46    1
    84    80    81    1
    85    38    37    2
    86    28    31    1
    87    28    29    1
    88   168   165    1
    89    70    69    1
    90    46    47    1
    91   151   148    1
    92    81    84    1
    93    81    82    1
    94    37    36    1
    95    86    84    1
    96    12    11    2
    97    40    39    1
    98   165   164    1
    99   165   166    1
   100    13    11   am
   101   148   147    1
   102   148   149    1
   103    29    30    2
   104    11    10    1
   105    84    85    1
   106    82    83    2
   107    69    68    1
   108   147   145   am
   109   150   149    2
   110   164   155   am
   111    47    48    1
   112   166   167    2
   113    39    36    1
   114    39    41    1
   115   146   145    2
   116    36    35    1
   117   145   144    1
   118   156   155    2
   119   155   154    1
   120    48    49    1
   121   144   143    1
   122   157   154    1
   123   157   158    1
   124    10     9    1
   125   159   160    1
   126   159   158    1
   127   186   184   ar
   128   143   141   am
   129   154   153    1
   130   160   161    2
   131    49    50    1
   132   184   183    1
   133   184   185   ar
   134   183   180    1
   135   141   142    2
   136   141   140    1
   137   161   162    1
   138   161   163    1
   139   140   139    1
   140    63    62    2
   141     4     3    2
   142   180   179    1
   143   180   181    1
   144    62    61    1
   145   182   181    2
   146    66    65   ar
   147     3     2    1
   148   179   174   am
   149     7     6   ar
   150     8     6   ar
   151   177   178    1
   152   177   176    1
   153     6     5    1
   154    65    67   ar
   155    65    64    1
   156    61    64    1
   157    61    60    1
   158    59    57   ar
   159   174   175    2
   160   174   173    1
   161    58    57   ar
   162   178   172    1
   163   176   173    1
   164     5     2    1
   165     2     1    1
   166    57    56    1
   167   172   173    1
   168    56    55    1
   169    55    52    1
   170    52    51    1
   171    52    53    1
   172    53    54    2
