@<TRIPOS>MOLECULE
tmp/5obvA00.pdb
 161 148 0 0 0
SMALL
GASTEIGER

@<TRIPOS>ATOM
      1  N         28.5280  125.6020   64.3130 N.3     8  ASP8       -0.1239
      2  CA        29.1740  126.7390   63.6540 C.3     8  ASP8        0.1674
      3  C         28.5850  126.8820   62.2420 C.2     8  ASP8        0.2266
      4  O         28.8820  126.0780   61.3530 O.2     8  ASP8       -0.2867
      5  CB        30.6900  126.5420   63.6000 C.3     8  ASP8        0.1410
      6  CG        31.4410  127.7120   62.9180 C.2     8  ASP8        0.3668
      7  OD1       30.8230  128.7560   62.5470 O.co2   8  ASP8       -0.2456
      8  OD2       32.6790  127.5540   62.7440 O.co2   8  ASP8       -0.2456
      9  N         28.9740  128.8920   59.3620 N.3    10  GLY10      -0.1210
     10  CA        29.9650  129.8050   58.8000 C.3    10  GLY10       0.1956
     11  C         29.6440  130.3160   57.4170 C.2    10  GLY10       0.2613
     12  O         28.8190  129.7360   56.7060 O.2    10  GLY10      -0.2717
     13  N         30.3060  131.4100   57.0540 N.am   11  THR11      -0.1938
     14  CA        30.1710  132.0270   55.7420 C.3    11  THR11       0.2028
     15  C         30.4900  131.0120   54.6300 C.2    11  THR11       0.2643
     16  O         29.6850  130.8140   53.7260 O.2    11  THR11      -0.2714
     17  CB        31.0960  133.2760   55.6130 C.3    11  THR11       0.1808
     18  OG1       30.8960  134.1670   56.7260 O.3    11  THR11      -0.2208
     19  CG2       30.8210  134.0460   54.3150 C.3    11  THR11       0.0379
     20  N         31.6530  130.3660   54.7330 N.am   12  THR12      -0.1936
     21  CA        32.1660  129.4480   53.7100 C.3    12  THR12       0.2028
     22  C         32.0200  127.9830   54.0950 C.2    12  THR12       0.2642
     23  O         31.6210  127.1860   53.2480 O.2    12  THR12      -0.2714
     24  CB        33.6350  129.7580   53.3460 C.3    12  THR12       0.1808
     25  OG1       34.3910  129.9660   54.5300 O.3    12  THR12      -0.2208
     26  CG2       33.7330  131.0260   52.4960 C.3    12  THR12       0.0379
     27  N         32.3210  127.6140   55.3470 N.am   13  ASN13      -0.1971
     28  CA        32.0180  126.2540   55.8460 C.3    13  ASN13       0.1688
     29  C         31.3290  126.1960   57.1960 C.2    13  ASN13       0.2292
     30  O         31.5780  127.0310   58.0760 O.2    13  ASN13      -0.2864
     31  CB        33.2810  125.4240   55.9700 C.3    13  ASN13       0.1181
     32  CG        34.0130  125.3010   54.6730 C.2    13  ASN13       0.2629
     33  OD1       33.5100  124.7020   53.7400 O.2    13  ASN13      -0.2716
     34  ND2       35.2050  125.8790   54.6050 N.am   13  ASN13      -0.0877
     35  N         33.8750  119.2640   58.2330 N.3    35  THR35      -0.1218
     36  CA        33.2530  120.5130   57.8960 C.3    35  THR35       0.1862
     37  C         32.5690  120.3540   56.5400 C.2    35  THR35       0.2287
     38  O         32.9120  119.4770   55.7540 O.2    35  THR35      -0.2866
     39  CB        34.2960  121.6530   57.7860 C.3    35  THR35       0.1770
     40  OG1       35.1000  121.4660   56.6120 O.3    35  THR35      -0.2211
     41  CG2       35.1870  121.7160   59.0430 C.3    35  THR35       0.0375
     42  N         40.3680  135.6690   63.8380 N.3   173  ASP173     -0.1239
     43  CA        39.5700  134.7750   63.0040 C.3   173  ASP173      0.1674
     44  C         39.7560  135.1270   61.5210 C.2   173  ASP173      0.2266
     45  O         39.2760  136.1530   61.0680 O.2   173  ASP173     -0.2867
     46  CB        38.0910  134.8380   63.4140 C.3   173  ASP173      0.1410
     47  CG        37.2540  133.6980   62.8200 C.2   173  ASP173      0.3668
     48  OD1       37.7630  132.9270   61.9540 O.co2 173  ASP173     -0.2456
     49  OD2       36.0600  133.5770   63.2030 O.co2 173  ASP173     -0.2456
     50  N         38.6910  133.3760   58.1370 N.3   175  GLY175     -0.1210
     51  CA        37.9310  132.3130   57.4880 C.3   175  GLY175      0.1956
     52  C         38.1220  132.3400   55.9840 C.2   175  GLY175      0.2612
     53  O         39.0810  132.9460   55.4660 O.2   175  GLY175     -0.2717
     54  N         37.1930  131.6780   55.2930 N.am  176  GLY176     -0.1942
     55  CA        37.2050  131.6020   53.8400 C.3   176  GLY176      0.2014
     56  C         36.6950  132.8770   53.1930 C.2   176  GLY176      0.2639
     57  O         37.2110  133.2860   52.1550 O.2   176  GLY176     -0.2714
     58  N         35.6840  133.4960   53.8050 N.am  177  GLY177     -0.1939
     59  CA        35.1220  134.7610   53.3380 C.3   177  GLY177      0.2014
     60  C         35.4170  135.9690   54.2060 C.2   177  GLY177      0.2639
     61  O         35.4260  137.0950   53.6980 O.2   177  GLY177     -0.2714
     62  N         35.6600  135.7520   55.5070 N.am  178  THR178     -0.1950
     63  CA        35.6250  136.8360   56.5210 C.3   178  THR178      0.1897
     64  C         36.8410  136.8460   57.4310 C.2   178  THR178      0.2313
     65  O         37.4030  135.8080   57.7380 O.2   178  THR178     -0.2863
     66  CB        34.3940  136.7290   57.4430 C.3   178  THR178      0.1794
     67  OG1       34.4930  135.5350   58.2480 O.3   178  THR178     -0.2208
     68  CG2       33.1100  136.7220   56.6250 C.3   178  THR178      0.0378
     69  N         40.3250  133.5780   52.9040 N.3   204  GLY204     -0.1210
     70  CA        41.0680  132.6060   52.0950 C.3   204  GLY204      0.1956
     71  C         40.6860  132.5450   50.6250 C.2   204  GLY204      0.2611
     72  O         41.5160  132.1740   49.8050 O.2   204  GLY204     -0.2717
     73  N         39.4420  132.9030   50.2880 N.am  205  ASP205     -0.1973
     74  CA        39.0020  133.0010   48.8820 C.3   205  ASP205      0.1709
     75  C         39.7920  134.0270   48.0990 C.2   205  ASP205      0.2293
     76  O         40.0860  133.8180   46.9280 O.2   205  ASP205     -0.2864
     77  CB        37.5080  133.3460   48.7760 C.3   205  ASP205      0.1436
     78  CG        36.5940  132.1780   49.1460 C.2   205  ASP205      0.3671
     79  OD1       37.0800  131.0230   49.3400 O.co2 205  ASP205     -0.2456
     80  OD2       35.3720  132.4420   49.2580 O.co2 205  ASP205     -0.2456
     81  N         43.1830  132.4740   47.2360 N.3   208  ASP208     -0.1239
     82  CA        42.9860  131.6560   46.0300 C.3   208  ASP208      0.1674
     83  C         42.9600  132.4620   44.7290 C.2   208  ASP208      0.2266
     84  O         43.6160  132.0820   43.7510 O.2   208  ASP208     -0.2867
     85  CB        41.6630  130.8950   46.0820 C.3   208  ASP208      0.1410
     86  CG        41.5360  130.0150   47.2910 C.2   208  ASP208      0.3668
     87  OD1       42.4730  130.0030   48.1100 O.co2 208  ASP208     -0.2456
     88  OD2       40.4900  129.3440   47.4270 O.co2 208  ASP208     -0.2456
     89  N         42.7620  126.3490   45.3230 N.3   243  GLU243     -0.1245
     90  CA        42.5890  126.0380   46.7340 C.3   243  GLU243      0.1567
     91  C         43.4300  124.8440   47.1280 C.2   243  GLU243      0.2260
     92  O         43.9590  124.8250   48.2280 O.2   243  GLU243     -0.2867
     93  CB        41.1200  125.8200   47.1200 C.3   243  GLU243      0.0388
     94  CG        40.8490  126.1870   48.5830 C.3   243  GLU243      0.1160
     95  CD        39.6220  125.5170   49.1880 C.2   243  GLU243      0.3649
     96  OE1       38.7920  124.9880   48.4280 O.co2 243  GLU243     -0.2457
     97  OE2       39.4900  125.5210   50.4350 O.co2 243  GLU243     -0.2457
     98  N         47.0300  126.3250   47.3680 N.3   246  LYS246     -0.1231
     99  CA        47.1480  127.0970   48.6000 C.3   246  LYS246      0.1693
    100  C         47.3800  126.2500   49.8420 C.2   246  LYS246      0.2591
    101  O         48.2540  126.5650   50.6410 O.2   246  LYS246     -0.2718
    102  CB        45.8960  127.9290   48.8170 C.3   246  LYS246      0.0285
    103  CG        45.9530  128.7800   50.0880 C.3   246  LYS246      0.0035
    104  CD        44.6770  129.5640   50.3210 C.3   246  LYS246      0.0206
    105  CE        43.5360  128.6340   50.6750 C.3   246  LYS246      0.1093
    106  NZ        42.4150  129.4510   51.1680 N.3   246  LYS246     -0.1314
    107  N         46.5630  125.2100   49.9960 N.am  247  ILE247     -0.1980
    108  CA        46.5880  124.3180   51.1510 C.3   247  ILE247      0.1595
    109  C         47.9080  123.5560   51.2340 C.2   247  ILE247      0.2287
    110  O         48.4810  123.4110   52.3210 O.2   247  ILE247     -0.2864
    111  CB        45.3790  123.3340   51.1050 C.3   247  ILE247      0.0276
    112  CG1       44.0960  124.0920   51.4420 C.3   247  ILE247      0.0022
    113  CG2       45.5340  122.1700   52.0820 C.3   247  ILE247      0.0022
    114  CD1       42.8380  123.3320   51.1490 C.3   247  ILE247      0.0001
    115  N         50.8860  125.4430   52.7350 N.3   250  SER250     -0.1217
    116  CA        50.9750  125.5230   54.1840 C.3   250  SER250      0.1889
    117  C         51.8400  124.4120   54.8110 C.2   250  SER250      0.2288
    118  O         52.1150  124.4680   55.9970 O.2   250  SER250     -0.2866
    119  CB        49.5810  125.5540   54.8220 C.3   250  SER250      0.2089
    120  OG        48.8760  126.7390   54.4710 O.3   250  SER250     -0.2183
    121  N         39.5570  129.9780   62.3750 N.3   317  GLY317     -0.1210
    122  CA        39.5360  129.9550   60.8970 C.3   317  GLY317      0.1956
    123  C         40.5920  129.0290   60.3080 C.2   317  GLY317      0.2612
    124  O         41.6990  128.9610   60.8030 O.2   317  GLY317     -0.2717
    125  N         40.2490  128.3100   59.2490 N.am  318  GLY318     -0.1942
    126  CA        41.1990  127.4330   58.5140 C.3   318  GLY318      0.2014
    127  C         42.3660  128.1210   57.8080 C.2   318  GLY318      0.2639
    128  O         43.4340  127.5210   57.6350 O.2   318  GLY318     -0.2714
    129  N         42.1850  129.3740   57.4030 N.am  319  SER319     -0.1949
    130  CA        43.2650  130.1680   56.8090 C.3   319  SER319      0.1924
    131  C         44.3860  130.4880   57.7910 C.2   319  SER319      0.2314
    132  O         45.4440  130.9380   57.3530 O.2   319  SER319     -0.2863
    133  CB        42.7290  131.4960   56.2450 C.3   319  SER319      0.2116
    134  OG        41.5640  131.2880   55.4640 O.3   319  SER319     -0.2180
    135  N         45.9360  128.2890   59.4720 N.3   321  ARG321     -0.1231
    136  CA        46.9440  127.2690   59.1900 C.3   321  ARG321      0.1694
    137  C         48.0420  127.7620   58.2830 C.2   321  ARG321      0.2591
    138  O         49.0070  127.0570   58.1030 O.2   321  ARG321     -0.2718
    139  CB        46.2900  126.0280   58.5430 C.3   321  ARG321      0.0321
    140  CG        45.3460  125.2790   59.4750 C.3   321  ARG321      0.0489
    141  CD        44.6300  124.1630   58.7390 C.3   321  ARG321      0.2205
    142  NE        43.5870  123.4810   59.5210 N.pl3 321  ARG321     -0.0865
    143  CZ        43.8020  122.5830   60.4860 C.cat 321  ARG321      0.5346
    144  NH1       45.0410  122.2460   60.8610 N.pl3 321  ARG321      0.1354
    145  NH2       42.7640  122.0160   61.1030 N.pl3 321  ARG321      0.1354
    146  N         47.8950  128.9210   57.6530 N.am  322  MET322     -0.1979
    147  CA        48.9760  129.4740   56.8050 C.3   322  MET322      0.1605
    148  C         50.1270  130.0750   57.6090 C.2   322  MET322      0.2287
    149  O         49.9080  131.0330   58.3310 O.2   322  MET322     -0.2864
    150  CB        48.4440  130.5600   55.8710 C.3   322  MET322      0.0413
    151  CG        47.5460  130.0260   54.7800 C.3   322  MET322      0.0598
    152  SD        47.2410  131.1990   53.4490 S.3   322  MET322     -0.1393
    153  CE        45.9450  132.2240   54.1470 C.3   322  MET322      0.0692
    154  N         39.3170  125.4010   62.2890 N.3   345  ASP345     -0.1239
    155  CA        38.0110  125.2390   61.6010 C.3   345  ASP345      0.1674
    156  C         36.9530  124.4560   62.3840 C.2   345  ASP345      0.2266
    157  O         35.7660  124.5260   62.0600 O.2   345  ASP345     -0.2867
    158  CB        38.1750  124.6260   60.1900 C.3   345  ASP345      0.1410
    159  CG        39.1440  123.4650   60.1570 C.2   345  ASP345      0.3668
    160  OD1       39.8740  123.2520   61.1560 O.co2 345  ASP345     -0.2456
    161  OD2       39.1960  122.7790   59.1210 O.co2 345  ASP345     -0.2456
@<TRIPOS>BOND
     1    84    83    2
     2    83    82    1
     3    89    90    1
     4    82    85    1
     5    82    81    1
     6    85    86    1
     7    90    93    1
     8    90    91    1
     9    76    75    2
    10    93    94    1
    11    91    92    2
    12    86    88   ar
    13    86    87   ar
    14    98    99    1
    15    75    74    1
    16    96    95   ar
    17    94    95    1
    18    99   102    1
    19    99   100    1
    20    77    74    1
    21    77    78    1
    22   102   103    1
    23    74    73    1
    24    78    80   ar
    25    78    79   ar
    26    95    97   ar
    27    72    71    2
    28   100   107   am
    29   100   101    2
    30   107   108    1
    31   103   104    1
    32    73    71   am
    33   104   105    1
    34    71    70    1
    35   105   106    1
    36   111   108    1
    37   111   112    1
    38   111   113    1
    39   114   112    1
    40   108   109    1
    41   109   110    2
    42    70    69    1
    43    57    56    2
    44    26    24    1
    45   115   116    1
    46    56    58   am
    47    56    55    1
    48    23    22    2
    49    59    58    1
    50    59    60    1
    51    24    21    1
    52    24    25    1
    53   152   153    1
    54   152   151    1
    55    61    60    2
    56    21    22    1
    57    21    20    1
    58    16    15    2
    59    33    32    2
    60    55    54    1
    61    22    27   am
    62   116   117    1
    63   116   119    1
    64    60    62   am
    65    19    17    1
    66   120   119    1
    67    34    32   am
    68    15    20   am
    69    15    14    1
    70    32    31    1
    71   151   150    1
    72   117   118    2
    73    54    52   am
    74    27    28    1
    75   134   133    1
    76    53    52    2
    77    62    63    1
    78    17    14    1
    79    17    18    1
    80    14    13    1
    81    38    37    2
    82    28    31    1
    83    28    29    1
    84   150   147    1
    85    52    51    1
    86   133   130    1
    87    63    64    1
    88    63    66    1
    89    37    36    1
    90    40    39    1
    91    68    66    1
    92    12    11    2
    93   147   148    1
    94   147   146    1
    95   130   129    1
    96   130   131    1
    97    13    11   am
    98    29    30    2
    99   132   131    2
   100   129   127   am
   101    11    10    1
   102    64    65    2
   103    66    67    1
   104    51    50    1
   105   148   149    2
   106   128   127    2
   107   146   137   am
   108    39    36    1
   109    39    41    1
   110   127   126    1
   111    36    35    1
   112   138   137    2
   113   137   136    1
   114   126   125    1
   115   139   136    1
   116   139   140    1
   117   141   140    1
   118   141   142    1
   119    10     9    1
   120   161   159   ar
   121   136   135    1
   122   125   123   am
   123   142   143    2
   124   159   158    1
   125   159   160   ar
   126   158   155    1
   127   123   124    2
   128   123   122    1
   129   143   144    1
   130   143   145    1
   131   122   121    1
   132    45    44    2
   133     4     3    2
   134    44    43    1
   135   155   154    1
   136   155   156    1
   137    48    47   ar
   138   157   156    2
   139     3     2    1
   140     7     6   ar
   141     8     6   ar
   142    47    49   ar
   143    47    46    1
   144     6     5    1
   145    43    46    1
   146    43    42    1
   147     5     2    1
   148     2     1    1
