@<TRIPOS>MOLECULE
tmp/5oc0A00.pdb
 225 217 0 0 0
SMALL
GASTEIGER

@<TRIPOS>ATOM
      1  N          1.7730   31.0200   35.1780 N.3     4  TYR4       -0.1241
      2  CA         2.6800   31.7910   34.3310 C.3     4  TYR4        0.1605
      3  C          4.0500   31.1220   34.3430 C.2     4  TYR4        0.2264
      4  O          4.3730   30.3900   35.2660 O.2     4  TYR4       -0.2867
      5  CB         2.8160   33.2070   34.8710 C.3     4  TYR4        0.0534
      6  CG         1.6340   34.0690   34.5570 C.ar    4  TYR4       -0.0201
      7  CD1        1.6220   34.8390   33.4110 C.ar    4  TYR4       -0.0009
      8  CD2        0.5520   34.1810   35.4550 C.ar    4  TYR4       -0.0009
      9  CE1        0.5100   35.6330   33.0880 C.ar    4  TYR4        0.0417
     10  CE2       -0.5540   34.9580   35.1430 C.ar    4  TYR4        0.0417
     11  CZ        -0.5540   35.7170   33.9780 C.ar    4  TYR4        0.1957
     12  OH        -1.6290   36.5110   33.6920 O.3     4  TYR4       -0.2866
     13  N          8.1770   34.7850   33.8610 N.3     8  GLN8       -0.1245
     14  CA         7.1520   35.8180   34.0000 C.3     8  GLN8        0.1566
     15  C          6.8700   36.0800   35.4900 C.2     8  GLN8        0.2260
     16  O          6.5800   37.2150   35.8650 O.2     8  GLN8       -0.2867
     17  CB         5.8740   35.4180   33.3200 C.3     8  GLN8        0.0367
     18  CG         6.0080   35.3970   31.7830 C.3     8  GLN8        0.0905
     19  CD         4.7240   34.8540   31.1280 C.2     8  GLN8        0.2608
     20  OE1        4.3580   33.6460   31.2910 O.2     8  GLN8       -0.2717
     21  NE2        3.9800   35.7570   30.5200 N.am    8  GLN8       -0.0878
     22  N          7.4330   39.5910   37.3620 N.3    12  HIS12      -0.1226
     23  CA         6.3160   40.1850   38.0660 C.3    12  HIS12       0.1752
     24  C          6.7720   40.6960   39.4910 C.2    12  HIS12       0.2596
     25  O          6.5420   41.8930   39.8590 O.2    12  HIS12      -0.2718
     26  CB         5.0760   39.2560   38.1760 C.3    12  HIS12       0.0759
     27  CG         3.9110   39.8650   38.9170 C.ar   12  HIS12       0.0818
     28  ND1        3.8760   39.9240   40.2840 N.ar   12  HIS12      -0.2268
     29  CD2        2.7840   40.5090   38.4970 C.ar   12  HIS12       0.1154
     30  CE1        2.7950   40.5700   40.6950 C.ar   12  HIS12       0.1986
     31  NE2        2.0870   40.9410   39.6290 N.ar   12  HIS12      -0.2212
     32  N          7.4400   39.8200   40.2290 N.am   13  TRP13      -0.1976
     33  CA         7.7350   40.1180   41.6090 C.3    13  TRP13       0.1640
     34  C          9.0060   40.9880   41.7030 C.2    13  TRP13       0.2290
     35  O          9.1160   41.8400   42.6070 O.2    13  TRP13      -0.2864
     36  CB         7.8160   38.8310   42.4400 C.3    13  TRP13       0.0576
     37  CG         6.4910   38.1990   42.5170 C.ar   13  TRP13       0.0006
     38  CD1        6.0940   37.0140   41.9130 C.ar   13  TRP13       0.0946
     39  CD2        5.3210   38.7510   43.1250 C.ar   13  TRP13       0.0152
     40  NE1        4.7600   36.7900   42.1600 N.ar   13  TRP13      -0.2442
     41  CE2        4.2730   37.8110   42.9410 C.ar   13  TRP13       0.0810
     42  CE3        5.0920   39.8830   43.9080 C.ar   13  TRP13       0.0012
     43  CZ2        2.9810   38.0250   43.4260 C.ar   13  TRP13       0.0191
     44  CZ3        3.8130   40.1250   44.3510 C.ar   13  TRP13       0.0001
     45  CH2        2.7600   39.1970   44.1130 C.ar   13  TRP13       0.0015
     46  N          9.6860   43.3780   39.4960 N.3    15  VAL15      -0.1231
     47  CA         9.1180   44.6870   39.2500 C.3    15  VAL15       0.1692
     48  C          8.4080   45.2540   40.5040 C.2    15  VAL15       0.2592
     49  O          8.4990   46.4550   40.8080 O.2    15  VAL15      -0.2718
     50  CB         8.2150   44.7060   38.0320 C.3    15  VAL15       0.0266
     51  CG1        7.3610   45.9580   37.9330 C.3    15  VAL15       0.0020
     52  CG2        9.0510   44.6000   36.7390 C.3    15  VAL15       0.0020
     53  N          7.6420   44.4140   41.1560 N.am   16  PHE16      -0.1976
     54  CA         7.0420   44.8040   42.4450 C.3    16  PHE16       0.1639
     55  C          8.1230   45.3740   43.4080 C.2    16  PHE16       0.2290
     56  O          7.9390   46.4540   43.9700 O.2    16  PHE16      -0.2864
     57  CB         6.3150   43.5780   43.0490 C.3    16  PHE16       0.0560
     58  CG         5.8360   43.7400   44.4890 C.ar   16  PHE16      -0.0200
     59  CD1        4.7880   44.5690   44.7880 C.ar   16  PHE16      -0.0042
     60  CD2        6.3890   42.9900   45.4880 C.ar   16  PHE16      -0.0042
     61  CE1        4.2890   44.6790   46.1010 C.ar   16  PHE16      -0.0003
     62  CE2        5.9020   43.0530   46.7680 C.ar   16  PHE16      -0.0003
     63  CZ         4.8490   43.9120   47.0670 C.ar   16  PHE16      -0.0000
     64  N          9.5320   48.7070   42.0440 N.3    19  VAL19      -0.1245
     65  CA         8.5320   49.7640   42.1750 C.3    19  VAL19       0.1561
     66  C          8.4580   50.2540   43.6210 C.2    19  VAL19       0.2260
     67  O          8.3280   51.4460   43.8630 O.2    19  VAL19      -0.2867
     68  CB         7.1410   49.2750   41.7180 C.3    19  VAL19       0.0252
     69  CG1        5.9840   50.1580   42.2020 C.3    19  VAL19       0.0019
     70  CG2        7.1440   49.2070   40.1790 C.3    19  VAL19       0.0019
     71  N          8.2410   42.1790   29.8030 N.3    55  ARG55      -0.1245
     72  CA         7.0980   41.4090   30.2380 C.3    55  ARG55       0.1563
     73  C          5.9220   41.4600   29.2610 C.2    55  ARG55       0.2260
     74  O          5.1640   40.5210   29.1500 O.2    55  ARG55      -0.2867
     75  CB         6.6760   41.7890   31.6710 C.3    55  ARG55       0.0307
     76  CG         5.7630   42.9860   31.7180 C.3    55  ARG55       0.0489
     77  CD         5.6530   43.5690   33.1190 C.3    55  ARG55       0.2205
     78  NE         4.9270   42.7090   34.0420 N.pl3  55  ARG55      -0.0865
     79  CZ         4.8240   42.9610   35.3470 C.cat  55  ARG55       0.5346
     80  NH1        5.4050   44.0340   35.8920 N.pl3  55  ARG55       0.1354
     81  NH2        4.2110   42.1170   36.1120 N.pl3  55  ARG55       0.1354
     82  N          4.2030   38.4670   27.3370 N.3    59  ARG59      -0.1245
     83  CA         2.7740   38.3210   27.3960 C.3    59  ARG59       0.1563
     84  C          2.1780   38.0360   26.0180 C.2    59  ARG59       0.2260
     85  O          1.3190   37.1770   25.8720 O.2    59  ARG59      -0.2867
     86  CB         2.1990   39.5710   28.1370 C.3    59  ARG59       0.0307
     87  CG         0.8240   39.4000   28.6240 C.3    59  ARG59       0.0489
     88  CD         0.7040   38.4450   29.7530 C.3    59  ARG59       0.2205
     89  NE        -0.6720   38.1720   29.8720 N.pl3  59  ARG59      -0.0865
     90  CZ        -1.5810   38.9880   30.4210 C.cat  59  ARG59       0.5346
     91  NH1       -2.8650   38.5860   30.5000 N.pl3  59  ARG59       0.1354
     92  NH2       -1.2430   40.1910   30.9380 N.pl3  59  ARG59       0.1354
     93  N         -1.8580   33.2670   28.2130 N.3    64  THR64      -0.1218
     94  CA        -2.2070   33.5010   29.6020 C.3    64  THR64       0.1862
     95  C         -2.6850   32.2310   30.2550 C.2    64  THR64       0.2287
     96  O         -3.5630   31.5990   29.7900 O.2    64  THR64      -0.2866
     97  CB        -3.2510   34.6150   29.6860 C.3    64  THR64       0.1770
     98  OG1       -2.6730   35.7920   29.1050 O.3    64  THR64      -0.2211
     99  CG2       -3.6600   34.9710   31.1570 C.3    64  THR64       0.0375
    100  N         -7.6930   30.6480   34.3630 N.3    67  ILE67      -0.1245
    101  CA        -8.2050   30.6490   35.7270 C.3    67  ILE67       0.1561
    102  C         -9.2070   29.5250   35.9410 C.2    67  ILE67       0.2260
    103  O        -10.0270   29.2480   35.0660 O.2    67  ILE67      -0.2867
    104  CB        -8.7670   32.0490   36.0640 C.3    67  ILE67       0.0252
    105  CG1       -7.5730   33.0550   36.0500 C.3    67  ILE67       0.0019
    106  CG2       -9.4280   32.0900   37.4570 C.3    67  ILE67       0.0019
    107  CD1       -8.0210   34.4620   35.9110 C.3    67  ILE67       0.0001
    108  N        -10.2740   42.0980   32.8530 N.3    77  ALA77      -0.1231
    109  CA        -9.0340   41.9500   33.5510 C.3    77  ALA77       0.1694
    110  C         -7.8770   42.2220   32.5500 C.2    77  ALA77       0.2592
    111  O         -6.8730   42.8810   32.8810 O.2    77  ALA77      -0.2718
    112  CB        -8.9390   40.5550   34.1300 C.3    77  ALA77       0.0304
    113  N         -7.9870   41.6600   31.3470 N.am   78  HIS78      -0.1976
    114  CA        -6.9250   41.8810   30.3080 C.3    78  HIS78       0.1656
    115  C         -6.7750   43.3390   29.9070 C.2    78  HIS78       0.2291
    116  O         -5.6420   43.7840   29.7650 O.2    78  HIS78      -0.2864
    117  CB        -6.9430   40.8290   29.1610 C.3    78  HIS78       0.0771
    118  CG        -6.5500   39.4690   29.6770 C.ar   78  HIS78       0.0820
    119  ND1       -6.6110   38.3090   28.9290 N.ar   78  HIS78      -0.2267
    120  CD2       -6.1830   39.0750   30.9460 C.ar   78  HIS78       0.1154
    121  CE1       -6.2690   37.2750   29.6690 C.ar   78  HIS78       0.1986
    122  NE2       -6.0200   37.7060   30.9050 N.ar   78  HIS78      -0.2212
    123  N         -4.9680   44.9840   32.7110 N.3    81  HIS81      -0.1241
    124  CA        -3.5390   44.7410   32.4990 C.3    81  HIS81       0.1621
    125  C         -2.9490   45.7250   31.4770 C.2    81  HIS81       0.2264
    126  O         -1.8340   46.2110   31.6590 O.2    81  HIS81      -0.2867
    127  CB        -3.2560   43.2990   32.0630 C.3    81  HIS81       0.0745
    128  CG        -3.6420   42.2950   33.0910 C.ar   81  HIS81       0.0817
    129  ND1       -3.7580   40.9530   32.8150 N.ar   81  HIS81      -0.2268
    130  CD2       -3.9070   42.4360   34.4250 C.ar   81  HIS81       0.1154
    131  CE1       -4.1410   40.3140   33.8980 C.ar   81  HIS81       0.1986
    132  NE2       -4.2150   41.1900   34.8920 N.ar   81  HIS81      -0.2212
    133  N         -2.2570   48.8810   33.0910 N.3    84  ILE84      -0.1231
    134  CA        -1.0160   48.7810   33.8810 C.3    84  ILE84       0.1692
    135  C          0.2530   48.8550   33.0500 C.2    84  ILE84       0.2592
    136  O          1.2250   49.6270   33.3800 O.2    84  ILE84      -0.2718
    137  CB        -1.0040   47.5260   34.7940 C.3    84  ILE84       0.0266
    138  CG1       -2.1080   47.6460   35.8550 C.3    84  ILE84       0.0019
    139  CG2        0.3140   47.4150   35.5130 C.3    84  ILE84       0.0020
    140  CD1       -2.5240   46.3240   36.4120 C.3    84  ILE84       0.0001
    141  N          0.2480   48.1070   31.9530 N.am   85  TYR85      -0.1976
    142  CA         1.3870   48.1670   31.0020 C.3    85  TYR85       0.1639
    143  C          1.6330   49.5970   30.5370 C.2    85  TYR85       0.2290
    144  O          2.7600   50.0890   30.5930 O.2    85  TYR85      -0.2864
    145  CB         1.1850   47.2530   29.7930 C.3    85  TYR85       0.0560
    146  CG         1.1840   45.7990   30.1040 C.ar   85  TYR85      -0.0198
    147  CD1        2.2330   45.2010   30.7670 C.ar   85  TYR85      -0.0009
    148  CD2        0.1240   44.9570   29.6740 C.ar   85  TYR85      -0.0009
    149  CE1        2.2090   43.8250   31.0450 C.ar   85  TYR85       0.0417
    150  CE2        0.1060   43.6040   29.9600 C.ar   85  TYR85       0.0417
    151  CZ         1.1720   43.0300   30.6330 C.ar   85  TYR85       0.1957
    152  OH         1.1150   41.6820   30.9420 O.3    85  TYR85      -0.2866
    153  N          2.7770   52.1610   33.5910 N.3    88  PHE88      -0.1241
    154  CA         4.1270   51.8860   34.0640 C.3    88  PHE88       0.1605
    155  C          5.2210   51.8920   33.0070 C.2    88  PHE88       0.2264
    156  O          6.4100   51.6890   33.3360 O.2    88  PHE88      -0.2867
    157  CB         4.1160   50.6320   34.9430 C.3    88  PHE88       0.0534
    158  CG         3.5050   50.8920   36.2960 C.ar   88  PHE88      -0.0203
    159  CD1        4.2680   51.4830   37.2890 C.ar   88  PHE88      -0.0042
    160  CD2        2.1700   50.6370   36.5440 C.ar   88  PHE88      -0.0042
    161  CE1        3.7220   51.8130   38.5370 C.ar   88  PHE88      -0.0003
    162  CE2        1.5910   50.9560   37.8010 C.ar   88  PHE88      -0.0003
    163  CZ         2.3850   51.5560   38.7880 C.ar   88  PHE88      -0.0000
    164  N         -2.1290   49.9910   41.4460 N.3   139  ILE139     -0.1245
    165  CA        -1.5410   48.8240   42.1380 C.3   139  ILE139      0.1561
    166  C         -2.4490   48.3500   43.2680 C.2   139  ILE139      0.2260
    167  O         -2.6260   47.1500   43.4410 O.2   139  ILE139     -0.2867
    168  CB        -0.1230   49.0900   42.6890 C.3   139  ILE139      0.0252
    169  CG1        0.8370   49.2980   41.5540 C.3   139  ILE139      0.0019
    170  CG2        0.4350   47.9670   43.5660 C.3   139  ILE139      0.0019
    171  CD1        2.0400   50.0730   42.0430 C.3   139  ILE139      0.0001
    172  N         -5.3830   46.5640   41.8040 N.3   142  HIS142     -0.1226
    173  CA        -4.8300   45.3620   41.1950 C.3   142  HIS142      0.1752
    174  C         -4.5930   44.2890   42.3010 C.2   142  HIS142      0.2595
    175  O         -5.0120   43.1250   42.1430 O.2   142  HIS142     -0.2718
    176  CB        -3.5410   45.7040   40.4460 C.3   142  HIS142      0.0759
    177  CG        -2.7410   44.5320   39.9670 C.ar  142  HIS142      0.0818
    178  ND1       -3.1050   43.7330   38.8860 N.ar  142  HIS142     -0.2268
    179  CD2       -1.5600   44.0550   40.3900 C.ar  142  HIS142      0.1154
    180  CE1       -2.1850   42.8090   38.6980 C.ar  142  HIS142      0.1986
    181  NE2       -1.1920   43.0130   39.5530 N.ar  142  HIS142     -0.2212
    182  N         -3.9220   44.6960   43.3920 N.am  143  ALA143     -0.1980
    183  CA        -3.5450   43.7550   44.4730 C.3   143  ALA143      0.1597
    184  C         -4.8500   43.2790   45.1570 C.2   143  ALA143      0.2287
    185  O         -4.9940   42.1010   45.5090 O.2   143  ALA143     -0.2864
    186  CB        -2.6200   44.4170   45.4670 C.3   143  ALA143      0.0319
    187  N         -6.6740   40.6590   43.2540 N.3   146  ALA146     -0.1231
    188  CA        -5.9830   39.4230   43.3860 C.3   146  ALA146      0.1694
    189  C         -6.3470   38.7740   44.7030 C.2   146  ALA146      0.2591
    190  O         -6.6250   37.5430   44.7830 O.2   146  ALA146     -0.2718
    191  CB        -4.5010   39.6520   43.3130 C.3   146  ALA146      0.0304
    192  N         -6.4010   39.5820   45.7450 N.am  147  LEU147     -0.1980
    193  CA        -6.7700   39.0770   47.0740 C.3   147  LEU147      0.1596
    194  C         -8.2300   38.6380   47.1400 C.2   147  LEU147      0.2287
    195  O         -8.4940   37.6390   47.7680 O.2   147  LEU147     -0.2864
    196  CB        -6.5180   40.1330   48.1410 C.3   147  LEU147      0.0297
    197  CG        -5.0250   40.4160   48.3040 C.3   147  LEU147      0.0022
    198  CD1       -4.8310   41.4070   49.4350 C.3   147  LEU147      0.0001
    199  CD2       -4.1260   39.2010   48.4510 C.3   147  LEU147      0.0001
    200  N         -6.4400   32.4200   40.7340 N.3   157  THR157     -0.1203
    201  CA        -5.8800   33.6030   40.0930 C.3   157  THR157      0.1994
    202  C         -4.5290   33.9510   40.5640 C.2   157  THR157      0.2617
    203  O         -3.6060   34.1130   39.7510 O.2   157  THR157     -0.2717
    204  CB        -6.8010   34.8320   40.2470 C.3   157  THR157      0.1784
    205  OG1       -8.0810   34.4860   39.6720 O.3   157  THR157     -0.2211
    206  CG2       -6.2530   36.0310   39.5170 C.3   157  THR157      0.0376
    207  N         -4.3670   34.0510   41.8780 N.am  158  LEU158     -0.1979
    208  CA        -3.0590   34.4020   42.4530 C.3   158  LEU158      0.1596
    209  C         -2.0820   33.2510   42.4460 C.2   158  LEU158      0.2287
    210  O         -0.9060   33.4760   42.2770 O.2   158  LEU158     -0.2864
    211  CB        -3.1920   35.0050   43.8570 C.3   158  LEU158      0.0297
    212  CG        -1.9370   35.3060   44.6880 C.3   158  LEU158      0.0022
    213  CD1       -1.0340   36.2900   43.9890 C.3   158  LEU158      0.0001
    214  CD2       -2.2570   35.8000   46.1270 C.3   158  LEU158      0.0001
    215  N         -1.4930   31.1150   40.2680 N.3   160  ARG160     -0.1301
    216  CA        -0.8590   31.0460   38.9190 C.3   160  ARG160      0.1248
    217  C          0.3760   31.9690   38.8190 C.3   160  ARG160      0.2009
    218  O          1.2620   31.7480   37.9110 O.3   160  ARG160     -0.2188
    219  CB        -1.8720   31.4570   37.8580 C.3   160  ARG160      0.0254
    220  CG        -3.0360   30.4800   37.6440 C.3   160  ARG160      0.0485
    221  CD        -4.3050   31.2320   37.2660 C.3   160  ARG160      0.2205
    222  NE        -4.2100   31.9770   35.9740 N.pl3 160  ARG160     -0.0865
    223  CZ        -4.0330   33.2850   35.8210 C.cat 160  ARG160      0.5346
    224  NH1       -3.9200   34.0930   36.8970 N.pl3 160  ARG160      0.1354
    225  NH2       -4.0230   33.8310   34.6050 N.pl3 160  ARG160      0.1354
@<TRIPOS>BOND
     1    85    84    2
     2    84    83    1
     3    82    83    1
     4    83    86    1
     5    86    87    1
     6    93    94    1
     7    87    88    1
     8   119   121   ar
     9   119   118   ar
    10    98    97    1
    11    74    73    2
    12   117   118    1
    13   117   114    1
    14    73    72    1
    15    94    97    1
    16    94    95    1
    17   121   122   ar
    18   148   150   ar
    19   148   146   ar
    20   118   120   ar
    21    97    99    1
    22    88    89    1
    23   116   115    2
    24    96    95    2
    25   145   146    1
    26   145   142    1
    27    71    72    1
    28    89    90    2
    29   115   114    1
    30   150   151   ar
    31   146   147   ar
    32    72    75    1
    33   114   113    1
    34    90    91    1
    35    90    92    1
    36    21    19   am
    37   143   144    2
    38   143   142    1
    39   151   152    1
    40   151   149   ar
    41   147   149   ar
    42   122   120   ar
    43   142   141    1
    44    19    20    2
    45    19    18    1
    46   113   110   am
    47   125   126    2
    48   125   124    1
    49    75    76    1
    50    76    77    1
    51    18    17    1
    52   141   135   am
    53   127   124    1
    54   127   128    1
    55   124   123    1
    56   110   111    2
    57   110   109    1
    58   129   128   ar
    59   129   131   ar
    60   108   109    1
    61   155   156    2
    62   155   154    1
    63   135   136    2
    64   135   134    1
    65     9     7   ar
    66     9    11   ar
    67   128   130   ar
    68   133   134    1
    69    77    78    1
    70    17    14    1
    71     7     6   ar
    72   109   112    1
    73   153   154    1
    74    12    11    1
    75    13    14    1
    76   134   137    1
    77   131   132   ar
    78    11    10   ar
    79    14    15    1
    80    78    79    2
    81   154   157    1
    82     2     3    1
    83     2     5    1
    84     2     1    1
    85     3     4    2
    86   100   101    1
    87   130   132   ar
    88     6     5    1
    89     6     8   ar
    90   225   223    1
    91   137   139    1
    92   137   138    1
    93   157   158    1
    94   103   102    2
    95    10     8   ar
    96    79    80    1
    97    79    81    1
    98    15    16    2
    99   101   102    1
   100   101   104    1
   101   223   222    2
   102   223   224    1
   103   138   140    1
   104   107   105    1
   105   222   221    1
   106   105   104    1
   107   104   106    1
   108   158   160   ar
   109   158   159   ar
   110   160   162   ar
   111    52    50    1
   112   221   220    1
   113   159   161   ar
   114    22    23    1
   115   220   219    1
   116   162   163   ar
   117   219   216    1
   118   218   217    1
   119    51    50    1
   120    50    47    1
   121    23    26    1
   122    23    24    1
   123    26    27    1
   124    29    27   ar
   125    29    31   ar
   126   161   163   ar
   127   180   178   ar
   128   180   181   ar
   129   217   216    1
   130   178   177   ar
   131    27    28   ar
   132   216   215    1
   133    47    46    1
   134    47    48    1
   135    24    25    2
   136    24    32   am
   137   206   204    1
   138   181   179   ar
   139    31    30   ar
   140   205   204    1
   141   203   202    2
   142   177   179   ar
   143   177   176    1
   144   201   204    1
   145   201   202    1
   146   201   200    1
   147    70    68    1
   148    32    33    1
   149    28    30   ar
   150   176   173    1
   151    48    49    2
   152    48    53   am
   153   202   207   am
   154    53    54    1
   155   173   172    1
   156   173   174    1
   157   164   165    1
   158   169   171    1
   159   169   168    1
   160    33    34    1
   161    33    36    1
   162    34    35    2
   163    68    65    1
   164    68    69    1
   165   207   208    1
   166    38    40   ar
   167    38    37   ar
   168    64    65    1
   169   165   168    1
   170   165   166    1
   171   175   174    2
   172    40    41   ar
   173    65    66    1
   174   210   209    2
   175   174   182   am
   176    36    37    1
   177    54    57    1
   178    54    55    1
   179   209   208    1
   180   208   211    1
   181    37    39   ar
   182   168   170    1
   183    41    39   ar
   184    41    43   ar
   185    57    58    1
   186    39    42   ar
   187   187   188    1
   188   166   167    2
   189   191   188    1
   190   188   189    1
   191   182   183    1
   192    55    56    2
   193    43    45   ar
   194    66    67    2
   195   211   212    1
   196    42    44   ar
   197   213   212    1
   198    45    44   ar
   199   183   184    1
   200   183   186    1
   201    58    59   ar
   202    58    60   ar
   203   212   214    1
   204   189   190    2
   205   189   192   am
   206    59    61   ar
   207   184   185    2
   208    60    62   ar
   209   192   193    1
   210    61    63   ar
   211    62    63   ar
   212   193   194    1
   213   193   196    1
   214   194   195    2
   215   196   197    1
   216   197   199    1
   217   197   198    1
