@<TRIPOS>MOLECULE
tmp/5oc0A01.pdb
 205 196 0 0 0
SMALL
GASTEIGER

@<TRIPOS>ATOM
      1  N          9.5320   48.7070   42.0440 N.3    19  VAL19      -0.1245
      2  CA         8.5320   49.7640   42.1750 C.3    19  VAL19       0.1561
      3  C          8.4580   50.2540   43.6210 C.2    19  VAL19       0.2260
      4  O          8.3280   51.4460   43.8630 O.2    19  VAL19      -0.2867
      5  CB         7.1410   49.2750   41.7180 C.3    19  VAL19       0.0252
      6  CG1        5.9840   50.1580   42.2020 C.3    19  VAL19       0.0019
      7  CG2        7.1440   49.2070   40.1790 C.3    19  VAL19       0.0019
      8  N         11.4800   52.4290   44.1040 N.3    22  ALA22      -0.1231
      9  CA        11.3170   53.6890   43.3910 C.3    22  ALA22       0.1694
     10  C         10.4450   54.6930   44.1760 C.2    22  ALA22       0.2592
     11  O         10.8580   55.8340   44.3410 O.2    22  ALA22      -0.2718
     12  CB        10.7020   53.4680   42.0380 C.3    22  ALA22       0.0304
     13  N          9.2650   54.2390   44.5880 N.am   23  TYR23      -0.1976
     14  CA         8.3720   55.0240   45.4480 C.3    23  TYR23       0.1639
     15  C          9.0340   55.4050   46.7970 C.2    23  TYR23       0.2290
     16  O          9.0140   56.5490   47.1810 O.2    23  TYR23      -0.2864
     17  CB         7.0950   54.2760   45.7220 C.3    23  TYR23       0.0560
     18  CG         6.0590   54.3760   44.5930 C.ar   23  TYR23      -0.0198
     19  CD1        5.4020   55.5730   44.3220 C.ar   23  TYR23      -0.0009
     20  CD2        5.6790   53.2780   43.8790 C.ar   23  TYR23      -0.0009
     21  CE1        4.4090   55.6750   43.3660 C.ar   23  TYR23       0.0417
     22  CE2        4.6910   53.3890   42.8990 C.ar   23  TYR23       0.0417
     23  CZ         4.0440   54.5710   42.6750 C.ar   23  TYR23       0.1957
     24  OH         3.0710   54.6500   41.6690 O.3    23  TYR23      -0.2866
     25  N          9.5470   59.0240   48.4630 N.3    26  GLU26      -0.1245
     26  CA         8.7370   59.3180   49.6380 C.3    26  GLU26       0.1567
     27  C          9.5950   59.6410   50.8500 C.2    26  GLU26       0.2260
     28  O          9.1860   60.4960   51.6390 O.2    26  GLU26      -0.2867
     29  CB         7.8040   58.1830   49.9800 C.3    26  GLU26       0.0388
     30  CG         6.7330   57.8650   48.9910 C.3    26  GLU26       0.1160
     31  CD         5.6520   58.9130   48.8810 C.2    26  GLU26       0.3649
     32  OE1        5.7040   59.9060   49.6130 O.co2  26  GLU26      -0.2457
     33  OE2        4.7650   58.7660   48.0160 O.co2  26  GLU26      -0.2457
     34  N         12.8540   60.7460   50.6690 N.3    28  ARG28      -0.1245
     35  CA        13.9420   61.6360   50.3030 C.3    28  ARG28       0.1563
     36  C         14.2850   62.7100   51.3790 C.2    28  ARG28       0.2260
     37  O         15.4160   62.9080   51.7180 O.2    28  ARG28      -0.2867
     38  CB        13.6300   62.3130   48.9550 C.3    28  ARG28       0.0307
     39  CG        14.8460   62.9270   48.3520 C.3    28  ARG28       0.0489
     40  CD        14.6910   63.2780   46.8620 C.3    28  ARG28       0.2205
     41  NE        13.7270   64.3120   46.4610 N.pl3  28  ARG28      -0.0865
     42  CZ        13.6630   64.8420   45.2190 C.cat  28  ARG28       0.5346
     43  NH1       14.5090   64.4690   44.2550 N.pl3  28  ARG28       0.1354
     44  NH2       12.7590   65.7750   44.9320 N.pl3  28  ARG28       0.1354
     45  N         18.3350   60.1600   44.3840 N.3    40  ASN40      -0.1240
     46  CA        17.9060   60.3860   43.0070 C.3    40  ASN40       0.1653
     47  C         18.4360   59.3110   42.0540 C.2    40  ASN40       0.2266
     48  O         17.7110   58.7890   41.2170 O.2    40  ASN40      -0.2867
     49  CB        18.2670   61.7930   42.5840 C.3    40  ASN40       0.1155
     50  CG        17.4890   62.8130   43.3460 C.2    40  ASN40       0.2627
     51  OD1       16.3720   62.5550   43.7700 O.2    40  ASN40      -0.2716
     52  ND2       18.0720   63.9950   43.5540 N.am   40  ASN40      -0.0877
     53  N         16.5280   56.1780   42.5640 N.3    42  HIS42      -0.1226
     54  CA        15.1910   56.3440   42.0320 C.3    42  HIS42       0.1752
     55  C         15.1480   56.0870   40.5250 C.2    42  HIS42       0.2595
     56  O         14.3290   55.2540   40.0380 O.2    42  HIS42      -0.2718
     57  CB        14.6320   57.7080   42.3380 C.3    42  HIS42       0.0759
     58  CG        13.2540   57.9070   41.8390 C.ar   42  HIS42       0.0818
     59  ND1       12.1730   57.2070   42.3410 N.ar   42  HIS42      -0.2268
     60  CD2       12.7870   58.6230   40.8020 C.ar   42  HIS42       0.1154
     61  CE1       11.0770   57.5910   41.7210 C.ar   42  HIS42       0.1986
     62  NE2       11.4380   58.3900   40.7340 N.ar   42  HIS42      -0.2212
     63  N         15.9890   56.8240   39.8200 N.am   43  VAL43      -0.1980
     64  CA        16.0110   56.7840   38.3760 C.3    43  VAL43       0.1595
     65  C         16.4650   55.4170   37.8710 C.2    43  VAL43       0.2287
     66  O         15.9940   54.9740   36.8130 O.2    43  VAL43      -0.2864
     67  CB        16.8730   57.9140   37.7360 C.3    43  VAL43       0.0276
     68  CG1       16.3980   59.3050   38.1620 C.3    43  VAL43       0.0022
     69  CG2       18.3550   57.7360   38.0220 C.3    43  VAL43       0.0022
     70  N         13.6300   53.1260   38.2100 N.3    46  GLY46      -0.1210
     71  CA        12.6510   53.5490   37.2180 C.3    46  GLY46       0.1956
     72  C         13.0330   53.0150   35.8390 C.2    46  GLY46       0.2611
     73  O         12.1720   52.5100   35.1080 O.2    46  GLY46      -0.2717
     74  N         14.2930   53.1790   35.4450 N.am   47  ILE47      -0.1979
     75  CA        14.7640   52.6660   34.1460 C.3    47  ILE47       0.1595
     76  C         14.6630   51.1300   34.0920 C.2    47  ILE47       0.2287
     77  O         14.2490   50.6100   33.0610 O.2    47  ILE47      -0.2864
     78  CB        16.1960   53.1200   33.7990 C.3    47  ILE47       0.0276
     79  CG1       16.2010   54.6240   33.5340 C.3    47  ILE47       0.0022
     80  CG2       16.7700   52.3750   32.5920 C.3    47  ILE47       0.0022
     81  CD1       17.5850   55.2360   33.5740 C.3    47  ILE47       0.0001
     82  N         12.5750   49.2750   35.7500 N.3    49  ILE49      -0.1245
     83  CA        11.1560   48.9770   35.6680 C.3    49  ILE49       0.1561
     84  C         10.6840   49.1290   34.2050 C.2    49  ILE49       0.2260
     85  O          9.9610   48.2620   33.7450 O.2    49  ILE49      -0.2867
     86  CB        10.2850   49.8710   36.5470 C.3    49  ILE49       0.0252
     87  CG1       10.4670   49.4960   38.0350 C.3    49  ILE49       0.0019
     88  CG2        8.7930   49.7460   36.1930 C.3    49  ILE49       0.0019
     89  CD1       10.2220   50.6390   39.0140 C.3    49  ILE49       0.0001
     90  N          2.7770   52.1610   33.5910 N.3    88  PHE88      -0.1241
     91  CA         4.1270   51.8860   34.0640 C.3    88  PHE88       0.1605
     92  C          5.2210   51.8920   33.0070 C.2    88  PHE88       0.2264
     93  O          6.4100   51.6890   33.3360 O.2    88  PHE88      -0.2867
     94  CB         4.1160   50.6320   34.9430 C.3    88  PHE88       0.0534
     95  CG         3.5050   50.8920   36.2960 C.ar   88  PHE88      -0.0203
     96  CD1        4.2680   51.4830   37.2890 C.ar   88  PHE88      -0.0042
     97  CD2        2.1700   50.6370   36.5440 C.ar   88  PHE88      -0.0042
     98  CE1        3.7220   51.8130   38.5370 C.ar   88  PHE88      -0.0003
     99  CE2        1.5910   50.9560   37.8010 C.ar   88  PHE88      -0.0003
    100  CZ         2.3850   51.5560   38.7880 C.ar   88  PHE88      -0.0000
    101  N          5.0000   56.3150   32.8420 N.3    91  LEU91      -0.1231
    102  CA         5.5840   56.9420   34.0040 C.3    91  LEU91       0.1678
    103  C          7.1220   57.0940   33.9280 C.2    91  LEU91       0.2434
    104  O          7.6270   58.2110   33.9900 O.2    91  LEU91      -0.2733
    105  CB         5.0730   56.2400   35.2740 C.3    91  LEU91       0.0284
    106  CG         5.5610   56.6830   36.6370 C.3    91  LEU91       0.0019
    107  CD1        5.3770   58.1780   36.9280 C.3    91  LEU91       0.0001
    108  CD2        4.8490   55.8000   37.6540 C.3    91  LEU91       0.0001
    109  N          7.8540   55.9740   33.6950 N.am   92  PRO92      -0.2729
    110  CA         9.2910   56.1310   33.6010 C.3    92  PRO92       0.1401
    111  C          9.7380   56.8330   32.3400 C.2    92  PRO92       0.2269
    112  O         10.7410   57.5590   32.3840 O.2    92  PRO92      -0.2865
    113  CB         9.8360   54.7040   33.6980 C.3    92  PRO92       0.0296
    114  CG         8.6740   53.8080   33.2950 C.3    92  PRO92       0.0237
    115  CD         7.4520   54.5610   33.7730 C.3    92  PRO92       0.0939
    116  N          9.6520   60.3860   33.1080 N.3    95  GLY95      -0.1210
    117  CA        10.8310   60.5950   33.9350 C.3    95  GLY95       0.1956
    118  C         12.0840   60.8560   33.1030 C.2    95  GLY95       0.2611
    119  O         12.8190   61.8330   33.3300 O.2    95  GLY95      -0.2717
    120  N         12.3520   59.9460   32.1810 N.am   96  LEU96      -0.1979
    121  CA        13.4950   60.0400   31.3080 C.3    96  LEU96       0.1596
    122  C         13.5200   61.3490   30.5000 C.2    96  LEU96       0.2287
    123  O         14.5690   61.9700   30.3680 O.2    96  LEU96      -0.2864
    124  CB        13.5290   58.8690   30.3160 C.3    96  LEU96       0.0297
    125  CG        14.0660   57.5420   30.8170 C.3    96  LEU96       0.0022
    126  CD1       13.6830   56.4450   29.7950 C.3    96  LEU96       0.0001
    127  CD2       15.5600   57.5970   31.0140 C.3    96  LEU96       0.0001
    128  N         15.9480   68.6880   31.4090 N.3   100  ARG100     -0.1245
    129  CA        16.5780   69.5070   32.4240 C.3   100  ARG100      0.1563
    130  C         17.9390   70.0270   32.0140 C.2   100  ARG100      0.2260
    131  O         18.4050   70.9630   32.6230 O.2   100  ARG100     -0.2867
    132  CB        16.6880   68.7700   33.7650 C.3   100  ARG100      0.0307
    133  CG        15.4090   68.8790   34.5500 C.3   100  ARG100      0.0489
    134  CD        15.5640   68.1540   35.8720 C.3   100  ARG100      0.2205
    135  NE        14.3180   68.1190   36.6070 N.pl3 100  ARG100     -0.0865
    136  CZ        14.1750   67.6150   37.8330 C.cat 100  ARG100      0.5346
    137  NH1       15.2150   67.0840   38.4820 N.pl3 100  ARG100      0.1354
    138  NH2       12.9710   67.6410   38.4120 N.pl3 100  ARG100      0.1354
    139  N         23.3950   63.7090   34.6060 N.3   104  TRP104     -0.1241
    140  CA        22.7160   62.8650   35.5730 C.3   104  TRP104      0.1605
    141  C         23.1560   61.4390   35.4110 C.2   104  TRP104      0.2264
    142  O         23.7680   61.0810   34.3990 O.2   104  TRP104     -0.2867
    143  CB        21.2040   63.0140   35.4950 C.3   104  TRP104      0.0550
    144  CG        20.5800   62.5370   34.1860 C.ar  104  TRP104      0.0003
    145  CD1       20.6280   63.1630   32.9710 C.ar  104  TRP104      0.0946
    146  CD2       19.8030   61.3610   33.9930 C.ar  104  TRP104      0.0152
    147  NE1       19.9350   62.4640   32.0470 N.ar  104  TRP104     -0.2442
    148  CE2       19.4230   61.3370   32.6290 C.ar  104  TRP104      0.0810
    149  CE3       19.4070   60.3200   34.8250 C.ar  104  TRP104      0.0012
    150  CZ2       18.6430   60.3250   32.0840 C.ar  104  TRP104      0.0191
    151  CZ3       18.6180   59.3090   34.2740 C.ar  104  TRP104      0.0001
    152  CH2       18.2720   59.3130   32.9050 C.ar  104  TRP104      0.0015
    153  N          7.1390   67.1660   34.9000 N.3   125  LYS125     -0.1245
    154  CA         7.1230   67.0090   36.3510 C.3   125  LYS125      0.1561
    155  C          5.7070   66.8540   36.8790 C.2   125  LYS125      0.2260
    156  O          5.4200   65.9890   37.6890 O.2   125  LYS125     -0.2867
    157  CB         7.7820   68.2120   37.0030 C.3   125  LYS125      0.0271
    158  CG         7.7640   68.1830   38.5150 C.3   125  LYS125      0.0035
    159  CD         8.6950   69.2430   39.0730 C.3   125  LYS125      0.0206
    160  CE         8.5110   69.2900   40.5780 C.3   125  LYS125      0.1093
    161  NZ         9.4050   70.3560   41.0980 N.3   125  LYS125     -0.1314
    162  N          4.5070   63.3650   35.7050 N.3   128  HIS128     -0.1226
    163  CA         5.1500   62.2980   36.4290 C.3   128  HIS128      0.1752
    164  C          4.4690   62.1020   37.8020 C.2   128  HIS128      0.2595
    165  O          4.1210   60.9720   38.2050 O.2   128  HIS128     -0.2718
    166  CB         6.6040   62.6130   36.5480 C.3   128  HIS128      0.0759
    167  CG         7.4370   61.4720   36.9810 C.ar  128  HIS128      0.0818
    168  ND1        7.6650   60.3570   36.2110 N.ar  128  HIS128     -0.2268
    169  CD2        8.0940   61.2790   38.1380 C.ar  128  HIS128      0.1154
    170  CE1        8.5130   59.5720   36.8460 C.ar  128  HIS128      0.1986
    171  NE2        8.7640   60.1100   38.0340 N.ar  128  HIS128     -0.2212
    172  N          4.2210   63.2150   38.4660 N.am  129  GLU129     -0.1979
    173  CA         3.5550   63.1980   39.7510 C.3   129  GLU129      0.1602
    174  C          2.1450   62.6230   39.6810 C.2   129  GLU129      0.2287
    175  O          1.7910   61.7640   40.4500 O.2   129  GLU129     -0.2864
    176  CB         3.5590   64.5950   40.3530 C.3   129  GLU129      0.0415
    177  CG         2.7940   64.7080   41.6380 C.3   129  GLU129      0.1163
    178  CD         2.9140   66.1030   42.2550 C.2   129  GLU129      0.3649
    179  OE1        3.5020   67.0480   41.6230 O.co2 129  GLU129     -0.2457
    180  OE2        2.3900   66.2410   43.3610 O.co2 129  GLU129     -0.2457
    181  N          2.3780   58.8840   38.8930 N.3   132  ALA132     -0.1231
    182  CA         2.9200   58.1430   40.0730 C.3   132  ALA132      0.1694
    183  C          1.8330   57.9610   41.1400 C.2   132  ALA132      0.2592
    184  O          1.6860   56.8590   41.7340 O.2   132  ALA132     -0.2718
    185  CB         4.0960   58.8700   40.6480 C.3   132  ALA132      0.0304
    186  N          1.0370   59.0130   41.3310 N.am  133  ASN133     -0.1974
    187  CA        -0.1250   58.9340   42.1950 C.3   133  ASN133      0.1688
    188  C         -1.2150   58.0200   41.6650 C.2   133  ASN133      0.2292
    189  O         -1.8100   57.2760   42.4450 O.2   133  ASN133     -0.2864
    190  CB        -0.7070   60.3070   42.4330 C.3   133  ASN133      0.1181
    191  CG         0.1140   61.0870   43.4070 C.2   133  ASN133      0.2629
    192  OD1        0.7450   60.5030   44.3210 O.2   133  ASN133     -0.2716
    193  ND2        0.1080   62.4180   43.2600 N.am  133  ASN133     -0.0877
    194  N         -0.2480   54.2940   42.5150 N.3   136  TYR136     -0.1241
    195  CA        -0.6250   53.7820   43.8280 C.3   136  TYR136      0.1605
    196  C         -2.0080   53.1840   43.7900 C.2   136  TYR136      0.2264
    197  O         -2.2230   52.1270   44.3330 O.2   136  TYR136     -0.2867
    198  CB        -0.6100   54.8840   44.9230 C.3   136  TYR136      0.0534
    199  CG         0.7620   55.2480   45.4820 C.ar  136  TYR136     -0.0201
    200  CD1        1.6310   54.2490   45.9180 C.ar  136  TYR136     -0.0009
    201  CD2        1.1760   56.6160   45.6220 C.ar  136  TYR136     -0.0009
    202  CE1        2.8790   54.5690   46.4450 C.ar  136  TYR136      0.0417
    203  CE2        2.4280   56.9780   46.2130 C.ar  136  TYR136      0.0417
    204  CZ         3.2660   55.9430   46.6330 C.ar  136  TYR136      0.1957
    205  OH         4.4950   56.2100   47.1990 O.3   136  TYR136     -0.2866
@<TRIPOS>BOND
     1   126   125    1
     2   124   125    1
     3   124   121    1
     4   123   122    2
     5   122   121    1
     6   125   127    1
     7   121   120    1
     8   128   129    1
     9   130   129    1
    10   130   131    2
    11   147   148   ar
    12   147   145   ar
    13   150   148   ar
    14   150   152   ar
    15   120   118   am
    16   111   112    2
    17   111   110    1
    18   129   132    1
    19    80    78    1
    20   148   146   ar
    21   101   102    1
    22   152   151   ar
    23   145   144   ar
    24    92    93    2
    25    92    91    1
    26    77    76    2
    27   118   119    2
    28   118   117    1
    29   116   117    1
    30   114   113    1
    31   114   115    1
    32    79    81    1
    33    79    78    1
    34    90    91    1
    35   110   109    1
    36   110   113    1
    37   109   115    1
    38   109   103   am
    39    85    84    2
    40   132   133    1
    41    78    75    1
    42   103   104    2
    43   103   102    1
    44   146   144   ar
    45   146   149   ar
    46   102   105    1
    47    91    94    1
    48    76    75    1
    49    75    74    1
    50   144   143    1
    51    84    83    1
    52   151   149   ar
    53   142   141    2
    54   133   134    1
    55   139   140    1
    56   153   154    1
    57    94    95    1
    58    73    72    2
    59   105   106    1
    60   141   140    1
    61    74    72   am
    62   143   140    1
    63    83    82    1
    64    83    86    1
    65   162   163    1
    66    72    71    1
    67   134   135    1
    68    88    86    1
    69   168   170   ar
    70   168   167   ar
    71    95    97   ar
    72    95    96   ar
    73   154   155    1
    74   154   157    1
    75   163   166    1
    76   163   164    1
    77    97    99   ar
    78    86    87    1
    79   166   167    1
    80   135   136    2
    81   106   107    1
    82   106   108    1
    83    66    65    2
    84   170   171   ar
    85   155   156    2
    86   167   169   ar
    87   157   158    1
    88    71    70    1
    89    96    98   ar
    90    67    69    1
    91    67    68    1
    92    67    64    1
    93    99   100   ar
    94   164   165    2
    95   164   172   am
    96   136   138    1
    97   136   137    1
    98    65    64    1
    99   171   169   ar
   100    87    89    1
   101    64    63    1
   102   172   173    1
   103   158   159    1
   104    98   100   ar
   105   181   182    1
   106   159   160    1
   107   174   173    1
   108   174   175    2
   109   173   176    1
   110    63    55   am
   111    56    55    2
   112   182   185    1
   113   182   183    1
   114     7     5    1
   115   176   177    1
   116    55    54    1
   117   160   161    1
   118    62    60   ar
   119    62    61   ar
   120    60    58   ar
   121   183   186   am
   122   183   184    2
   123    48    47    2
   124   186   187    1
   125   179   178   ar
   126   177   178    1
   127   188   187    1
   128   188   189    2
   129    24    23    1
   130     5     2    1
   131     5     6    1
   132    61    59   ar
   133    58    57    1
   134    58    59   ar
   135    54    57    1
   136    54    53    1
   137    12     9    1
   138     1     2    1
   139    47    46    1
   140     2     3    1
   141   187   190    1
   142   178   180   ar
   143   190   191    1
   144   194   195    1
   145    49    46    1
   146    49    50    1
   147    23    22   ar
   148    23    21   ar
   149    22    20   ar
   150    46    45    1
   151   193   191   am
   152    50    52   am
   153    50    51    2
   154    21    19   ar
   155     9     8    1
   156     9    10    1
   157   191   192    2
   158     3     4    2
   159   196   195    1
   160   196   197    2
   161   195   198    1
   162    20    18   ar
   163    10    11    2
   164    10    13   am
   165    43    42    1
   166    19    18   ar
   167    13    14    1
   168    18    17    1
   169   198   199    1
   170    44    42    1
   171    42    41    2
   172    14    17    1
   173    14    15    1
   174   199   201   ar
   175   199   200   ar
   176   201   203   ar
   177   200   202   ar
   178   203   204   ar
   179   202   204   ar
   180    41    40    1
   181   204   205    1
   182    15    16    2
   183    40    39    1
   184    33    31   ar
   185    39    38    1
   186    25    26    1
   187    31    30    1
   188    31    32   ar
   189    38    35    1
   190    30    29    1
   191    26    29    1
   192    26    27    1
   193    35    34    1
   194    35    36    1
   195    27    28    2
   196    36    37    2
