@<TRIPOS>MOLECULE
tmp/5oc1A00.pdb
 124 119 0 0 0
SMALL
GASTEIGER

@<TRIPOS>ATOM
      1  N        -66.0820   13.8900    8.7640 N.3    90  HIS90      -0.1226
      2  CA       -66.5460   15.1170    9.4610 C.3    90  HIS90       0.1752
      3  C        -66.1100   16.4370    8.7760 C.2    90  HIS90       0.2596
      4  O        -65.4140   16.4040    7.7320 O.2    90  HIS90      -0.2718
      5  CB       -66.2770   15.0790   10.9830 C.3    90  HIS90       0.0759
      6  CG       -64.8330   15.1190   11.3750 C.ar   90  HIS90       0.0818
      7  ND1      -63.8270   15.5150   10.5200 N.ar   90  HIS90      -0.2268
      8  CD2      -64.2380   14.8560   12.5590 C.ar   90  HIS90       0.1154
      9  CE1      -62.6670   15.4630   11.1530 C.ar   90  HIS90       0.1986
     10  NE2      -62.8920   15.0700   12.3950 N.ar   90  HIS90      -0.2212
     11  N        -66.5330   17.5770    9.3370 N.am   91  TYR91      -0.1976
     12  CA       -66.2350   18.8740    8.7210 C.3    91  TYR91       0.1639
     13  C        -65.0060   19.5330    9.3510 C.2    91  TYR91       0.2290
     14  O        -64.7390   20.7230    9.1250 O.2    91  TYR91      -0.2864
     15  CB       -67.4550   19.8120    8.7100 C.3    91  TYR91       0.0560
     16  CG       -68.7190   19.2370    8.0890 C.ar   91  TYR91      -0.0198
     17  CD1      -68.6830   18.1310    7.2000 C.ar   91  TYR91      -0.0009
     18  CD2      -69.9560   19.8070    8.3750 C.ar   91  TYR91      -0.0009
     19  CE1      -69.8400   17.6080    6.6420 C.ar   91  TYR91       0.0417
     20  CE2      -71.1260   19.2970    7.8180 C.ar   91  TYR91       0.0417
     21  CZ       -71.0600   18.2060    6.9450 C.ar   91  TYR91       0.1957
     22  OH       -72.2280   17.7090    6.4110 O.3    91  TYR91      -0.2866
     23  N        -63.9040   20.8400   12.0420 N.3    93  VAL93      -0.1245
     24  CA       -63.8620   21.8850   13.0750 C.3    93  VAL93       0.1561
     25  C        -63.3030   21.2980   14.3920 C.2    93  VAL93       0.2260
     26  O        -63.7030   20.1990   14.7960 O.2    93  VAL93      -0.2867
     27  CB       -65.2520   22.5350   13.2880 C.3    93  VAL93       0.0252
     28  CG1      -65.1810   23.6540   14.3290 C.3    93  VAL93       0.0019
     29  CG2      -65.7750   23.1100   11.9700 C.3    93  VAL93       0.0019
     30  N        -79.6240   20.5500   15.0680 N.3   314  LEU314     -0.1245
     31  CA       -79.1870   21.5180   14.0850 C.3   314  LEU314      0.1561
     32  C        -80.3650   22.3060   13.5490 C.2   314  LEU314      0.2260
     33  O        -81.4390   21.7380   13.3160 O.2   314  LEU314     -0.2867
     34  CB       -78.4400   20.8240   12.9460 C.3   314  LEU314      0.0270
     35  CG       -77.8640   21.6410   11.7880 C.3   314  LEU314      0.0019
     36  CD1      -76.5980   20.9920   11.2550 C.3   314  LEU314      0.0001
     37  CD2      -78.8670   21.7920   10.6600 C.3   314  LEU314      0.0001
     38  N        -66.2820   24.6070    6.0080 N.3   356  ILE356     -0.1245
     39  CA       -67.7050   24.8680    6.0430 C.3   356  ILE356      0.1561
     40  C        -68.0480   26.2760    6.6130 C.2   356  ILE356      0.2260
     41  O        -69.0600   26.8940    6.2180 O.2   356  ILE356     -0.2867
     42  CB       -68.4500   23.7300    6.7850 C.3   356  ILE356      0.0252
     43  CG1      -69.9760   23.8280    6.5890 C.3   356  ILE356      0.0019
     44  CG2      -68.0750   23.6780    8.2740 C.3   356  ILE356      0.0019
     45  CD1      -70.4590   23.8590    5.1340 C.3   356  ILE356      0.0001
     46  N        -67.4300   31.1160   14.1180 N.3   360  LEU360     -0.1245
     47  CA       -68.4820   30.4880   14.9240 C.3   360  LEU360      0.1561
     48  C        -68.8220   31.4170   16.0870 C.2   360  LEU360      0.2260
     49  O        -67.9140   31.9900   16.6950 O.2   360  LEU360     -0.2867
     50  CB       -67.9770   29.1480   15.4990 C.3   360  LEU360      0.0270
     51  CG       -67.1990   28.1770   14.5960 C.3   360  LEU360      0.0019
     52  CD1      -66.4940   27.1340   15.4460 C.3   360  LEU360      0.0001
     53  CD2      -68.1170   27.5280   13.5640 C.3   360  LEU360      0.0001
     54  N        -73.3190   29.3800   13.1670 N.3   390  ILE390     -0.1245
     55  CA       -72.2520   29.0530   12.2470 C.3   390  ILE390      0.1561
     56  C        -72.5650   29.7710   10.9370 C.2   390  ILE390      0.2260
     57  O        -73.7000   29.7020   10.4350 O.2   390  ILE390     -0.2867
     58  CB       -72.1650   27.5210   12.0670 C.3   390  ILE390      0.0252
     59  CG1      -71.9300   26.8430   13.4320 C.3   390  ILE390      0.0019
     60  CG2      -71.0680   27.1100   11.0970 C.3   390  ILE390      0.0019
     61  CD1      -72.1430   25.3350   13.4250 C.3   390  ILE390      0.0001
     62  N        -71.7230   30.2550    7.0100 N.3   392  SER392     -0.1217
     63  CA       -71.1410   29.5520    5.8590 C.3   392  SER392      0.1889
     64  C        -71.3010   30.3130    4.5500 C.2   392  SER392      0.2288
     65  O        -72.3720   30.8250    4.2560 O.2   392  SER392     -0.2866
     66  CB       -71.7620   28.1410    5.7150 C.3   392  SER392      0.2089
     67  OG       -71.5850   27.3910    6.9180 O.3   392  SER392     -0.2183
     68  N        -76.2190   25.6020    2.8550 N.3   396  PHE396     -0.1241
     69  CA       -76.0180   24.4280    3.6890 C.3   396  PHE396      0.1605
     70  C        -77.3210   24.0190    4.3390 C.2   396  PHE396      0.2264
     71  O        -77.8690   24.7660    5.1540 O.2   396  PHE396     -0.2867
     72  CB       -74.9360   24.6160    4.7730 C.3   396  PHE396      0.0534
     73  CG       -74.7960   23.4050    5.6760 C.ar  396  PHE396     -0.0203
     74  CD1      -74.0410   22.2950    5.2690 C.ar  396  PHE396     -0.0042
     75  CD2      -75.4900   23.3340    6.8990 C.ar  396  PHE396     -0.0042
     76  CE1      -73.9510   21.1530    6.0740 C.ar  396  PHE396     -0.0003
     77  CE2      -75.4020   22.1960    7.7000 C.ar  396  PHE396     -0.0003
     78  CZ       -74.6370   21.0990    7.2840 C.ar  396  PHE396     -0.0000
     79  N        -76.3700   28.5730   10.5000 N.3   412  THR412     -0.1218
     80  CA       -76.7550   27.2950   11.0890 C.3   412  THR412      0.1862
     81  C        -76.6200   27.3740   12.6030 C.2   412  THR412      0.2287
     82  O        -75.5660   27.7540   13.0910 O.2   412  THR412     -0.2866
     83  CB       -75.8490   26.1620   10.5430 C.3   412  THR412      0.1770
     84  OG1      -75.8410   26.1950    9.1120 O.3   412  THR412     -0.2211
     85  CG2      -76.2990   24.7970   11.0220 C.3   412  THR412      0.0375
     86  N        -76.6060   17.9900   14.1800 N.3   499  ILE499     -0.1231
     87  CA       -75.2390   18.4260   13.8110 C.3   499  ILE499      0.1692
     88  C        -74.2250   17.3280   14.1660 C.2   499  ILE499      0.2592
     89  O        -73.0070   17.5550   14.2200 O.2   499  ILE499     -0.2718
     90  CB       -74.8780   19.8500   14.3520 C.3   499  ILE499      0.0266
     91  CG1      -73.6790   20.4250   13.5850 C.3   499  ILE499      0.0019
     92  CG2      -74.6030   19.8210   15.8530 C.3   499  ILE499      0.0020
     93  CD1      -73.4900   21.9450   13.6780 C.3   499  ILE499      0.0001
     94  N        -74.7320   16.1170   14.3880 N.am  500  PHE500     -0.1962
     95  CA       -73.8950   14.9090   14.2940 C.3   500  PHE500      0.1771
     96  C        -72.9390   14.7400   15.4690 C.2   500  PHE500      0.2619
     97  O        -71.8400   14.1990   15.2980 O.2   500  PHE500     -0.2715
     98  CB       -73.0800   14.9140   12.9820 C.3   500  PHE500      0.0574
     99  CG       -73.8360   15.4080   11.7620 C.ar  500  PHE500     -0.0200
    100  CD1      -75.0140   14.7690   11.3180 C.ar  500  PHE500     -0.0042
    101  CD2      -73.3620   16.5150   11.0360 C.ar  500  PHE500     -0.0042
    102  CE1      -75.6990   15.2320   10.1930 C.ar  500  PHE500     -0.0003
    103  CE2      -74.0370   16.9770    9.9030 C.ar  500  PHE500     -0.0003
    104  CZ       -75.2100   16.3360    9.4790 C.ar  500  PHE500     -0.0000
    105  N        -73.3660   15.1560   16.6650 N.am  501  HIS501     -0.1973
    106  CA       -72.5000   15.1140   17.8670 C.3   501  HIS501      0.1656
    107  C        -73.0790   14.2380   18.9970 C.2   501  HIS501      0.2291
    108  O        -73.1610   14.7090   20.1480 O.2   501  HIS501     -0.2864
    109  CB       -72.2050   16.5580   18.3980 C.3   501  HIS501      0.0771
    110  CG       -71.5770   17.4810   17.3870 C.ar  501  HIS501      0.0820
    111  ND1      -71.6830   18.8580   17.4680 N.ar  501  HIS501     -0.2267
    112  CD2      -70.8310   17.2290   16.2790 C.ar  501  HIS501      0.1154
    113  CE1      -71.0540   19.4070   16.4420 C.ar  501  HIS501      0.1986
    114  NE2      -70.5140   18.4440   15.7120 N.ar  501  HIS501     -0.2212
    115  N        -67.9580   20.9440   19.0200 N.3   545  HIS545     -0.1241
    116  CA       -68.0690   19.8610   18.0600 C.3   545  HIS545      0.1621
    117  C        -67.2240   18.7350   18.6640 C.2   545  HIS545      0.2264
    118  O        -66.1830   19.0040   19.2860 O.2   545  HIS545     -0.2867
    119  CB       -67.5470   20.3270   16.7050 C.3   545  HIS545      0.0745
    120  CG       -68.2360   21.5540   16.1940 C.ar  545  HIS545      0.0817
    121  ND1      -68.7390   21.6520   14.9210 N.ar  545  HIS545     -0.2268
    122  CD2      -68.5220   22.7310   16.7960 C.ar  545  HIS545      0.1154
    123  CE1      -69.2870   22.8440   14.7540 C.ar  545  HIS545      0.1986
    124  NE2      -69.1740   23.5140   15.8820 N.ar  545  HIS545     -0.2212
@<TRIPOS>BOND
     1    68    69    1
     2    69    70    1
     3    69    72    1
     4    65    64    2
     5    70    71    2
     6    64    63    1
     7    72    73    1
     8    45    43    1
     9    74    73   ar
    10    74    76   ar
    11    73    75   ar
    12    66    63    1
    13    66    67    1
    14    63    62    1
    15    38    39    1
    16    39    40    1
    17    39    42    1
    18    76    78   ar
    19    41    40    2
    20    22    21    1
    21    43    42    1
    22    19    21   ar
    23    19    17   ar
    24    42    44    1
    25    75    77   ar
    26    21    20   ar
    27    17    16   ar
    28    78    77   ar
    29     4     3    2
    30    20    18   ar
    31    16    18   ar
    32    16    15    1
    33    15    12    1
    34    12    11    1
    35    12    13    1
    36     1     2    1
    37     3    11   am
    38     3     2    1
    39    84    83    1
    40    14    13    2
    41     2     5    1
    42   104   103   ar
    43   104   102   ar
    44   103   101   ar
    45   102   100   ar
    46    57    56    2
    47    79    80    1
    48     7     9   ar
    49     7     6   ar
    50    83    85    1
    51    83    80    1
    52    37    35    1
    53    56    55    1
    54     5     6    1
    55   101    99   ar
    56    80    81    1
    57    60    58    1
    58     9    10   ar
    59    36    35    1
    60   100    99   ar
    61     6     8   ar
    62    99    98    1
    63    35    34    1
    64    29    27    1
    65    23    24    1
    66    58    55    1
    67    58    59    1
    68    55    54    1
    69    10     8   ar
    70    81    82    2
    71    34    31    1
    72    98    95    1
    73    24    27    1
    74    24    25    1
    75    27    28    1
    76    33    32    2
    77    61    59    1
    78    32    31    1
    79    53    51    1
    80    91    93    1
    81    91    90    1
    82    87    88    1
    83    87    86    1
    84    87    90    1
    85    31    30    1
    86    46    47    1
    87    88    89    2
    88    88    94   am
    89    95    94    1
    90    95    96    1
    91    90    92    1
    92    25    26    2
    93    51    52    1
    94    51    50    1
    95   123   121   ar
    96   123   124   ar
    97   121   120   ar
    98    47    50    1
    99    47    48    1
   100    97    96    2
   101    96   105   am
   102   114   112   ar
   103   114   113   ar
   104   124   122   ar
   105    48    49    2
   106   120   119    1
   107   120   122   ar
   108   112   110   ar
   109   113   111   ar
   110   105   106    1
   111   119   116    1
   112   110   111   ar
   113   110   109    1
   114   106   109    1
   115   106   107    1
   116   116   117    1
   117   116   115    1
   118   117   118    2
   119   107   108    2
