@<TRIPOS>MOLECULE
tmp/5oc8A00.pdb
 195 188 0 0 0
SMALL
GASTEIGER

@<TRIPOS>ATOM
      1  N          4.1290    5.8560   -0.3570 N.3     6  GLN6       -0.1245
      2  CA         3.6340    6.0040    1.0150 C.3     6  GLN6        0.1566
      3  C          4.7010    5.7550    2.0790 C.2     6  GLN6        0.2260
      4  O          4.5640    6.1940    3.2250 O.2     6  GLN6       -0.2867
      5  CB         2.3950    5.1340    1.2440 C.3     6  GLN6        0.0367
      6  CG         1.2860    5.4200    0.2380 C.3     6  GLN6        0.0905
      7  CD        -0.0900    5.5450    0.8620 C.2     6  GLN6        0.2608
      8  OE1       -1.0430    4.9170    0.4050 O.2     6  GLN6       -0.2717
      9  NE2       -0.2070    6.3740    1.8990 N.am    6  GLN6       -0.0878
     10  N         -0.5810   12.0320    4.4670 N.3    36  LEU36      -0.1231
     11  CA        -1.8370   11.8950    3.7290 C.3    36  LEU36       0.1693
     12  C         -3.0060   11.6420    4.6710 C.2    36  LEU36       0.2592
     13  O         -4.0760   12.2470    4.5320 O.2    36  LEU36      -0.2718
     14  CB        -1.7480   10.7400    2.7290 C.3    36  LEU36       0.0284
     15  CG        -0.9040   10.9440    1.4790 C.3    36  LEU36       0.0019
     16  CD1       -0.6680    9.5990    0.8190 C.3    36  LEU36       0.0001
     17  CD2       -1.6130   11.8770    0.5290 C.3    36  LEU36       0.0001
     18  N         -2.8140   10.7270    5.6180 N.am   37  PHE37      -0.1976
     19  CA        -3.8950   10.4430    6.5490 C.3    37  PHE37       0.1639
     20  C         -4.3010   11.6620    7.3780 C.2    37  PHE37       0.2290
     21  O         -5.5040   11.9660    7.5040 O.2    37  PHE37      -0.2864
     22  CB        -3.5750    9.2790    7.4880 C.3    37  PHE37       0.0560
     23  CG        -4.5890    9.1310    8.6020 C.ar   37  PHE37      -0.0200
     24  CD1       -5.8140    8.5100    8.3550 C.ar   37  PHE37      -0.0042
     25  CD2       -4.3300    9.6410    9.8670 C.ar   37  PHE37      -0.0042
     26  CE1       -6.7570    8.3850    9.3780 C.ar   37  PHE37      -0.0003
     27  CE2       -5.2730    9.5280   10.8910 C.ar   37  PHE37      -0.0003
     28  CZ        -6.4820    8.8970   10.6350 C.ar   37  PHE37      -0.0000
     29  N         -3.6960   14.9230    6.8350 N.3    39  LEU39      -0.1231
     30  CA        -4.3250   15.9570    6.0050 C.3    39  LEU39       0.1693
     31  C         -5.7460   15.5620    5.6120 C.2    39  LEU39       0.2592
     32  O         -6.6270   16.4050    5.5770 O.2    39  LEU39      -0.2718
     33  CB        -3.5080   16.2460    4.7390 C.3    39  LEU39       0.0284
     34  CG        -2.2260   17.0430    4.9480 C.3    39  LEU39       0.0019
     35  CD1       -1.4470   17.0040    3.6480 C.3    39  LEU39       0.0001
     36  CD2       -2.5400   18.4630    5.3160 C.3    39  LEU39       0.0001
     37  N         -5.9540   14.2810    5.3060 N.am   40  GLY40      -0.1957
     38  CA        -7.2850   13.7630    4.9980 C.3    40  GLY40       0.1869
     39  C         -8.2120   13.9480    6.1890 C.2    40  GLY40       0.2309
     40  O         -9.3430   14.3970    6.0170 O.2    40  GLY40      -0.2863
     41  N         -9.2890   17.6320    6.5310 N.3    43  ILE43      -0.1231
     42  CA       -10.3400   17.9310    5.5530 C.3    43  ILE43       0.1692
     43  C        -11.6910   17.3810    6.0170 C.2    43  ILE43       0.2591
     44  O        -12.7090   18.0920    5.9860 O.2    43  ILE43      -0.2718
     45  CB        -9.9530   17.3290    4.1980 C.3    43  ILE43       0.0266
     46  CG1       -8.7660   18.1100    3.6260 C.3    43  ILE43       0.0019
     47  CG2      -11.1540   17.2830    3.2380 C.3    43  ILE43       0.0020
     48  CD1       -7.9810   17.3570    2.5290 C.3    43  ILE43       0.0001
     49  N        -11.6870   16.1370    6.4730 N.am   44  MET44      -0.1979
     50  CA       -12.9430   15.4970    6.8880 C.3    44  MET44       0.1605
     51  C        -13.5230   16.1560    8.1250 C.2    44  MET44       0.2287
     52  O        -14.7360   16.4390    8.1480 O.2    44  MET44      -0.2864
     53  CB       -12.7450   13.9960    7.1060 C.3    44  MET44       0.0413
     54  CG       -12.3800   13.2410    5.8200 C.3    44  MET44       0.0598
     55  SD       -13.4430   13.5040    4.4040 S.3    44  MET44      -0.1393
     56  CE       -14.9610   12.6800    4.9200 C.3    44  MET44       0.0692
     57  N        -15.0480   19.6550    2.3700 N.3    49  TYR49      -0.1241
     58  CA       -15.7270   19.1440    1.1940 C.3    49  TYR49       0.1605
     59  C        -17.2140   19.4270    1.3660 C.2    49  TYR49       0.2264
     60  O        -17.7000   19.5870    2.4910 O.2    49  TYR49      -0.2867
     61  CB       -15.5180   17.6290    1.0890 C.3    49  TYR49       0.0534
     62  CG       -16.2070   16.8910    2.2140 C.ar   49  TYR49      -0.0201
     63  CD1      -17.5230   16.4280    2.0630 C.ar   49  TYR49      -0.0009
     64  CD2      -15.5860   16.7210    3.4550 C.ar   49  TYR49      -0.0009
     65  CE1      -18.1770   15.7950    3.1110 C.ar   49  TYR49       0.0417
     66  CE2      -16.2330   16.0790    4.5010 C.ar   49  TYR49       0.0417
     67  CZ       -17.5280   15.6190    4.3190 C.ar   49  TYR49       0.1957
     68  OH       -18.1630   14.9830    5.3540 O.3    49  TYR49      -0.2866
     69  N        -21.0310   17.9280    1.0070 N.3    51  GLU51      -0.1245
     70  CA       -21.7590   16.6600    1.0200 C.3    51  GLU51       0.1567
     71  C        -22.4660   16.3890   -0.3030 C.2    51  GLU51       0.2260
     72  O        -22.7200   15.2370   -0.6500 O.2    51  GLU51      -0.2867
     73  CB       -22.7780   16.6410    2.1630 C.3    51  GLU51       0.0388
     74  CG       -22.9490   15.2850    2.8060 C.3    51  GLU51       0.1160
     75  CD       -21.7770   14.9180    3.7080 C.2    51  GLU51       0.3649
     76  OE1      -21.5760   15.6020    4.7340 O.co2  51  GLU51      -0.2457
     77  OE2      -21.0610   13.9450    3.3940 O.co2  51  GLU51      -0.2457
     78  N        -18.8620   15.4290   -3.1830 N.3    54  GLN54      -0.1231
     79  CA       -17.9090   14.9340   -2.1830 C.3    54  GLN54       0.1698
     80  C        -16.4620   14.6940   -2.6410 C.2    54  GLN54       0.2592
     81  O        -15.6010   14.3980   -1.8060 O.2    54  GLN54      -0.2718
     82  CB       -18.4620   13.6780   -1.5000 C.3    54  GLN54       0.0381
     83  CG       -19.6660   13.9550   -0.5920 C.3    54  GLN54       0.0905
     84  CD       -20.2300   12.7130    0.0760 C.2    54  GLN54       0.2608
     85  OE1      -19.6680   11.6200   -0.0210 O.2    54  GLN54      -0.2717
     86  NE2      -21.3550   12.8780    0.7640 N.am   54  GLN54      -0.0878
     87  N        -16.1970   14.8150   -3.9400 N.am   55  HIS55      -0.1962
     88  CA       -14.8240   14.6840   -4.4490 C.3    55  HIS55       0.1787
     89  C        -14.0450   15.9980   -4.3800 C.2    55  HIS55       0.2620
     90  O        -12.8180   15.9970   -4.5110 O.2    55  HIS55      -0.2715
     91  CB       -14.7920   14.1680   -5.8890 C.3    55  HIS55       0.0785
     92  CG       -15.3650   12.7970   -6.0640 C.ar   55  HIS55       0.0821
     93  ND1      -15.5810   12.2440   -7.3080 N.ar   55  HIS55      -0.2267
     94  CD2      -15.7810   11.8750   -5.1630 C.ar   55  HIS55       0.1154
     95  CE1      -16.1010   11.0380   -7.1650 C.ar   55  HIS55       0.1986
     96  NE2      -16.2290   10.7870   -5.8740 N.ar   55  HIS55      -0.2212
     97  N        -14.7540   17.1140   -4.1990 N.am   56  ILE56      -0.1963
     98  CA       -14.1150   18.4260   -4.2550 C.3    56  ILE56       0.1727
     99  C        -13.9200   19.0070   -2.8640 C.2    56  ILE56       0.2616
    100  O        -14.8520   19.0590   -2.0560 O.2    56  ILE56      -0.2715
    101  CB       -14.8620   19.4440   -5.1710 C.3    56  ILE56       0.0290
    102  CG1      -15.1570   18.8350   -6.5510 C.3    56  ILE56       0.0022
    103  CG2      -14.0580   20.7370   -5.3310 C.3    56  ILE56       0.0023
    104  CD1      -13.9330   18.2970   -7.2920 C.3    56  ILE56       0.0001
    105  N        -12.6840   19.4220   -2.6120 N.am   57  VAL57      -0.1977
    106  CA       -12.3000   20.0800   -1.3730 C.3    57  VAL57       0.1596
    107  C        -12.1770   21.5640   -1.6980 C.2    57  VAL57       0.2287
    108  O        -11.4930   21.9500   -2.6540 O.2    57  VAL57      -0.2864
    109  CB       -10.9480   19.5410   -0.8390 C.3    57  VAL57       0.0276
    110  CG1      -10.4730   20.3610    0.3790 C.3    57  VAL57       0.0022
    111  CG2      -11.0530   18.0720   -0.4690 C.3    57  VAL57       0.0022
    112  N         -5.4490   25.4540    4.6390 N.3    64  LEU64      -0.1245
    113  CA        -5.1110   24.4140    3.6720 C.3    64  LEU64       0.1561
    114  C         -4.9040   25.0320    2.2910 C.2    64  LEU64       0.2260
    115  O         -4.0220   24.5920    1.5620 O.2    64  LEU64      -0.2867
    116  CB        -6.1790   23.3270    3.6240 C.3    64  LEU64       0.0270
    117  CG        -5.9450   22.1900    2.6110 C.3    64  LEU64       0.0019
    118  CD1       -4.6480   21.4470    2.8830 C.3    64  LEU64       0.0001
    119  CD2       -7.1160   21.2420    2.6490 C.3    64  LEU64       0.0001
    120  N         -1.5810   24.6130   -0.0560 N.3    68  PHE68      -0.1241
    121  CA        -1.6370   23.9620   -1.3690 C.3    68  PHE68       0.1605
    122  C         -1.5830   24.9290   -2.5390 C.2    68  PHE68       0.2264
    123  O         -1.2810   24.5210   -3.6670 O.2    68  PHE68      -0.2867
    124  CB        -2.9060   23.1290   -1.4460 C.3    68  PHE68       0.0534
    125  CG        -2.7770   21.7690   -0.8340 C.ar   68  PHE68      -0.0203
    126  CD1       -1.6600   21.4080   -0.0600 C.ar   68  PHE68      -0.0042
    127  CD2       -3.7950   20.8480   -1.0120 C.ar   68  PHE68      -0.0042
    128  CE1       -1.5640   20.1400    0.4980 C.ar   68  PHE68      -0.0003
    129  CE2       -3.7110   19.5690   -0.4560 C.ar   68  PHE68      -0.0003
    130  CZ        -2.5880   19.2140    0.2940 C.ar   68  PHE68      -0.0000
    131  N         -9.6350   21.6290   -5.0150 N.3    73  PHE73      -0.1241
    132  CA        -9.0100   20.5390   -5.7420 C.3    73  PHE73       0.1605
    133  C         -9.8580   19.2950   -5.5800 C.2    73  PHE73       0.2264
    134  O        -10.7090   19.2180   -4.6960 O.2    73  PHE73      -0.2867
    135  CB        -7.5690   20.3100   -5.2520 C.3    73  PHE73       0.0534
    136  CG        -7.4770   19.8430   -3.8240 C.ar   73  PHE73      -0.0203
    137  CD1       -7.4890   18.4880   -3.5200 C.ar   73  PHE73      -0.0042
    138  CD2       -7.3710   20.7660   -2.7860 C.ar   73  PHE73      -0.0042
    139  CE1       -7.4050   18.0480   -2.2030 C.ar   73  PHE73      -0.0003
    140  CE2       -7.2970   20.3410   -1.4590 C.ar   73  PHE73      -0.0003
    141  CZ        -7.3080   18.9800   -1.1680 C.ar   73  PHE73      -0.0000
    142  N        -10.1160   15.2580   -4.7410 N.3    75  VAL75      -0.1231
    143  CA        -9.4430   14.1870   -4.0020 C.3    75  VAL75       0.1692
    144  C         -9.0070   13.0520   -4.9270 C.2    75  VAL75       0.2591
    145  O         -8.2110   12.2000   -4.5210 O.2    75  VAL75      -0.2718
    146  CB       -10.3030   13.6170   -2.8400 C.3    75  VAL75       0.0266
    147  CG1      -10.5780   14.6870   -1.7910 C.3    75  VAL75       0.0020
    148  CG2      -11.6170   12.9920   -3.3560 C.3    75  VAL75       0.0020
    149  N         -9.5220   13.0600   -6.1550 N.am   76  LYS76      -0.1980
    150  CA        -9.2060   12.0140   -7.1440 C.3    76  LYS76       0.1596
    151  C         -7.9520   12.3520   -7.9560 C.2    76  LYS76       0.2287
    152  O         -7.4150   11.4860   -8.6660 O.2    76  LYS76      -0.2864
    153  CB       -10.4030   11.7440   -8.0790 C.3    76  LYS76       0.0298
    154  CG       -11.7170   11.3800   -7.3830 C.3    76  LYS76       0.0038
    155  CD       -11.6010   10.1300   -6.5110 C.3    76  LYS76       0.0206
    156  CE       -12.9580    9.6740   -5.9740 C.3    76  LYS76       0.1093
    157  NZ       -12.8180    8.5130   -5.0450 N.3    76  LYS76      -0.1314
    158  N         -4.6680   12.5690   -7.6370 N.3    78  HIS78      -0.1241
    159  CA        -3.5810   12.1400   -6.7480 C.3    78  HIS78       0.1621
    160  C         -2.2050   12.6940   -7.0680 C.2    78  HIS78       0.2264
    161  O         -1.5050   13.1310   -6.1650 O.2    78  HIS78      -0.2867
    162  CB        -3.5400   10.6170   -6.6340 C.3    78  HIS78       0.0745
    163  CG        -4.6640   10.0530   -5.8230 C.ar   78  HIS78       0.0817
    164  ND1       -4.6770    8.7530   -5.3630 N.ar   78  HIS78      -0.2268
    165  CD2       -5.8030   10.6280   -5.3630 C.ar   78  HIS78       0.1154
    166  CE1       -5.7880    8.5430   -4.6760 C.ar   78  HIS78       0.1986
    167  NE2       -6.4850    9.6660   -4.6570 N.ar   78  HIS78      -0.2212
    168  N         -2.1440   16.1900   -5.8810 N.3    81  ILE81      -0.1231
    169  CA        -2.1060   16.2610   -4.4100 C.3    81  ILE81       0.1692
    170  C         -0.6840   16.0290   -3.8870 C.2    81  ILE81       0.2592
    171  O         -0.1970   16.7840   -3.0400 O.2    81  ILE81      -0.2718
    172  CB        -3.1410   15.3150   -3.7480 C.3    81  ILE81       0.0266
    173  CG1       -4.5610   15.8340   -4.0200 C.3    81  ILE81       0.0019
    174  CG2       -2.9390   15.2500   -2.2460 C.3    81  ILE81       0.0020
    175  CD1       -5.6520   14.7860   -3.8660 C.3    81  ILE81       0.0001
    176  N         -0.0020   15.0020   -4.4030 N.am   82  TYR82      -0.1976
    177  CA         1.3740   14.7400   -3.9970 C.3    82  TYR82       0.1639
    178  C          2.2810   15.9260   -4.2540 C.2    82  TYR82       0.2290
    179  O          3.0760   16.2860   -3.3990 O.2    82  TYR82      -0.2864
    180  CB         1.9310   13.4690   -4.6510 C.3    82  TYR82       0.0560
    181  CG         1.4160   12.2220   -3.9920 C.ar   82  TYR82      -0.0198
    182  CD1        0.6150   11.3330   -4.6960 C.ar   82  TYR82      -0.0009
    183  CD2        1.7150   11.9330   -2.6570 C.ar   82  TYR82      -0.0009
    184  CE1        0.1260   10.1840   -4.1000 C.ar   82  TYR82       0.0417
    185  CE2        1.2180   10.7910   -2.0430 C.ar   82  TYR82       0.0417
    186  CZ         0.4260    9.9200   -2.7780 C.ar   82  TYR82       0.1957
    187  OH        -0.0680    8.7720   -2.2000 O.3    82  TYR82      -0.2866
    188  N          1.5160   18.6530   -1.6860 N.3    85  ILE85      -0.1245
    189  CA         2.0840   18.2470   -0.4060 C.3    85  ILE85       0.1561
    190  C          3.6070   18.3830   -0.4030 C.2    85  ILE85       0.2260
    191  O          4.1710   18.9290    0.5480 O.2    85  ILE85      -0.2867
    192  CB         1.6520   16.8030   -0.0230 C.3    85  ILE85       0.0252
    193  CG1        0.1440   16.7610    0.2270 C.3    85  ILE85       0.0019
    194  CG2        2.4000   16.3070    1.1960 C.3    85  ILE85       0.0019
    195  CD1       -0.3860   15.3690    0.4350 C.3    85  ILE85       0.0001
@<TRIPOS>BOND
     1   152   151    2
     2   153   154    1
     3   153   150    1
     4   151   150    1
     5   158   159    1
     6   154   155    1
     7    93    95   ar
     8    93    92   ar
     9   104   102    1
    10    95    96   ar
    11   150   149    1
    12   160   159    1
    13   160   161    2
    14   159   162    1
    15   162   163    1
    16   102   101    1
    17   155   156    1
    18   149   144   am
    19    92    91    1
    20    92    94   ar
    21   156   157    1
    22    91    88    1
    23   168   169    1
    24    96    94   ar
    25   163   165   ar
    26   163   164   ar
    27   132   133    1
    28   132   135    1
    29   132   131    1
    30   133   134    2
    31   165   167   ar
    32   164   166   ar
    33   103   101    1
    34   135   136    1
    35   101    98    1
    36   144   145    2
    37   144   143    1
    38   142   143    1
    39   182   184   ar
    40   182   181   ar
    41   166   167   ar
    42   180   177    1
    43   180   181    1
    44    90    89    2
    45    88    89    1
    46    88    87    1
    47   169   170    1
    48   169   172    1
    49   176   177    1
    50   176   170   am
    51    89    97   am
    52    98    97    1
    53    98    99    1
    54   178   177    1
    55   178   179    2
    56   184   186   ar
    57   173   175    1
    58   173   172    1
    59   143   146    1
    60   181   183   ar
    61    87    80   am
    62   170   171    2
    63   136   137   ar
    64   136   138   ar
    65   172   174    1
    66   123   122    2
    67   137   139   ar
    68   148   146    1
    69    78    79    1
    70    99   105   am
    71    99   100    2
    72   146   147    1
    73   138   140   ar
    74   186   187    1
    75   186   185   ar
    76   183   185   ar
    77   108   107    2
    78    80    79    1
    79    80    81    2
    80   105   106    1
    81   122   121    1
    82   139   141   ar
    83    79    82    1
    84   107   106    1
    85   188   189    1
    86    82    83    1
    87   140   141   ar
    88   124   121    1
    89   124   125    1
    90   106   109    1
    91   121   120    1
    92   127   125   ar
    93   127   129   ar
    94   109   111    1
    95   109   110    1
    96   125   126   ar
    97    72    71    2
    98    83    84    1
    99   129   130   ar
   100   189   190    1
   101   189   192    1
   102   190   191    2
   103     1     2    1
   104    71    70    1
   105   126   128   ar
   106   192   193    1
   107   192   194    1
   108    85    84    2
   109    84    86   am
   110   193   195    1
   111     6     7    1
   112     6     5    1
   113   130   128   ar
   114     8     7    2
   115    17    15    1
   116    16    15    1
   117     7     9   am
   118    69    70    1
   119     2     5    1
   120     2     3    1
   121    70    73    1
   122    61    58    1
   123    61    62    1
   124    58    59    1
   125    58    57    1
   126    59    60    2
   127    15    14    1
   128   115   114    2
   129    63    62   ar
   130    63    65   ar
   131     3     4    2
   132    73    74    1
   133    62    64   ar
   134   114   113    1
   135    48    46    1
   136   117   119    1
   137   117   118    1
   138   117   116    1
   139    14    11    1
   140    74    75    1
   141    65    67   ar
   142    47    45    1
   143    77    75   ar
   144    64    66   ar
   145   116   113    1
   146    46    45    1
   147    35    34    1
   148   113   112    1
   149    75    76   ar
   150    11    10    1
   151    11    12    1
   152    45    42    1
   153    67    66   ar
   154    67    68    1
   155    55    56    1
   156    55    54    1
   157    13    12    2
   158    12    18   am
   159    33    34    1
   160    33    30    1
   161    34    36    1
   162    38    37    1
   163    38    39    1
   164    37    31   am
   165    42    43    1
   166    42    41    1
   167    32    31    2
   168    31    30    1
   169    18    19    1
   170    54    53    1
   171    44    43    2
   172    30    29    1
   173    43    49   am
   174    40    39    2
   175    49    50    1
   176    19    20    1
   177    19    22    1
   178    50    53    1
   179    50    51    1
   180    20    21    2
   181    22    23    1
   182    51    52    2
   183    24    23   ar
   184    24    26   ar
   185    23    25   ar
   186    26    28   ar
   187    25    27   ar
   188    28    27   ar
