@<TRIPOS>MOLECULE
tmp/5oc9A04.pdb
 81 76 0 0 0
SMALL
GASTEIGER

@<TRIPOS>ATOM
      1  N         47.9090   90.5160   56.5130 N.3   373  LEU373     -0.1245
      2  CA        48.4670   91.7360   57.0960 C.3   373  LEU373      0.1561
      3  C         49.1890   92.6210   56.0640 C.2   373  LEU373      0.2260
      4  O         49.0160   93.8380   56.1120 O.2   373  LEU373     -0.2867
      5  CB        49.4180   91.3860   58.2560 C.3   373  LEU373      0.0270
      6  CG        49.7750   92.5120   59.2340 C.3   373  LEU373      0.0019
      7  CD1       48.5690   92.9490   60.0580 C.3   373  LEU373      0.0001
      8  CD2       50.8710   92.0760   60.1690 C.3   373  LEU373      0.0001
      9  N         46.4610   93.8120   53.3200 N.3   376  LEU376     -0.1231
     10  CA        45.4700   94.6320   54.0150 C.3   376  LEU376      0.1693
     11  C         45.9270   96.0750   54.2430 C.2   376  LEU376      0.2591
     12  O         45.1560   96.9810   53.9240 O.2   376  LEU376     -0.2718
     13  CB        45.0850   93.9940   55.3550 C.3   376  LEU376      0.0284
     14  CG        44.0670   94.7200   56.2210 C.3   376  LEU376      0.0019
     15  CD1       42.7220   94.8170   55.5350 C.3   376  LEU376      0.0001
     16  CD2       43.9270   94.0330   57.5270 C.3   376  LEU376      0.0001
     17  N         47.1470   96.2960   54.8020 N.am  377  VAL377     -0.1980
     18  CA        47.6730   97.6480   55.0810 C.3   377  VAL377      0.1595
     19  C         47.7740   98.4620   53.7700 C.2   377  VAL377      0.2287
     20  O         47.5330   99.6700   53.7850 O.2   377  VAL377     -0.2864
     21  CB        49.0000   97.6910   55.8990 C.3   377  VAL377      0.0276
     22  CG1       48.7820   97.1740   57.3120 C.3   377  VAL377      0.0022
     23  CG2       50.1360   96.9440   55.2070 C.3   377  VAL377      0.0022
     24  N         43.9840   99.1100   52.5610 N.3   380  PHE380     -0.1241
     25  CA        43.4150  100.0970   53.4730 C.3   380  PHE380      0.1605
     26  C         43.9210  101.4980   53.1220 C.2   380  PHE380      0.2264
     27  O         43.1110  102.4200   53.0110 O.2   380  PHE380     -0.2867
     28  CB        43.7270   99.7370   54.9420 C.3   380  PHE380      0.0534
     29  CG        43.7110  100.8920   55.9200 C.ar  380  PHE380     -0.0203
     30  CD1       42.5090  101.4410   56.3560 C.ar  380  PHE380     -0.0042
     31  CD2       44.8960  101.4210   56.4170 C.ar  380  PHE380     -0.0042
     32  CE1       42.4960  102.5160   57.2450 C.ar  380  PHE380     -0.0003
     33  CE2       44.8810  102.4940   57.3110 C.ar  380  PHE380     -0.0003
     34  CZ        43.6820  103.0320   57.7200 C.ar  380  PHE380     -0.0000
     35  N         35.4680   94.8710   56.1520 N.3   470  PHE470     -0.1241
     36  CA        36.4760   95.6670   56.8590 C.3   470  PHE470      0.1605
     37  C         36.3960   97.1170   56.4050 C.2   470  PHE470      0.2264
     38  O         36.3930   98.0130   57.2510 O.2   470  PHE470     -0.2867
     39  CB        37.8900   95.1050   56.6410 C.3   470  PHE470      0.0534
     40  CG        39.0040   95.9760   57.1760 C.ar  470  PHE470     -0.0203
     41  CD1       39.3460   95.9470   58.5210 C.ar  470  PHE470     -0.0042
     42  CD2       39.7170   96.8180   56.3300 C.ar  470  PHE470     -0.0042
     43  CE1       40.3750   96.7500   59.0130 C.ar  470  PHE470     -0.0003
     44  CE2       40.7470   97.6200   56.8240 C.ar  470  PHE470     -0.0003
     45  CZ        41.0770   97.5690   58.1600 C.ar  470  PHE470     -0.0000
     46  N         42.4620   91.8370   64.9110 N.3   525  LEU525     -0.1231
     47  CA        43.4180   92.9230   65.1430 C.3   525  LEU525      0.1693
     48  C         43.1460   94.0790   64.1770 C.2   525  LEU525      0.2591
     49  O         43.1750   95.2400   64.5890 O.2   525  LEU525     -0.2718
     50  CB        44.8620   92.4030   64.9730 C.3   525  LEU525      0.0284
     51  CG        45.9930   93.4220   65.1180 C.3   525  LEU525      0.0019
     52  CD1       46.5220   93.4520   66.5320 C.3   525  LEU525      0.0001
     53  CD2       47.1160   93.1220   64.1540 C.3   525  LEU525      0.0001
     54  N         42.8760   93.7490   62.9020 N.am  526  ALA526     -0.1980
     55  CA        42.5850   94.6970   61.8320 C.3   526  ALA526      0.1597
     56  C         41.3580   95.5430   62.1600 C.2   526  ALA526      0.2287
     57  O         41.4320   96.7710   62.0880 O.2   526  ALA526     -0.2864
     58  CB        42.3670   93.9480   60.5340 C.3   526  ALA526      0.0319
     59  N         41.9640   97.7720   65.2630 N.3   529  THR529     -0.1203
     60  CA        42.8240   98.9090   64.9210 C.3   529  THR529      0.1994
     61  C         41.9560   99.9990   64.2620 C.2   529  THR529      0.2617
     62  O         42.1490  101.1850   64.5440 O.2   529  THR529     -0.2717
     63  CB        43.9920   98.4350   64.0400 C.3   529  THR529      0.1784
     64  OG1       44.7880   97.5200   64.7990 O.3   529  THR529     -0.2211
     65  CG2       44.8650   99.5800   63.5300 C.3   529  THR529      0.0376
     66  N         40.9730   99.5820   63.4280 N.am  530  MET530     -0.1979
     67  CA        40.0150  100.4630   62.7570 C.3   530  MET530      0.1605
     68  C         39.1550  101.1980   63.7980 C.2   530  MET530      0.2287
     69  O         38.8920  102.3890   63.6310 O.2   530  MET530     -0.2864
     70  CB        39.1360   99.6580   61.7810 C.3   530  MET530      0.0413
     71  CG        38.2240  100.5140   60.9030 C.3   530  MET530      0.0598
     72  SD        39.0940  101.7280   59.8830 S.3   530  MET530     -0.1393
     73  CE        39.5370  100.7300   58.5070 C.3   530  MET530      0.0692
     74  N         41.4260  103.8850   65.3770 N.3   533  ILE533     -0.1245
     75  CA        41.5730  105.0030   64.4330 C.3   533  ILE533      0.1561
     76  C         40.2930  105.8640   64.4570 C.2   533  ILE533      0.2260
     77  O         40.3980  107.0890   64.3780 O.2   533  ILE533     -0.2867
     78  CB        41.9320  104.5030   62.9960 C.3   533  ILE533      0.0252
     79  CG1       43.3770  103.9560   62.9500 C.3   533  ILE533      0.0019
     80  CG2       41.7370  105.5940   61.9250 C.3   533  ILE533      0.0019
     81  CD1       43.6210  102.8680   61.9240 C.3   533  ILE533      0.0001
@<TRIPOS>BOND
     1    24    25    1
     2    27    26    2
     3    26    25    1
     4     9    10    1
     5    25    28    1
     6    19    20    2
     7    19    18    1
     8    12    11    2
     9    10    11    1
    10    10    13    1
    11    11    17   am
    12    17    18    1
    13    28    29    1
    14    18    21    1
    15    23    21    1
    16    13    14    1
    17    15    14    1
    18    21    22    1
    19    29    30   ar
    20    29    31   ar
    21     3     4    2
    22     3     2    1
    23    35    36    1
    24    14    16    1
    25    42    44   ar
    26    42    40   ar
    27    30    32   ar
    28    37    36    1
    29    37    38    2
    30    31    33   ar
    31     1     2    1
    32    39    36    1
    33    39    40    1
    34    44    45   ar
    35     2     5    1
    36    40    41   ar
    37    32    34   ar
    38    33    34   ar
    39    45    43   ar
    40     5     6    1
    41    73    72    1
    42    41    43   ar
    43     6     7    1
    44     6     8    1
    45    72    71    1
    46    58    55    1
    47    71    70    1
    48    70    67    1
    49    55    56    1
    50    55    54    1
    51    81    79    1
    52    80    78    1
    53    57    56    2
    54    67    66    1
    55    67    68    1
    56    54    48   am
    57    79    78    1
    58    78    75    1
    59    66    61   am
    60    65    63    1
    61    69    68    2
    62    63    64    1
    63    63    60    1
    64    53    51    1
    65    48    49    2
    66    48    47    1
    67    61    62    2
    68    61    60    1
    69    77    76    2
    70    75    76    1
    71    75    74    1
    72    46    47    1
    73    60    59    1
    74    50    51    1
    75    50    47    1
    76    51    52    1
