@<TRIPOS>MOLECULE
tmp/5oc9B03.pdb
 100 93 0 0 0
SMALL
GASTEIGER

@<TRIPOS>ATOM
      1  N         62.4360  102.0630   78.0760 N.3   237  SER237     -0.1202
      2  CA        61.2400  101.7330   78.8520 C.3   237  SER237      0.2020
      3  C         60.5690  100.4430   78.3790 C.2   237  SER237      0.2619
      4  O         60.2530   99.5940   79.2110 O.2   237  SER237     -0.2717
      5  CB        60.2330  102.8740   78.7790 C.3   237  SER237      0.2103
      6  OG        60.6480  103.9640   79.5810 O.3   237  SER237     -0.2182
      7  N         60.3770  100.2880   77.0500 N.am  238  THR238     -0.1952
      8  CA        59.7310   99.1220   76.4370 C.3   238  THR238      0.1897
      9  C         60.6310   97.8830   76.5160 C.2   238  THR238      0.2313
     10  O         60.1910   96.8500   77.0230 O.2   238  THR238     -0.2863
     11  CB        59.3410   99.4370   74.9840 C.3   238  THR238      0.1794
     12  OG1       58.5140  100.5910   74.9840 O.3   238  THR238     -0.2208
     13  CG2       58.6080   98.2870   74.2990 C.3   238  THR238      0.0378
     14  N         61.2430   96.3480   80.1200 N.3   241  LEU241     -0.1231
     15  CA        60.0590   95.6750   80.6600 C.3   241  LEU241      0.1693
     16  C         59.7560   94.3870   79.8860 C.2   241  LEU241      0.2591
     17  O         59.2020   93.4480   80.4620 O.2   241  LEU241     -0.2718
     18  CB        58.8350   96.6050   80.6820 C.3   241  LEU241      0.0284
     19  CG        58.9290   97.8200   81.6130 C.3   241  LEU241      0.0019
     20  CD1       57.7610   98.7510   81.4030 C.3   241  LEU241      0.0001
     21  CD2       59.0470   97.4140   83.0730 C.3   241  LEU241      0.0001
     22  N         60.1540   94.3340   78.6020 N.am  242  GLU242     -0.1979
     23  CA        59.9960   93.1590   77.7460 C.3   242  GLU242      0.1602
     24  C         61.0830   92.1320   78.0670 C.2   242  GLU242      0.2287
     25  O         60.7650   90.9510   78.1810 O.2   242  GLU242     -0.2864
     26  CB        60.0200   93.5390   76.2540 C.3   242  GLU242      0.0415
     27  CG        58.7150   94.1310   75.7400 C.3   242  GLU242      0.1163
     28  CD        57.4880   93.2450   75.8370 C.2   242  GLU242      0.3649
     29  OE1       57.5190   92.1220   75.2840 O.co2 242  GLU242     -0.2457
     30  OE2       56.4870   93.6820   76.4510 O.co2 242  GLU242     -0.2457
     31  N         54.2270   99.0800   82.8190 N.3   537  GLU537     -0.1245
     32  CA        53.9590   99.2830   81.3910 C.3   537  GLU537      0.1567
     33  C         53.0810  100.5200   81.1640 C.2   537  GLU537      0.2260
     34  O         53.2680  101.2100   80.1620 O.2   537  GLU537     -0.2867
     35  CB        53.3280   98.0380   80.7490 C.3   537  GLU537      0.0388
     36  CG        54.3610   96.9940   80.3580 C.3   537  GLU537      0.1160
     37  CD        53.8360   95.6850   79.8000 C.2   537  GLU537      0.3649
     38  OE1       52.8410   95.1540   80.3440 O.co2 537  GLU537     -0.2457
     39  OE2       54.4580   95.1600   78.8490 O.co2 537  GLU537     -0.2457
     40  N         55.3320  103.5270   81.4380 N.3   540  SER540     -0.1202
     41  CA        56.0980  103.6950   80.2020 C.3   540  SER540      0.2020
     42  C         55.2140  104.2780   79.0740 C.2   540  SER540      0.2619
     43  O         55.7450  104.8700   78.1330 O.2   540  SER540     -0.2717
     44  CB        56.7320  102.3750   79.7740 C.3   540  SER540      0.2103
     45  OG        55.7910  101.4560   79.2450 O.3   540  SER540     -0.2182
     46  N         53.8750  104.1200   79.1760 N.am  541  VAL541     -0.1965
     47  CA        52.9180  104.6680   78.2080 C.3   541  VAL541      0.1727
     48  C         52.7250  106.1640   78.5360 C.2   541  VAL541      0.2616
     49  O         52.7360  106.9920   77.6200 O.2   541  VAL541     -0.2715
     50  CB        51.5920  103.8580   78.1760 C.3   541  VAL541      0.0290
     51  CG1       50.4430  104.6550   77.5640 C.3   541  VAL541      0.0023
     52  CG2       51.7830  102.5480   77.4260 C.3   541  VAL541      0.0023
     53  N         52.6120  106.5040   79.8420 N.am  542  ILE542     -0.1977
     54  CA        52.4660  107.8790   80.3320 C.3   542  ILE542      0.1596
     55  C         53.7340  108.6850   79.9800 C.2   542  ILE542      0.2287
     56  O         53.6160  109.8620   79.6270 O.2   542  ILE542     -0.2864
     57  CB        52.1370  107.9110   81.8620 C.3   542  ILE542      0.0276
     58  CG1       50.7020  107.4100   82.1300 C.3   542  ILE542      0.0022
     59  CG2       52.3360  109.3160   82.4770 C.3   542  ILE542      0.0022
     60  CD1       50.4890  106.7570   83.4750 C.3   542  ILE542      0.0001
     61  N         53.6310  110.6780   76.6610 N.3   545  VAL545     -0.1245
     62  CA        52.8460  111.9050   76.8050 C.3   545  VAL545      0.1561
     63  C         53.7130  112.9830   77.4750 C.2   545  VAL545      0.2260
     64  O         53.7970  114.1000   76.9630 O.2   545  VAL545     -0.2867
     65  CB        51.5280  111.6550   77.5940 C.3   545  VAL545      0.0252
     66  CG1       50.5850  112.8490   77.4850 C.3   545  VAL545      0.0019
     67  CG2       50.8270  110.3760   77.1350 C.3   545  VAL545      0.0019
     68  N         53.6030  106.0830   70.2130 N.3   580  LEU580     -0.1245
     69  CA        52.7410  105.1460   70.9500 C.3   580  LEU580      0.1561
     70  C         52.4390  103.8980   70.1210 C.2   580  LEU580      0.2260
     71  O         52.3380  102.8090   70.6870 O.2   580  LEU580     -0.2867
     72  CB        51.4280  105.8060   71.3930 C.3   580  LEU580      0.0270
     73  CG        51.4800  106.6600   72.6580 C.3   580  LEU580      0.0019
     74  CD1       50.2390  107.5090   72.7770 C.3   580  LEU580      0.0001
     75  CD2       51.6290  105.8130   73.9110 C.3   580  LEU580      0.0001
     76  N         55.7780  101.9520   69.9660 N.3   583  LYS583     -0.1231
     77  CA        55.9930  101.3900   71.3030 C.3   583  LYS583      0.1693
     78  C         55.1910  100.0850   71.4570 C.2   583  LYS583      0.2592
     79  O         55.7020   99.1240   72.0360 O.2   583  LYS583     -0.2718
     80  CB        55.6060  102.4150   72.3850 C.3   583  LYS583      0.0285
     81  CG        56.0040  102.0100   73.7910 C.3   583  LYS583      0.0035
     82  CD        55.8290  103.1290   74.7890 C.3   583  LYS583      0.0206
     83  CE        57.1500  103.6250   75.3280 C.3   583  LYS583      0.1093
     84  NZ        57.6320  102.7980   76.4660 N.3   583  LYS583     -0.1314
     85  N         53.9510  100.0550   70.9160 N.am  584  PHE584     -0.1976
     86  CA        53.0640   98.8890   70.9310 C.3   584  PHE584      0.1639
     87  C         53.6500   97.7840   70.0390 C.2   584  PHE584      0.2290
     88  O         53.7010   96.6280   70.4660 O.2   584  PHE584     -0.2864
     89  CB        51.6380   99.2800   70.4740 C.3   584  PHE584      0.0560
     90  CG        50.6720   98.1320   70.2480 C.ar  584  PHE584     -0.0200
     91  CD1       50.5790   97.5100   69.0020 C.ar  584  PHE584     -0.0042
     92  CD2       49.8350   97.6940   71.2670 C.ar  584  PHE584     -0.0042
     93  CE1       49.6980   96.4400   68.7970 C.ar  584  PHE584     -0.0003
     94  CE2       48.9420   96.6360   71.0560 C.ar  584  PHE584     -0.0003
     95  CZ        48.8820   96.0150   69.8230 C.ar  584  PHE584     -0.0000
     96  N         56.7810   96.1320   71.5800 N.3   587  ALA587     -0.1245
     97  CA        56.3650   95.2470   72.6670 C.3   587  ALA587      0.1562
     98  C         55.7370   93.9680   72.1190 C.2   587  ALA587      0.2260
     99  O         55.9250   92.9000   72.6990 O.2   587  ALA587     -0.2867
    100  CB        55.3810   95.9630   73.5720 C.3   587  ALA587      0.0290
@<TRIPOS>BOND
     1    93    91   ar
     2    93    95   ar
     3    91    90   ar
     4    95    94   ar
     5    76    77    1
     6    87    88    2
     7    87    86    1
     8    70    71    2
     9    70    69    1
    10    68    69    1
    11    90    89    1
    12    90    92   ar
    13    89    86    1
    14    85    86    1
    15    85    78   am
    16    69    72    1
    17    94    92   ar
    18    77    78    1
    19    77    80    1
    20    72    73    1
    21    78    79    2
    22    96    97    1
    23    98    97    1
    24    98    99    2
    25    80    81    1
    26    73    74    1
    27    73    75    1
    28    97   100    1
    29    81    82    1
    30    13    11    1
    31    82    83    1
    32    11    12    1
    33    11     8    1
    34    29    28   ar
    35    83    84    1
    36    27    28    1
    37    27    26    1
    38    28    30   ar
    39    26    23    1
    40     8     9    1
    41     8     7    1
    42     9    10    2
    43    61    62    1
    44    62    63    1
    45    62    65    1
    46    64    63    2
    47     7     3   am
    48    67    65    1
    49    52    50    1
    50    66    65    1
    51    51    50    1
    52    49    48    2
    53    23    24    1
    54    23    22    1
    55    24    25    2
    56     1     2    1
    57    43    42    2
    58    50    47    1
    59    47    48    1
    60    47    46    1
    61     3     2    1
    62     3     4    2
    63    48    53   am
    64    22    16   am
    65     5     2    1
    66     5     6    1
    67    39    37   ar
    68    42    46   am
    69    42    41    1
    70    45    44    1
    71    56    55    2
    72    44    41    1
    73    37    38   ar
    74    37    36    1
    75    53    54    1
    76    16    17    2
    77    16    15    1
    78    55    54    1
    79    14    15    1
    80    34    33    2
    81    41    40    1
    82    54    57    1
    83    36    35    1
    84    15    18    1
    85    18    19    1
    86    35    32    1
    87    33    32    1
    88    32    31    1
    89    20    19    1
    90    19    21    1
    91    57    58    1
    92    57    59    1
    93    58    60    1
