@<TRIPOS>MOLECULE
tmp/5oc9B05.pdb
 86 79 0 0 0
SMALL
GASTEIGER

@<TRIPOS>ATOM
      1  N         32.6420   94.8270   92.8630 N.3   297  ILE297     -0.1245
      2  CA        33.8140   95.4330   92.2290 C.3   297  ILE297      0.1561
      3  C         33.4230   96.7250   91.4870 C.2   297  ILE297      0.2260
      4  O         33.9840   97.7750   91.7880 O.2   297  ILE297     -0.2867
      5  CB        34.5410   94.4120   91.2860 C.3   297  ILE297      0.0252
      6  CG1       35.3380   93.3770   92.1100 C.3   297  ILE297      0.0019
      7  CG2       35.4600   95.1040   90.2470 C.3   297  ILE297      0.0019
      8  CD1       35.6920   92.0830   91.3700 C.3   297  ILE297      0.0001
      9  N         33.2200   99.1880   94.9870 N.3   301  SER301     -0.1202
     10  CA        34.6620   99.4110   95.0580 C.3   301  SER301      0.2020
     11  C         35.1760  100.4370   94.0410 C.2   301  SER301      0.2618
     12  O         35.8650  101.3750   94.4430 O.2   301  SER301     -0.2717
     13  CB        35.4050   98.0970   94.8900 C.3   301  SER301      0.2103
     14  OG        35.2530   97.3050   96.0560 O.3   301  SER301     -0.2182
     15  N         34.8500  100.2690   92.7470 N.am  302  LEU302     -0.1979
     16  CA        35.2810  101.1710   91.6760 C.3   302  LEU302      0.1596
     17  C         34.8290  102.6310   91.9380 C.2   302  LEU302      0.2287
     18  O         35.7030  103.4970   91.8770 O.2   302  LEU302     -0.2864
     19  CB        34.7990  100.6880   90.2980 C.3   302  LEU302      0.0297
     20  CG        35.4080  101.3830   89.0930 C.3   302  LEU302      0.0022
     21  CD1       36.6020  100.6110   88.5680 C.3   302  LEU302      0.0001
     22  CD2       34.3740  101.5560   88.0030 C.3   302  LEU302      0.0001
     23  N         37.0650  104.1350   94.8460 N.3   305  VAL305     -0.1231
     24  CA        38.4450  104.3970   94.4200 C.3   305  VAL305      0.1692
     25  C         38.4770  105.7340   93.6450 C.2   305  VAL305      0.2592
     26  O         39.3660  106.5530   93.8870 O.2   305  VAL305     -0.2718
     27  CB        39.0340  103.2050   93.6070 C.3   305  VAL305      0.0266
     28  CG1       40.4050  103.5340   93.0230 C.3   305  VAL305      0.0020
     29  CG2       39.1260  101.9480   94.4670 C.3   305  VAL305      0.0020
     30  N         37.4640  105.9730   92.7840 N.am  306  CYS306     -0.1970
     31  CA        37.3180  107.1960   91.9910 C.3   306  CYS306      0.1712
     32  C         37.0390  108.4050   92.8750 C.2   306  CYS306      0.2296
     33  O         37.4800  109.5010   92.5350 O.2   306  CYS306     -0.2864
     34  CB        36.2320  107.0300   90.9360 C.3   306  CYS306      0.0983
     35  SG        36.6390  105.8300   89.6470 S.3   306  CYS306     -0.0798
     36  N         40.3620  109.2520   94.6190 N.3   309  LEU309     -0.1245
     37  CA        41.2430  109.7950   93.5880 C.3   309  LEU309      0.1561
     38  C         40.8770  111.2560   93.3010 C.2   309  LEU309      0.2260
     39  O         41.7750  112.0780   93.1090 O.2   309  LEU309     -0.2867
     40  CB        41.1580  108.9360   92.3140 C.3   309  LEU309      0.0270
     41  CG        42.3280  107.9790   92.0210 C.3   309  LEU309      0.0019
     42  CD1       42.6500  107.0650   93.1970 C.3   309  LEU309      0.0001
     43  CD2       42.0410  107.1430   90.8020 C.3   309  LEU309      0.0001
     44  N         35.0460   91.8720   98.6480 N.3   365  GLU365     -0.1245
     45  CA        34.8260   91.4690   97.2460 C.3   365  GLU365      0.1567
     46  C         34.7220   89.9410   97.1330 C.2   365  GLU365      0.2260
     47  O         34.0390   89.4320   96.2440 O.2   365  GLU365     -0.2867
     48  CB        35.9690   91.9770   96.3520 C.3   365  GLU365      0.0388
     49  CG        35.8120   93.4050   95.8590 C.3   365  GLU365      0.1160
     50  CD        37.1020   94.1320   95.5160 C.2   365  GLU365      0.3649
     51  OE1       38.1430   93.4660   95.3190 O.co2 365  GLU365     -0.2457
     52  OE2       37.0670   95.3790   95.4250 O.co2 365  GLU365     -0.2457
     53  N         44.1680   92.7040   92.9560 N.3   376  HIS376     -0.1241
     54  CA        43.1160   93.7070   93.1120 C.3   376  HIS376      0.1621
     55  C         43.4830   94.7220   94.1940 C.2   376  HIS376      0.2264
     56  O         43.2740   95.9160   93.9840 O.2   376  HIS376     -0.2867
     57  CB        41.7680   93.0440   93.4180 C.3   376  HIS376      0.0745
     58  CG        41.1240   92.4340   92.2160 C.ar  376  HIS376      0.0817
     59  ND1       39.9780   92.9730   91.6630 N.ar  376  HIS376     -0.2268
     60  CD2       41.4970   91.3600   91.4830 C.ar  376  HIS376      0.1154
     61  CE1       39.6870   92.2090   90.6220 C.ar  376  HIS376      0.1986
     62  NE2       40.5740   91.2260   90.4740 N.ar  376  HIS376     -0.2212
     63  N         46.4250   97.0090   92.9070 N.3   379  LEU379     -0.1231
     64  CA        45.8440   97.9430   91.9380 C.3   379  LEU379      0.1693
     65  C         45.1150   99.1270   92.6040 C.2   379  LEU379      0.2591
     66  O         45.2650  100.2540   92.1310 O.2   379  LEU379     -0.2718
     67  CB        44.8910   97.2020   90.9850 C.3   379  LEU379      0.0284
     68  CG        44.5100   97.9140   89.6820 C.3   379  LEU379      0.0019
     69  CD1       45.7090   98.0550   88.7450 C.3   379  LEU379      0.0001
     70  CD2       43.4080   97.1600   88.9700 C.3   379  LEU379      0.0001
     71  N         44.3550   98.8810   93.6930 N.am  380  LYS380     -0.1980
     72  CA        43.6150   99.9270   94.4100 C.3   380  LYS380      0.1596
     73  C         44.5610  100.9050   95.1120 C.2   380  LYS380      0.2287
     74  O         44.4670  102.1130   94.8850 O.2   380  LYS380     -0.2864
     75  CB        42.6520   99.3200   95.4430 C.3   380  LYS380      0.0298
     76  CG        41.4340   98.6320   94.8500 C.3   380  LYS380      0.0038
     77  CD        40.9620   97.5080   95.7600 C.3   380  LYS380      0.0206
     78  CE        39.8020   97.8930   96.6340 C.3   380  LYS380      0.1093
     79  NZ        38.5200   97.7280   95.9150 N.3   380  LYS380     -0.1314
     80  N         47.1100  103.0350   92.4910 N.3   383  VAL383     -0.1245
     81  CA        46.5710  104.1910   91.7540 C.3   383  VAL383      0.1561
     82  C         46.4530  105.4140   92.6850 C.2   383  VAL383      0.2260
     83  O         46.6850  106.5370   92.2400 O.2   383  VAL383     -0.2867
     84  CB        45.2390  103.9320   90.9880 C.3   383  VAL383      0.0252
     85  CG1       45.4270  102.9620   89.8310 C.3   383  VAL383      0.0019
     86  CG2       44.1170  103.4600   91.9040 C.3   383  VAL383      0.0019
@<TRIPOS>BOND
     1    22    20    1
     2    21    20    1
     3    69    68    1
     4    70    68    1
     5    20    19    1
     6    35    34    1
     7    68    67    1
     8    85    84    1
     9     7     5    1
    10    19    16    1
    11    62    61   ar
    12    62    60   ar
    13    61    59   ar
    14    43    41    1
    15    34    31    1
    16    67    64    1
    17    84    81    1
    18    84    86    1
    19     5     6    1
    20     5     2    1
    21     8     6    1
    22    60    58   ar
    23     3     4    2
    24     3     2    1
    25    59    58   ar
    26    16    17    1
    27    16    15    1
    28    81    80    1
    29    81    82    1
    30    18    17    2
    31    64    65    1
    32    64    63    1
    33    31    30    1
    34    31    32    1
    35    41    40    1
    36    41    42    1
    37    66    65    2
    38    58    57    1
    39     2     1    1
    40    83    82    2
    41    40    37    1
    42    33    32    2
    43    65    71   am
    44    15    11   am
    45    30    25   am
    46    53    54    1
    47    28    27    1
    48    39    38    2
    49    54    57    1
    50    54    55    1
    51    38    37    1
    52    37    36    1
    53    27    24    1
    54    27    29    1
    55    25    26    2
    56    25    24    1
    57    71    72    1
    58    56    55    2
    59    11    12    2
    60    11    10    1
    61    72    73    1
    62    72    75    1
    63    24    23    1
    64    76    75    1
    65    76    77    1
    66    74    73    2
    67    13    10    1
    68    13    14    1
    69     9    10    1
    70    51    50   ar
    71    52    50   ar
    72    50    49    1
    73    77    78    1
    74    49    48    1
    75    79    78    1
    76    47    46    2
    77    48    45    1
    78    46    45    1
    79    45    44    1
