@<TRIPOS>MOLECULE
tmp/5oc9A02.pdb
 100 93 0 0 0
SMALL
GASTEIGER

@<TRIPOS>ATOM
      1  N         31.6050  100.2140   68.4600 N.3   227  SER227     -0.1202
      2  CA        32.8170   99.6490   67.8650 C.3   227  SER227      0.2020
      3  C         33.4880   98.6130   68.7690 C.2   227  SER227      0.2619
      4  O         33.8290   97.5300   68.2920 O.2   227  SER227     -0.2717
      5  CB        33.8140  100.7570   67.5440 C.3   227  SER227      0.2103
      6  OG        33.4060  101.4910   66.4040 O.3   227  SER227     -0.2182
      7  N         33.6550   98.9370   70.0700 N.am  228  THR228     -0.1952
      8  CA        34.3010   98.0690   71.0570 C.3   228  THR228      0.1897
      9  C         33.4150   96.8670   71.4040 C.2   228  THR228      0.2313
     10  O         33.8740   95.7250   71.2990 O.2   228  THR228     -0.2863
     11  CB        34.6650   98.8790   72.3120 C.3   228  THR228      0.1794
     12  OG1       35.4820   99.9740   71.9170 O.3   228  THR228     -0.2208
     13  CG2       35.3970   98.0490   73.3680 C.3   228  THR228      0.0378
     14  N         32.8850   94.1520   68.5630 N.3   231  LEU231     -0.1231
     15  CA        34.0860   93.3490   68.3080 C.3   231  LEU231      0.1693
     16  C         34.3870   92.4190   69.4840 C.2   231  LEU231      0.2591
     17  O         34.9640   91.3480   69.2800 O.2   231  LEU231     -0.2718
     18  CB        35.3010   94.2300   67.9800 C.3   231  LEU231      0.0284
     19  CG        35.2080   95.0440   66.6820 C.3   231  LEU231      0.0019
     20  CD1       36.3630   96.0070   66.5670 C.3   231  LEU231      0.0001
     21  CD2       35.1180   94.1500   65.4540 C.3   231  LEU231      0.0001
     22  N         33.9680   92.8150   70.7030 N.am  232  GLU232     -0.1979
     23  CA        34.1270   92.0170   71.9160 C.3   232  GLU232      0.1602
     24  C         33.0580   90.9230   71.9640 C.2   232  GLU232      0.2287
     25  O         33.3910   89.7800   72.2800 O.2   232  GLU232     -0.2864
     26  CB        34.0760   92.8960   73.1770 C.3   232  GLU232      0.0415
     27  CG        35.3660   93.6480   73.4670 C.3   232  GLU232      0.1163
     28  CD        36.6020   92.7980   73.7030 C.2   232  GLU232      0.3649
     29  OE1       36.5750   91.9360   74.6120 O.co2 232  GLU232     -0.2457
     30  OE2       37.6070   93.0110   72.9880 O.co2 232  GLU232     -0.2457
     31  N         39.9190   95.8640   65.1730 N.3   528  GLU528     -0.1245
     32  CA        40.1600   96.5600   66.4410 C.3   528  GLU528      0.1567
     33  C         41.0240   97.8100   66.2280 C.2   528  GLU528      0.2260
     34  O         40.8150   98.8050   66.9180 O.2   528  GLU528     -0.2867
     35  CB        40.7930   95.6280   67.4830 C.3   528  GLU528      0.0388
     36  CG        39.7660   94.7670   68.2010 C.3   528  GLU528      0.1160
     37  CD        40.2990   93.7440   69.1870 C.2   528  GLU528      0.3649
     38  OE1       41.3070   93.0690   68.8750 O.co2 528  GLU528     -0.2457
     39  OE2       39.6670   93.5760   70.2550 O.co2 528  GLU528     -0.2457
     40  N         38.7580  100.4990   64.8850 N.3   531  SER531     -0.1202
     41  CA        37.9680  101.0800   65.9740 C.3   531  SER531      0.2020
     42  C         38.8260  102.0380   66.8350 C.2   531  SER531      0.2619
     43  O         38.2750  102.9170   67.4990 O.2   531  SER531     -0.2717
     44  CB        37.3360   99.9880   66.8330 C.3   531  SER531      0.2103
     45  OG        38.2740   99.3260   67.6640 O.3   531  SER531     -0.2182
     46  N         40.1660  101.8710   66.8140 N.am  532  VAL532     -0.1965
     47  CA        41.1010  102.7350   67.5430 C.3   532  VAL532      0.1727
     48  C         41.2880  104.0240   66.7170 C.2   532  VAL532      0.2616
     49  O         41.2530  105.1210   67.2850 O.2   532  VAL532     -0.2715
     50  CB        42.4350  102.0020   67.8780 C.3   532  VAL532      0.0290
     51  CG1       43.5670  102.9760   68.1940 C.3   532  VAL532      0.0023
     52  CG2       42.2380  101.0300   69.0350 C.3   532  VAL532      0.0023
     53  N         41.4260  103.8850   65.3770 N.am  533  ILE533     -0.1977
     54  CA        41.5730  105.0030   64.4330 C.3   533  ILE533      0.1596
     55  C         40.2930  105.8640   64.4570 C.2   533  ILE533      0.2287
     56  O         40.3980  107.0890   64.3780 O.2   533  ILE533     -0.2864
     57  CB        41.9320  104.5030   62.9960 C.3   533  ILE533      0.0276
     58  CG1       43.3770  103.9560   62.9500 C.3   533  ILE533      0.0022
     59  CG2       41.7370  105.5940   61.9250 C.3   533  ILE533      0.0022
     60  CD1       43.6210  102.8680   61.9240 C.3   533  ILE533      0.0001
     61  N         40.3120  108.9010   66.8680 N.3   536  VAL536     -0.1245
     62  CA        41.0930  110.0060   66.3150 C.3   536  VAL536      0.1561
     63  C         40.2350  110.7700   65.2900 C.2   536  VAL536      0.2260
     64  O         40.1360  111.9960   65.3730 O.2   536  VAL536     -0.2867
     65  CB        42.4300  109.5040   65.6880 C.3   536  VAL536      0.0252
     66  CG1       43.3620  110.6680   65.3700 C.3   536  VAL536      0.0019
     67  CG2       43.1300  108.4840   66.5880 C.3   536  VAL536      0.0019
     68  N         40.2330  106.8660   74.5280 N.3   571  LEU571     -0.1245
     69  CA        41.1210  105.7480   74.1800 C.3   571  LEU571      0.1561
     70  C         41.4190  104.8740   75.4000 C.2   571  LEU571      0.2260
     71  O         41.5480  103.6560   75.2570 O.2   571  LEU571     -0.2867
     72  CB        42.4360  106.2350   73.5550 C.3   571  LEU571      0.0270
     73  CG        42.4050  106.5880   72.0670 C.3   571  LEU571      0.0019
     74  CD1       43.6390  107.3710   71.6820 C.3   571  LEU571      0.0001
     75  CD2       42.2910  105.3410   71.1900 C.3   571  LEU571      0.0001
     76  N         38.1000  103.0420   76.1740 N.3   574  LYS574     -0.1231
     77  CA        37.9200  102.0440   75.1150 C.3   574  LYS574      0.1693
     78  C         38.7400  100.7790   75.4370 C.2   574  LYS574      0.2592
     79  O         38.2510   99.6670   75.2230 O.2   574  LYS574     -0.2718
     80  CB        38.3200  102.6340   73.7480 C.3   574  LYS574      0.0285
     81  CG        37.9600  101.7570   72.5660 C.3   574  LYS574      0.0035
     82  CD        38.1430  102.4620   71.2410 C.3   574  LYS574      0.0206
     83  CE        36.8280  102.7160   70.5430 C.3   574  LYS574      0.1093
     84  NZ        36.3720  101.5360   69.7640 N.3   574  LYS574     -0.1314
     85  N         39.9690  100.9620   75.9710 N.am  575  PHE575     -0.1976
     86  CA        40.8680   99.8810   76.3770 C.3   575  PHE575      0.1639
     87  C         40.2790   99.1470   77.5880 C.2   575  PHE575      0.2290
     88  O         40.2510   97.9140   77.5920 O.2   575  PHE575     -0.2864
     89  CB        42.2800  100.4330   76.6890 C.3   575  PHE575      0.0560
     90  CG        43.2530   99.4500   77.3100 C.ar  575  PHE575     -0.0200
     91  CD1       43.3350   99.3040   78.6940 C.ar  575  PHE575     -0.0042
     92  CD2       44.1070   98.6940   76.5140 C.ar  575  PHE575     -0.0042
     93  CE1       44.2260   98.3880   79.2690 C.ar  575  PHE575     -0.0003
     94  CE2       45.0070   97.7860   77.0910 C.ar  575  PHE575     -0.0003
     95  CZ        45.0610   97.6420   78.4650 C.ar  575  PHE575     -0.0000
     96  N         37.1970   97.0030   76.6850 N.3   578  ALA578     -0.1245
     97  CA        37.6460   95.8000   75.9810 C.3   578  ALA578      0.1562
     98  C         38.2800   94.8050   76.9520 C.2   578  ALA578      0.2260
     99  O         38.1160   93.5980   76.7820 O.2   578  ALA578     -0.2867
    100  CB        38.6350   96.1700   74.8930 C.3   578  ALA578      0.0290
@<TRIPOS>BOND
     1    60    58    1
     2    59    57    1
     3    58    57    1
     4    57    54    1
     5    56    55    2
     6    54    55    1
     7    54    53    1
     8    40    41    1
     9    31    32    1
    10    63    64    2
    11    63    62    1
    12    66    65    1
    13    53    48   am
    14    21    19    1
    15    65    62    1
    16    65    67    1
    17    41    44    1
    18    41    42    1
    19    33    32    1
    20    33    34    2
    21    62    61    1
    22     6     5    1
    23    32    35    1
    24    20    19    1
    25    19    18    1
    26    48    49    2
    27    48    47    1
    28    46    42   am
    29    46    47    1
    30    44    45    1
    31    42    43    2
    32    35    36    1
    33    47    50    1
    34     5     2    1
    35     2     1    1
    36     2     3    1
    37    50    51    1
    38    50    52    1
    39    18    15    1
    40    36    37    1
    41     4     3    2
    42    15    14    1
    43    15    16    1
    44     3     7   am
    45    38    37   ar
    46    37    39   ar
    47    17    16    2
    48    16    22   am
    49    84    83    1
    50     7     8    1
    51    83    82    1
    52    22    23    1
    53     8     9    1
    54     8    11    1
    55    75    73    1
    56    82    81    1
    57    10     9    2
    58    74    73    1
    59    23    24    1
    60    23    26    1
    61    12    11    1
    62    24    25    2
    63    73    72    1
    64    11    13    1
    65    81    80    1
    66    30    28   ar
    67    26    27    1
    68    27    28    1
    69    72    69    1
    70    28    29   ar
    71    80    77    1
    72    69    68    1
    73    69    70    1
    74   100    97    1
    75    77    78    1
    76    77    76    1
    77    79    78    2
    78    71    70    2
    79    78    85   am
    80    85    86    1
    81    97    96    1
    82    97    98    1
    83    86    89    1
    84    86    87    1
    85    92    94   ar
    86    92    90   ar
    87    89    90    1
    88    99    98    2
    89    94    95   ar
    90    90    91   ar
    91    87    88    2
    92    95    93   ar
    93    91    93   ar
