@<TRIPOS>MOLECULE
tmp/5oc9B00.pdb
 100 99 0 0 0
SMALL
GASTEIGER

@<TRIPOS>ATOM
      1  N         74.1790  106.7220   82.9380 N.3   210  VAL210     -0.1231
      2  CA        75.3870  107.1050   82.1990 C.3   210  VAL210      0.1692
      3  C         75.0350  108.1140   81.0910 C.2   210  VAL210      0.2591
      4  O         75.7780  109.0790   80.9260 O.2   210  VAL210     -0.2718
      5  CB        76.1710  105.8840   81.6400 C.3   210  VAL210      0.0266
      6  CG1       77.4910  106.3180   81.0030 C.3   210  VAL210      0.0020
      7  CG2       76.4330  104.8460   82.7310 C.3   210  VAL210      0.0020
      8  N         73.9230  107.8970   80.3410 N.am  211  ILE211     -0.1980
      9  CA        73.4790  108.7990   79.2580 C.3   211  ILE211      0.1595
     10  C         73.0870  110.1730   79.8480 C.2   211  ILE211      0.2287
     11  O         73.4730  111.2020   79.2940 O.2   211  ILE211     -0.2864
     12  CB        72.3230  108.1990   78.3840 C.3   211  ILE211      0.0276
     13  CG1       72.6800  106.8150   77.7670 C.3   211  ILE211      0.0022
     14  CG2       71.8390  109.1780   77.3000 C.3   211  ILE211      0.0022
     15  CD1       73.7810  106.7520   76.6390 C.3   211  ILE211      0.0001
     16  N         74.0690  111.5560   82.7450 N.3   213  LEU213     -0.1231
     17  CA        75.1610  112.2060   83.4760 C.3   213  LEU213      0.1678
     18  C         75.7530  113.4380   82.7240 C.2   213  LEU213      0.2434
     19  O         75.7600  114.5020   83.3440 O.2   213  LEU213     -0.2733
     20  CB        76.2650  111.1940   83.8220 C.3   213  LEU213      0.0284
     21  CG        77.0570  111.4660   85.0950 C.3   213  LEU213      0.0019
     22  CD1       76.2580  111.0800   86.3360 C.3   213  LEU213      0.0001
     23  CD2       78.3620  110.7080   85.0810 C.3   213  LEU213      0.0001
     24  N         76.1830  113.3820   81.4240 N.am  214  PRO214     -0.2718
     25  CA        76.7250  114.5970   80.7790 C.3   214  PRO214      0.1535
     26  C         75.6810  115.6940   80.4900 C.2   214  PRO214      0.2598
     27  O         76.0690  116.8290   80.2100 O.2   214  PRO214     -0.2715
     28  CB        77.3260  114.0600   79.4740 C.3   214  PRO214      0.0310
     29  CG        76.5510  112.8470   79.1750 C.3   214  PRO214      0.0237
     30  CD        76.2790  112.2260   80.5070 C.3   214  PRO214      0.0939
     31  N         74.3730  115.3680   80.5590 N.am  215  TYR215     -0.1974
     32  CA        73.2820  116.3220   80.3380 C.3   215  TYR215      0.1639
     33  C         73.2060  117.3310   81.4890 C.2   215  TYR215      0.2290
     34  O         72.8150  118.4820   81.2780 O.2   215  TYR215     -0.2864
     35  CB        71.9470  115.5780   80.1720 C.3   215  TYR215      0.0560
     36  CG        71.7220  115.0690   78.7650 C.ar  215  TYR215     -0.0198
     37  CD1       71.0820  115.8510   77.8150 C.ar  215  TYR215     -0.0009
     38  CD2       72.1750  113.8110   78.3760 C.ar  215  TYR215     -0.0009
     39  CE1       70.8920  115.3950   76.5110 C.ar  215  TYR215      0.0417
     40  CE2       71.9770  113.3370   77.0790 C.ar  215  TYR215      0.0417
     41  CZ        71.3350  114.1320   76.1480 C.ar  215  TYR215      0.1957
     42  OH        71.1630  113.6550   74.8720 O.3   215  TYR215     -0.2866
     43  N         76.0970  117.7090   83.8580 N.3   217  LEU217     -0.1231
     44  CA        77.4780  118.1890   83.9680 C.3   217  LEU217      0.1693
     45  C         77.8200  119.3170   82.9960 C.2   217  LEU217      0.2592
     46  O         78.4260  120.2990   83.4180 O.2   217  LEU217     -0.2718
     47  CB        78.4690  117.0310   83.7610 C.3   217  LEU217      0.0284
     48  CG        78.5280  115.9730   84.8620 C.3   217  LEU217      0.0019
     49  CD1       79.0560  114.6630   84.3220 C.3   217  LEU217      0.0001
     50  CD2       79.3670  116.4450   86.0410 C.3   217  LEU217      0.0001
     51  N         77.4480  119.1810   81.7120 N.am  218  PHE218     -0.1976
     52  CA        77.7640  120.1760   80.6860 C.3   218  PHE218      0.1639
     53  C         76.5710  121.0840   80.3570 C.2   218  PHE218      0.2290
     54  O         76.7110  121.9840   79.5260 O.2   218  PHE218     -0.2864
     55  CB        78.2910  119.4840   79.4150 C.3   218  PHE218      0.0560
     56  CG        79.4260  118.5220   79.6790 C.ar  218  PHE218     -0.0200
     57  CD1       80.6710  118.9830   80.0880 C.ar  218  PHE218     -0.0042
     58  CD2       79.2450  117.1540   79.5350 C.ar  218  PHE218     -0.0042
     59  CE1       81.7130  118.0910   80.3500 C.ar  218  PHE218     -0.0003
     60  CE2       80.2880  116.2620   79.7970 C.ar  218  PHE218     -0.0003
     61  CZ        81.5150  116.7370   80.2010 C.ar  218  PHE218     -0.0000
     62  N         73.3210  120.4530   78.9210 N.3   220  TRP220     -0.1241
     63  CA        72.8940  120.2390   77.5420 C.3   220  TRP220      0.1605
     64  C         71.4070  120.5680   77.4200 C.2   220  TRP220      0.2264
     65  O         70.5590  119.7720   77.8380 O.2   220  TRP220     -0.2867
     66  CB        73.1920  118.7920   77.1040 C.3   220  TRP220      0.0550
     67  CG        74.6330  118.4740   76.8030 C.ar  220  TRP220      0.0003
     68  CD1       75.6660  119.3560   76.6580 C.ar  220  TRP220      0.0946
     69  CD2       75.1750  117.1760   76.5360 C.ar  220  TRP220      0.0152
     70  NE1       76.8240  118.6830   76.3430 N.ar  220  TRP220     -0.2442
     71  CE2       76.5500  117.3440   76.2520 C.ar  220  TRP220      0.0810
     72  CE3       74.6260  115.8870   76.4840 C.ar  220  TRP220      0.0012
     73  CZ2       77.3900  116.2650   75.9500 C.ar  220  TRP220      0.0191
     74  CZ3       75.4630  114.8160   76.2060 C.ar  220  TRP220      0.0001
     75  CH2       76.8240  115.0090   75.9290 C.ar  220  TRP220      0.0015
     76  N         67.7810  118.8780   69.6300 N.3   224  ASP224     -0.1225
     77  CA        68.3480  117.6230   69.1310 C.3   224  ASP224      0.1805
     78  C         68.8220  116.7350   70.2850 C.2   224  ASP224      0.2597
     79  O         68.4630  115.5580   70.3120 O.2   224  ASP224     -0.2718
     80  CB        69.4980  117.8820   68.1330 C.3   224  ASP224      0.1424
     81  CG        70.4390  119.0100   68.5190 C.2   224  ASP224      0.3668
     82  OD1       71.1930  118.8470   69.5040 O.co2 224  ASP224     -0.2456
     83  OD2       70.4230  120.0560   67.8320 O.co2 224  ASP224     -0.2456
     84  N         69.5570  117.3100   71.2630 N.am  225  LYS225     -0.1979
     85  CA        70.0780  116.5940   72.4320 C.3   225  LYS225      0.1596
     86  C         68.9520  116.0680   73.3330 C.2   225  LYS225      0.2287
     87  O         69.0700  114.9560   73.8440 O.2   225  LYS225     -0.2864
     88  CB        71.0420  117.4750   73.2350 C.3   225  LYS225      0.0298
     89  CG        72.5010  117.1590   72.9380 C.3   225  LYS225      0.0038
     90  CD        73.4480  118.2380   73.4300 C.3   225  LYS225      0.0206
     91  CE        73.8070  119.2520   72.3690 C.3   225  LYS225      0.1093
     92  NZ        74.8130  118.7250   71.4120 N.3   225  LYS225     -0.1314
     93  N         67.1060  113.1000   71.3410 N.3   228  ILE228     -0.1245
     94  CA        67.9450  111.8920   71.3730 C.3   228  ILE228      0.1561
     95  C         67.7510  111.1550   72.7170 C.2   228  ILE228      0.2260
     96  O         67.4790  109.9510   72.7070 O.2   228  ILE228     -0.2867
     97  CB        69.4400  112.2320   71.0870 C.3   228  ILE228      0.0252
     98  CG1       69.6540  112.5180   69.5870 C.3   228  ILE228      0.0019
     99  CG2       70.3880  111.1150   71.5580 C.3   228  ILE228      0.0019
    100  CD1       70.7780  113.4680   69.2710 C.3   228  ILE228      0.0001
@<TRIPOS>BOND
     1    83    81   ar
     2    80    81    1
     3    80    77    1
     4    81    82   ar
     5    77    76    1
     6    77    78    1
     7   100    98    1
     8    98    97    1
     9    78    79    2
    10    78    84   am
    11    97    94    1
    12    97    99    1
    13    84    85    1
    14    93    94    1
    15    94    95    1
    16    92    91    1
    17    91    90    1
    18    85    88    1
    19    85    86    1
    20    96    95    2
    21    89    88    1
    22    89    90    1
    23    86    87    2
    24    42    41    1
    25    75    73   ar
    26    75    74   ar
    27    73    71   ar
    28    41    39   ar
    29    41    40   ar
    30    74    72   ar
    31    71    70   ar
    32    71    69   ar
    33    70    68   ar
    34    72    69   ar
    35    39    37   ar
    36    69    67   ar
    37    15    13    1
    38    68    67   ar
    39    67    66    1
    40    40    38   ar
    41    66    63    1
    42    14    12    1
    43    64    63    1
    44    64    65    2
    45    63    62    1
    46    13    12    1
    47    37    36   ar
    48    38    36   ar
    49    12     9    1
    50    36    35    1
    51    29    28    1
    52    29    30    1
    53     9    10    1
    54     9     8    1
    55    11    10    2
    56    55    56    1
    57    55    52    1
    58    28    25    1
    59    54    53    2
    60    58    56   ar
    61    58    60   ar
    62    56    57   ar
    63    60    61   ar
    64    57    59   ar
    65    35    32    1
    66    61    59   ar
    67    27    26    2
    68    32    31    1
    69    32    33    1
    70     8     3   am
    71    53    52    1
    72    26    31   am
    73    26    25    1
    74    30    24    1
    75    52    51    1
    76    25    24    1
    77     4     3    2
    78     6     5    1
    79     3     2    1
    80    34    33    2
    81    24    18   am
    82     5     2    1
    83     5     7    1
    84    51    45   am
    85     2     1    1
    86    18    19    2
    87    18    17    1
    88    16    17    1
    89    45    46    2
    90    45    44    1
    91    17    20    1
    92    47    44    1
    93    47    48    1
    94    20    21    1
    95    43    44    1
    96    49    48    1
    97    48    50    1
    98    23    21    1
    99    21    22    1
