@<TRIPOS>MOLECULE
tmp/5oc9B02.pdb
 136 126 0 0 0
SMALL
GASTEIGER

@<TRIPOS>ATOM
      1  N         67.4740  121.1280   71.4430 N.3   223  TYR223     -0.1241
      2  CA        66.3260  120.3770   70.9290 C.3   223  TYR223      0.1605
      3  C         66.7710  118.9720   70.5240 C.2   223  TYR223      0.2264
      4  O         66.2310  117.9990   71.0470 O.2   223  TYR223     -0.2867
      5  CB        65.6450  121.1100   69.7480 C.3   223  TYR223      0.0534
      6  CG        64.6120  120.2740   69.0160 C.ar  223  TYR223     -0.0201
      7  CD1       63.3780  119.9910   69.5950 C.ar  223  TYR223     -0.0009
      8  CD2       64.8730  119.7560   67.7510 C.ar  223  TYR223     -0.0009
      9  CE1       62.4230  119.2260   68.9260 C.ar  223  TYR223      0.0417
     10  CE2       63.9320  118.9760   67.0790 C.ar  223  TYR223      0.0417
     11  CZ        62.7090  118.7080   67.6730 C.ar  223  TYR223      0.1957
     12  OH        61.7790  117.9340   67.0190 O.3   223  TYR223     -0.2866
     13  N         65.7450  115.4110   72.2640 N.3   227  VAL227     -0.1245
     14  CA        65.0110  114.4410   71.4390 C.3   227  VAL227      0.1561
     15  C         65.7570  113.0960   71.4690 C.2   227  VAL227      0.2260
     16  O         65.1050  112.0750   71.6550 O.2   227  VAL227     -0.2867
     17  CB        64.7490  114.9450   69.9870 C.3   227  VAL227      0.0252
     18  CG1       64.2160  113.8350   69.0820 C.3   227  VAL227      0.0019
     19  CG2       63.7760  116.1140   69.9910 C.3   227  VAL227      0.0019
     20  N         65.2270  111.5360   75.0370 N.3   230  ALA230     -0.1231
     21  CA        63.8290  111.1250   75.1720 C.3   230  ALA230      0.1694
     22  C         63.4990  109.9330   74.2730 C.2   230  ALA230      0.2592
     23  O         62.7260  109.0740   74.6880 O.2   230  ALA230     -0.2718
     24  CB        62.9060  112.2850   74.8580 C.3   230  ALA230      0.0304
     25  N         64.0870  109.8730   73.0570 N.am  231  SER231     -0.1952
     26  CA        63.8910  108.7620   72.1180 C.3   231  SER231      0.1924
     27  C         64.4880  107.4960   72.7060 C.2   231  SER231      0.2314
     28  O         63.8420  106.4490   72.6710 O.2   231  SER231     -0.2863
     29  CB        64.5180  109.0650   70.7600 C.3   231  SER231      0.2116
     30  OG        63.8890  110.1680   70.1300 O.3   231  SER231     -0.2180
     31  N         62.2450  106.2930   75.7400 N.3   234  LEU234     -0.1245
     32  CA        61.0310  105.5960   75.3090 C.3   234  LEU234      0.1561
     33  C         61.3260  104.1890   74.7780 C.2   234  LEU234      0.2260
     34  O         60.4980  103.2980   74.9750 O.2   234  LEU234     -0.2867
     35  CB        60.2680  106.4090   74.2540 C.3   234  LEU234      0.0270
     36  CG        59.7500  107.7880   74.6710 C.3   234  LEU234      0.0019
     37  CD1       59.0830  108.4830   73.5150 C.3   234  LEU234      0.0001
     38  CD2       58.7900  107.7000   75.8420 C.3   234  LEU234      0.0001
     39  N         57.2540  113.1850   77.9870 N.3   547  ASN547     -0.1225
     40  CA        58.4330  113.5780   77.2090 C.3   547  ASN547      0.1785
     41  C         58.0720  114.4350   75.9890 C.2   547  ASN547      0.2597
     42  O         58.8070  115.3770   75.6880 O.2   547  ASN547     -0.2718
     43  CB        59.2420  112.3570   76.7750 C.3   547  ASN547      0.1169
     44  CG        60.1260  111.7980   77.8640 C.2   547  ASN547      0.2627
     45  OD1       61.1520  112.3800   78.2360 O.2   547  ASN547     -0.2716
     46  ND2       59.7650  110.6410   78.3830 N.am  547  ASN547     -0.0877
     47  N         56.9430  114.1280   75.3090 N.am  548  CYS548     -0.1970
     48  CA        56.4810  114.8870   74.1400 C.3   548  CYS548      0.1712
     49  C         56.0130  116.2820   74.5510 C.2   548  CYS548      0.2296
     50  O         56.2680  117.2450   73.8260 O.2   548  CYS548     -0.2864
     51  CB        55.3840  114.1370   73.3900 C.3   548  CYS548      0.0983
     52  SG        55.9900  112.7770   72.3610 S.3   548  CYS548     -0.0798
     53  N         59.1360  118.5590   75.7450 N.3   551  ILE551     -0.1231
     54  CA        59.9300  118.9950   74.5930 C.3   551  ILE551      0.1692
     55  C         59.1330  120.0820   73.8420 C.2   551  ILE551      0.2592
     56  O         59.6930  121.1360   73.5440 O.2   551  ILE551     -0.2718
     57  CB        60.3790  117.8120   73.6880 C.3   551  ILE551      0.0266
     58  CG1       61.4890  117.0020   74.3890 C.3   551  ILE551      0.0019
     59  CG2       60.8640  118.2970   72.3050 C.3   551  ILE551      0.0020
     60  CD1       61.7020  115.6120   73.8500 C.3   551  ILE551      0.0001
     61  N         57.8390  119.8430   73.6140 N.am  552  GLY552     -0.1957
     62  CA        56.9410  120.7910   72.9560 C.3   552  GLY552      0.1869
     63  C         56.8180  122.1120   73.6960 C.2   552  GLY552      0.2309
     64  O         56.5990  123.1560   73.0780 O.2   552  GLY552     -0.2863
     65  N         62.9500  126.5060   72.8250 N.3   556  GLN556     -0.1231
     66  CA        63.6710  126.2610   71.5750 C.3   556  GLN556      0.1698
     67  C         62.6850  125.8550   70.4720 C.2   556  GLN556      0.2592
     68  O         62.8010  126.3310   69.3410 O.2   556  GLN556     -0.2718
     69  CB        64.7580  125.1930   71.7700 C.3   556  GLN556      0.0381
     70  CG        65.8790  125.2700   70.7320 C.3   556  GLN556      0.0905
     71  CD        67.1120  124.4710   71.1010 C.2   556  GLN556      0.2608
     72  OE1       67.5310  124.4030   72.2670 O.2   556  GLN556     -0.2717
     73  NE2       67.7640  123.9040   70.0940 N.am  556  GLN556     -0.0878
     74  N         61.6930  125.0150   70.8250 N.am  557  VAL557     -0.1980
     75  CA        60.6450  124.5340   69.9180 C.3   557  VAL557      0.1595
     76  C         59.6200  125.6590   69.6880 C.2   557  VAL557      0.2287
     77  O         59.1780  125.8650   68.5560 O.2   557  VAL557     -0.2864
     78  CB        59.9770  123.2350   70.4440 C.3   557  VAL557      0.0276
     79  CG1       58.9860  122.6780   69.4350 C.3   557  VAL557      0.0022
     80  CG2       61.0200  122.1760   70.7670 C.3   557  VAL557      0.0022
     81  N         60.3050  128.3880   66.9750 N.3   560  VAL560     -0.1231
     82  CA        59.9560  127.9940   65.6060 C.3   560  VAL560      0.1692
     83  C         58.4660  128.3130   65.3440 C.2   560  VAL560      0.2592
     84  O         58.0980  128.6470   64.2150 O.2   560  VAL560     -0.2718
     85  CB        60.2970  126.4940   65.3740 C.3   560  VAL560      0.0266
     86  CG1       59.9020  126.0260   63.9750 C.3   560  VAL560      0.0020
     87  CG2       61.7810  126.2310   65.6220 C.3   560  VAL560      0.0020
     88  N         57.6310  128.2380   66.3980 N.am  561  PHE561     -0.1976
     89  CA        56.1940  128.5090   66.3340 C.3   561  PHE561      0.1639
     90  C         55.8560  129.7310   67.2150 C.2   561  PHE561      0.2290
     91  O         55.4270  129.5630   68.3590 O.2   561  PHE561     -0.2864
     92  CB        55.3960  127.2580   66.7510 C.3   561  PHE561      0.0560
     93  CG        55.6410  126.0530   65.8760 C.ar  561  PHE561     -0.0200
     94  CD1       54.9520  125.8900   64.6810 C.ar  561  PHE561     -0.0042
     95  CD2       56.5570  125.0760   66.2500 C.ar  561  PHE561     -0.0042
     96  CE1       55.1880  124.7810   63.8670 C.ar  561  PHE561     -0.0003
     97  CE2       56.7800  123.9590   65.4420 C.ar  561  PHE561     -0.0003
     98  CZ        56.0970  123.8200   64.2550 C.ar  561  PHE561     -0.0000
     99  N         51.9530  123.6920   66.2940 N.3   568  LEU568     -0.1245
    100  CA        52.9630  123.1160   67.1850 C.3   568  LEU568      0.1561
    101  C         52.3930  121.9100   67.9550 C.2   568  LEU568      0.2260
    102  O         53.0050  120.8400   67.9270 O.2   568  LEU568     -0.2867
    103  CB        53.4590  124.2190   68.1510 C.3   568  LEU568      0.0270
    104  CG        54.0600  123.8220   69.4990 C.3   568  LEU568      0.0019
    105  CD1       55.4730  123.3330   69.3420 C.3   568  LEU568      0.0001
    106  CD2       54.0400  124.9880   70.4510 C.3   568  LEU568      0.0001
    107  N         51.6440  118.9460   65.6790 N.3   571  ILE571     -0.1231
    108  CA        52.8960  118.2470   65.3380 C.3   571  ILE571      0.1692
    109  C         53.2870  117.3120   66.5120 C.2   571  ILE571      0.2591
    110  O         53.5500  116.1280   66.2910 O.2   571  ILE571     -0.2718
    111  CB        54.0670  119.2250   64.9790 C.3   571  ILE571      0.0266
    112  CG1       53.6860  120.2850   63.9010 C.3   571  ILE571      0.0019
    113  CG2       55.3420  118.4700   64.5860 C.3   571  ILE571      0.0020
    114  CD1       53.2720  119.8060   62.4770 C.3   571  ILE571      0.0001
    115  N         53.3060  117.8590   67.7530 N.am  572  VAL572     -0.1980
    116  CA        53.6490  117.1530   68.9930 C.3   572  VAL572      0.1595
    117  C         52.7300  115.9250   69.1660 C.2   572  VAL572      0.2287
    118  O         53.2370  114.8170   69.3590 O.2   572  VAL572     -0.2864
    119  CB        53.5970  118.1080   70.2260 C.3   572  VAL572      0.0276
    120  CG1       53.6970  117.3430   71.5420 C.3   572  VAL572      0.0022
    121  CG2       54.6870  119.1730   70.1540 C.3   572  VAL572      0.0022
    122  N         53.4550  113.2010   66.5680 N.3   575  VAL575     -0.1245
    123  CA        54.6990  112.5210   66.9530 C.3   575  VAL575      0.1561
    124  C         54.3930  111.5500   68.1040 C.2   575  VAL575      0.2260
    125  O         54.8060  110.3930   68.0460 O.2   575  VAL575     -0.2867
    126  CB        55.8240  113.5380   67.3030 C.3   575  VAL575      0.0252
    127  CG1       56.9870  112.8750   68.0350 C.3   575  VAL575      0.0019
    128  CG2       56.3270  114.2480   66.0530 C.3   575  VAL575      0.0019
    129  N         54.7910  107.4850   68.0460 N.3   579  LEU579     -0.1245
    130  CA        55.6470  106.8470   69.0440 C.3   579  LEU579      0.1561
    131  C         54.8720  105.7910   69.8250 C.2   579  LEU579      0.2260
    132  O         55.4130  104.7100   70.0460 O.2   579  LEU579     -0.2867
    133  CB        56.2660  107.8740   70.0080 C.3   579  LEU579      0.0270
    134  CG        57.3630  108.7820   69.4510 C.3   579  LEU579      0.0019
    135  CD1       57.5510  109.9860   70.3300 C.3   579  LEU579      0.0001
    136  CD2       58.6790  108.0460   69.3110 C.3   579  LEU579      0.0001
@<TRIPOS>BOND
     1   114   112    1
     2    96    98   ar
     3    96    94   ar
     4   112   111    1
     5    86    85    1
     6    84    83    2
     7    98    97   ar
     8   113   111    1
     9    94    93   ar
    10   111   108    1
    11   108   107    1
    12   108   109    1
    13    83    82    1
    14    83    88   am
    15    85    82    1
    16    85    87    1
    17    97    95   ar
    18    82    81    1
    19    93    95   ar
    20    93    92    1
    21   128   126    1
    22   110   109    2
    23    99   100    1
    24    89    88    1
    25    89    92    1
    26    89    90    1
    27   109   115   am
    28   122   123    1
    29   123   126    1
    30   123   124    1
    31    12    11    1
    32    10    11   ar
    33    10     8   ar
    34   100   101    1
    35   100   103    1
    36    90    91    2
    37   126   127    1
    38    11     9   ar
    39     8     6   ar
    40   115   116    1
    41   102   101    2
    42   125   124    2
    43   129   130    1
    44   103   104    1
    45    77    76    2
    46     9     7   ar
    47   116   117    1
    48   116   119    1
    49     6     7   ar
    50     6     5    1
    51   130   131    1
    52   130   133    1
    53    18    17    1
    54   117   118    2
    55   136   134    1
    56    68    67    2
    57   105   104    1
    58    79    78    1
    59   134   133    1
    60   134   135    1
    61   104   106    1
    62    76    75    1
    63     5     2    1
    64   131   132    2
    65    75    78    1
    66    75    74    1
    67    17    19    1
    68    17    14    1
    69    73    71   am
    70    30    29    1
    71   121   119    1
    72   119   120    1
    73    78    80    1
    74    67    74   am
    75    67    66    1
    76     3     2    1
    77     3     4    2
    78    70    71    1
    79    70    69    1
    80    29    26    1
    81     2     1    1
    82    71    72    2
    83    14    15    1
    84    14    13    1
    85    15    16    2
    86    66    69    1
    87    66    65    1
    88    26    27    1
    89    26    25    1
    90    59    57    1
    91    52    51    1
    92    28    27    2
    93    62    61    1
    94    62    63    1
    95    25    22   am
    96    64    63    2
    97    51    48    1
    98    37    36    1
    99    56    55    2
   100    61    55   am
   101    57    58    1
   102    57    54    1
   103    50    49    2
   104    55    54    1
   105    60    58    1
   106    48    49    1
   107    48    47    1
   108    35    36    1
   109    35    32    1
   110    22    23    2
   111    22    21    1
   112    54    53    1
   113    36    38    1
   114    33    34    2
   115    33    32    1
   116    24    21    1
   117    20    21    1
   118    32    31    1
   119    47    41   am
   120    42    41    2
   121    41    40    1
   122    43    40    1
   123    43    44    1
   124    40    39    1
   125    44    45    2
   126    44    46   am
