@<TRIPOS>MOLECULE
tmp/5oc9A03.pdb
 114 106 0 0 0
SMALL
GASTEIGER

@<TRIPOS>ATOM
      1  N         61.7110   88.6960   57.4460 N.3   287  ILE287     -0.1245
      2  CA        60.5210   89.4680   57.8160 C.3   287  ILE287      0.1561
      3  C         60.8820   90.9460   58.0620 C.2   287  ILE287      0.2260
      4  O         60.3110   91.8170   57.4080 O.2   287  ILE287     -0.2867
      5  CB        59.7900   88.8280   59.0500 C.3   287  ILE287      0.0252
      6  CG1       59.0200   87.5580   58.6370 C.3   287  ILE287      0.0019
      7  CG2       58.8440   89.8210   59.7550 C.3   287  ILE287      0.0019
      8  CD1       58.6700   86.6040   59.7840 C.3   287  ILE287      0.0001
      9  N         61.1150   92.0290   53.9220 N.3   291  SER291     -0.1202
     10  CA        59.6730   92.1890   53.7600 C.3   291  SER291      0.2020
     11  C         59.1300   93.4990   54.3430 C.2   291  SER291      0.2618
     12  O         58.4370   94.2200   53.6260 O.2   291  SER291     -0.2717
     13  CB        58.9420   91.0050   54.3730 C.3   291  SER291      0.2103
     14  OG        59.1220   89.8560   53.5620 O.3   291  SER291     -0.2182
     15  N         59.4370   93.8030   55.6210 N.am  292  LEU292     -0.1979
     16  CA        58.9750   95.0170   56.2970 C.3   292  LEU292      0.1596
     17  C         59.4110   96.3000   55.5410 C.2   292  LEU292      0.2287
     18  O         58.5220   97.1180   55.2790 O.2   292  LEU292     -0.2864
     19  CB        59.4400   95.0560   57.7610 C.3   292  LEU292      0.0297
     20  CG        58.8050   96.1310   58.6330 C.3   292  LEU292      0.0022
     21  CD1       57.5880   95.5920   59.3740 C.3   292  LEU292      0.0001
     22  CD2       59.8110   96.6820   59.6080 C.3   292  LEU292      0.0001
     23  N         57.2090   96.6400   52.2610 N.3   295  VAL295     -0.1231
     24  CA        55.8190   97.0120   52.5470 C.3   295  VAL295      0.1692
     25  C         55.7580   98.5350   52.7960 C.2   295  VAL295      0.2592
     26  O         54.8620   99.2000   52.2710 O.2   295  VAL295     -0.2718
     27  CB        55.2330   96.1760   53.7250 C.3   295  VAL295      0.0266
     28  CG1       53.8510   96.6740   54.1500 C.3   295  VAL295      0.0020
     29  CG2       55.1680   94.6950   53.3660 C.3   295  VAL295      0.0020
     30  N         56.7550   99.0820   53.5250 N.am  296  CYS296     -0.1970
     31  CA        56.8710  100.5090   53.8340 C.3   296  CYS296      0.1712
     32  C         57.1540  101.3330   52.5770 C.2   296  CYS296      0.2296
     33  O         56.6950  102.4750   52.4950 O.2   296  CYS296     -0.2864
     34  CB        57.9340  100.7470   54.8990 C.3   296  CYS296      0.0983
     35  SG        57.5000  100.0860   56.5280 S.3   296  CYS296     -0.0798
     36  N         53.8480  101.4400   50.6150 N.3   299  LEU299     -0.1231
     37  CA        52.9460  102.3050   51.3750 C.3   299  LEU299      0.1693
     38  C         53.2910  103.7760   51.1130 C.2   299  LEU299      0.2592
     39  O         52.3790  104.5950   50.9870 O.2   299  LEU299     -0.2718
     40  CB        53.0250  101.9690   52.8760 C.3   299  LEU299      0.0284
     41  CG        51.8620  101.1630   53.4870 C.3   299  LEU299      0.0019
     42  CD1       51.5620   99.8800   52.7110 C.3   299  LEU299      0.0001
     43  CD2       52.1450  100.8250   54.9300 C.3   299  LEU299      0.0001
     44  N         54.6010  104.0980   50.9830 N.am  300  TYR300     -0.1976
     45  CA        55.0810  105.4470   50.6650 C.3   300  TYR300      0.1639
     46  C         54.7470  105.7890   49.2090 C.2   300  TYR300      0.2290
     47  O         54.3520  106.9220   48.9240 O.2   300  TYR300     -0.2864
     48  CB        56.5950  105.5840   50.9240 C.3   300  TYR300      0.0560
     49  CG        57.1560  106.9430   50.5510 C.ar  300  TYR300     -0.0198
     50  CD1       57.0090  108.0370   51.4000 C.ar  300  TYR300     -0.0009
     51  CD2       57.8270  107.1370   49.3470 C.ar  300  TYR300     -0.0009
     52  CE1       57.5100  109.2920   51.0570 C.ar  300  TYR300      0.0417
     53  CE2       58.3280  108.3890   48.9910 C.ar  300  TYR300      0.0417
     54  CZ        58.1690  109.4640   49.8500 C.ar  300  TYR300      0.1957
     55  OH        58.6670  110.7000   49.5080 O.3   300  TYR300     -0.2866
     56  N         51.0700  106.7530   48.7400 N.3   303  LEU303     -0.1245
     57  CA        50.8640  108.1450   49.1340 C.3   303  LEU303      0.1561
     58  C         51.4010  109.0880   48.0600 C.2   303  LEU303      0.2260
     59  O         50.8030  110.1360   47.8220 O.2   303  LEU303     -0.2867
     60  CB        51.5370  108.4370   50.4840 C.3   303  LEU303      0.0270
     61  CG        50.9250  107.7700   51.7130 C.3   303  LEU303      0.0019
     62  CD1       51.9440  107.6380   52.8230 C.3   303  LEU303      0.0001
     63  CD2       49.6940  108.5140   52.1990 C.3   303  LEU303      0.0001
     64  N         59.4340   83.8740   53.0450 N.3   359  GLU359     -0.1245
     65  CA        59.6380   83.9910   54.5020 C.3   359  GLU359      0.1567
     66  C         59.7560   82.6020   55.1460 C.2   359  GLU359      0.2260
     67  O         60.4280   82.4490   56.1660 O.2   359  GLU359     -0.2867
     68  CB        58.4720   84.7580   55.1510 C.3   359  GLU359      0.0388
     69  CG        58.6020   86.2710   55.1100 C.3   359  GLU359      0.1160
     70  CD        57.2980   87.0480   55.1630 C.2   359  GLU359      0.3649
     71  OE1       56.2620   86.4770   55.5720 O.co2 359  GLU359     -0.2457
     72  OE2       57.3170   88.2470   54.8090 O.co2 359  GLU359     -0.2457
     73  N         50.2070   86.4980   57.9940 N.3   370  HIS370     -0.1241
     74  CA        51.2530   87.3970   57.5030 C.3   370  HIS370      0.1621
     75  C         50.8890   87.9630   56.1290 C.2   370  HIS370      0.2264
     76  O         51.0840   89.1580   55.9070 O.2   370  HIS370     -0.2867
     77  CB        52.6110   86.6910   57.4640 C.3   370  HIS370      0.0745
     78  CG        53.2430   86.5500   58.8110 C.ar  370  HIS370      0.0817
     79  ND1       54.3730   87.2650   59.1510 N.ar  370  HIS370     -0.2268
     80  CD2       52.8690   85.7930   59.8700 C.ar  370  HIS370      0.1154
     81  CE1       54.6560   86.9180   60.3980 C.ar  370  HIS370      0.1986
     82  NE2       53.7780   86.0340   60.8720 N.ar  370  HIS370     -0.2212
     83  N         47.9090   90.5160   56.5130 N.3   373  LEU373     -0.1231
     84  CA        48.4670   91.7360   57.0960 C.3   373  LEU373      0.1693
     85  C         49.1890   92.6210   56.0640 C.2   373  LEU373      0.2591
     86  O         49.0160   93.8380   56.1120 O.2   373  LEU373     -0.2718
     87  CB        49.4180   91.3860   58.2560 C.3   373  LEU373      0.0284
     88  CG        49.7750   92.5120   59.2340 C.3   373  LEU373      0.0019
     89  CD1       48.5690   92.9490   60.0580 C.3   373  LEU373      0.0001
     90  CD2       50.8710   92.0760   60.1690 C.3   373  LEU373      0.0001
     91  N         49.9680   92.0240   55.1370 N.am  374  LYS374     -0.1980
     92  CA        50.7060   92.7630   54.1020 C.3   374  LYS374      0.1596
     93  C         49.7600   93.4220   53.0950 C.2   374  LYS374      0.2287
     94  O         49.8370   94.6340   52.8850 O.2   374  LYS374     -0.2864
     95  CB        51.6870   91.8460   53.3550 C.3   374  LYS374      0.0298
     96  CG        52.9020   91.4230   54.1620 C.3   374  LYS374      0.0038
     97  CD        53.4020   90.0590   53.7100 C.3   374  LYS374      0.0206
     98  CE        54.5730   90.1310   52.7680 C.3   374  LYS374      0.1093
     99  NZ        55.8450   90.2500   53.5100 N.3   374  LYS374     -0.1314
    100  N         47.1470   96.2960   54.8020 N.3   377  VAL377     -0.1245
    101  CA        47.6730   97.6480   55.0810 C.3   377  VAL377      0.1561
    102  C         47.7740   98.4620   53.7700 C.2   377  VAL377      0.2260
    103  O         47.5330   99.6700   53.7850 O.2   377  VAL377     -0.2867
    104  CB        49.0000   97.6910   55.8990 C.3   377  VAL377      0.0252
    105  CG1       48.7820   97.1740   57.3120 C.3   377  VAL377      0.0019
    106  CG2       50.1360   96.9440   55.2070 C.3   377  VAL377      0.0019
    107  N         45.2460  101.6460   52.9180 N.3   381  LEU381     -0.1245
    108  CA        45.8720  102.9260   52.5940 C.3   381  LEU381      0.1561
    109  C         45.3750  103.4820   51.2570 C.2   381  LEU381      0.2260
    110  O         44.9830  104.6400   51.2190 O.2   381  LEU381     -0.2867
    111  CB        47.3970  102.8130   52.5900 C.3   381  LEU381      0.0270
    112  CG        48.1360  104.0820   52.9710 C.3   381  LEU381      0.0019
    113  CD1       49.3250  103.7700   53.8360 C.3   381  LEU381      0.0001
    114  CD2       48.5580  104.8580   51.7440 C.3   381  LEU381      0.0001
@<TRIPOS>BOND
     1    59    58    2
     2    58    57    1
     3    56    57    1
     4    47    46    2
     5    53    51   ar
     6    53    54   ar
     7    57    60    1
     8    46    45    1
     9    51    49   ar
    10    55    54    1
    11    54    52   ar
    12    60    61    1
    13    49    48    1
    14    49    50   ar
    15    36    37    1
    16    45    48    1
    17    45    44    1
    18    44    38   am
    19    39    38    2
    20    52    50   ar
    21    38    37    1
    22   110   109    2
    23   109   108    1
    24    37    40    1
    25    61    63    1
    26    61    62    1
    27   114   112    1
    28    23    24    1
    29    26    25    2
    30    33    32    2
    31    24    25    1
    32    24    27    1
    33    32    31    1
    34   111   108    1
    35   111   112    1
    36   108   107    1
    37    42    41    1
    38    98    99    1
    39    98    97    1
    40    25    30   am
    41    40    41    1
    42    94    93    2
    43   112   113    1
    44    64    65    1
    45    93    92    1
    46    95    92    1
    47    95    96    1
    48    29    27    1
    49    41    43    1
    50    30    31    1
    51    14    13    1
    52    12    11    2
    53    97    96    1
    54    27    28    1
    55    10     9    1
    56    10    11    1
    57    10    13    1
    58   102   103    2
    59   102   101    1
    60    31    34    1
    61    92    91    1
    62    11    15   am
    63    65    66    1
    64    65    68    1
    65   100   101    1
    66    72    70   ar
    67    34    35    1
    68   101   104    1
    69    69    68    1
    70    69    70    1
    71    91    85   am
    72    66    67    2
    73    70    71   ar
    74   106   104    1
    75    18    17    2
    76    17    16    1
    77    15    16    1
    78   104   105    1
    79    76    75    2
    80    85    86    2
    81    85    84    1
    82    75    74    1
    83    16    19    1
    84    83    84    1
    85    84    87    1
    86     4     3    2
    87     1     2    1
    88    77    74    1
    89    77    78    1
    90    74    73    1
    91    19    20    1
    92     2     3    1
    93     2     5    1
    94    87    88    1
    95    20    21    1
    96    20    22    1
    97     6     5    1
    98     6     8    1
    99    78    79   ar
   100    78    80   ar
   101     5     7    1
   102    79    81   ar
   103    88    89    1
   104    88    90    1
   105    80    82   ar
   106    81    82   ar
