@<TRIPOS>MOLECULE
tmp/5oc9B06.pdb
 81 76 0 0 0
SMALL
GASTEIGER

@<TRIPOS>ATOM
      1  N         46.4250   97.0090   92.9070 N.3   379  LEU379     -0.1245
      2  CA        45.8440   97.9430   91.9380 C.3   379  LEU379      0.1561
      3  C         45.1150   99.1270   92.6040 C.2   379  LEU379      0.2260
      4  O         45.2650  100.2540   92.1310 O.2   379  LEU379     -0.2867
      5  CB        44.8910   97.2020   90.9850 C.3   379  LEU379      0.0270
      6  CG        44.5100   97.9140   89.6820 C.3   379  LEU379      0.0019
      7  CD1       45.7090   98.0550   88.7450 C.3   379  LEU379      0.0001
      8  CD2       43.4080   97.1600   88.9700 C.3   379  LEU379      0.0001
      9  N         47.8640  101.2380   94.7420 N.3   382  LEU382     -0.1231
     10  CA        48.8400  101.7790   93.7990 C.3   382  LEU382      0.1693
     11  C         48.3470  103.0400   93.0530 C.2   382  LEU382      0.2591
     12  O         49.1070  104.0060   92.9900 O.2   382  LEU382     -0.2718
     13  CB        49.2530  100.6940   92.7990 C.3   382  LEU382      0.0284
     14  CG        50.3030  101.0400   91.7720 C.3   382  LEU382      0.0019
     15  CD1       51.5890  101.4850   92.4270 C.3   382  LEU382      0.0001
     16  CD2       50.5560   99.8730   90.8970 C.3   382  LEU382      0.0001
     17  N         47.1100  103.0350   92.4910 N.am  383  VAL383     -0.1980
     18  CA        46.5710  104.1910   91.7540 C.3   383  VAL383      0.1595
     19  C         46.4530  105.4140   92.6850 C.2   383  VAL383      0.2287
     20  O         46.6850  106.5370   92.2400 O.2   383  VAL383     -0.2864
     21  CB        45.2390  103.9320   90.9880 C.3   383  VAL383      0.0276
     22  CG1       45.4270  102.9620   89.8310 C.3   383  VAL383      0.0022
     23  CG2       44.1170  103.4600   91.9040 C.3   383  VAL383      0.0022
     24  N         50.2220  106.5080   93.5820 N.3   386  PHE386     -0.1241
     25  CA        50.7970  107.1050   92.3760 C.3   386  PHE386      0.1605
     26  C         50.2770  108.5270   92.2070 C.2   386  PHE386      0.2264
     27  O         51.0840  109.4340   92.0110 O.2   386  PHE386     -0.2867
     28  CB        50.4910  106.2520   91.1190 C.3   386  PHE386      0.0534
     29  CG        50.4860  106.9950   89.7990 C.ar  386  PHE386     -0.0203
     30  CD1       51.6780  107.3710   89.1880 C.ar  386  PHE386     -0.0042
     31  CD2       49.2910  107.3080   89.1630 C.ar  386  PHE386     -0.0042
     32  CE1       51.6720  108.0740   87.9790 C.ar  386  PHE386     -0.0003
     33  CE2       49.2870  108.0030   87.9480 C.ar  386  PHE386     -0.0003
     34  CZ        50.4780  108.3810   87.3640 C.ar  386  PHE386     -0.0000
     35  N         58.8020  101.3340   91.5520 N.3   479  PHE479     -0.1241
     36  CA        57.7740  101.8270   90.6310 C.3   479  PHE479      0.1605
     37  C         57.8400  103.3460   90.5480 C.2   479  PHE479      0.2264
     38  O         57.8200  103.8920   89.4440 O.2   479  PHE479     -0.2867
     39  CB        56.3710  101.3650   91.0560 C.3   479  PHE479      0.0534
     40  CG        55.2410  101.9890   90.2660 C.ar  479  PHE479     -0.0203
     41  CD1       54.8870  101.4920   89.0160 C.ar  479  PHE479     -0.0042
     42  CD2       54.5240  103.0640   90.7780 C.ar  479  PHE479     -0.0042
     43  CE1       53.8430  102.0670   88.2860 C.ar  479  PHE479     -0.0003
     44  CE2       53.4770  103.6370   90.0480 C.ar  479  PHE479     -0.0003
     45  CZ        53.1370  103.1260   88.8120 C.ar  479  PHE479     -0.0000
     46  N         51.7530   95.3790   84.5080 N.3   534  LEU534     -0.1231
     47  CA        50.7790   96.3090   83.9270 C.3   534  LEU534      0.1693
     48  C         51.0430   97.7290   84.4250 C.2   534  LEU534      0.2591
     49  O         50.9940   98.6720   83.6340 O.2   534  LEU534     -0.2718
     50  CB        49.3470   95.8710   84.2860 C.3   534  LEU534      0.0284
     51  CG        48.2040   96.7640   83.8030 C.3   534  LEU534      0.0019
     52  CD1       47.6730   96.2990   82.4560 C.3   534  LEU534      0.0001
     53  CD2       47.0920   96.8100   84.8240 C.3   534  LEU534      0.0001
     54  N         51.3300   97.8690   85.7330 N.am  535  ALA535     -0.1980
     55  CA        51.6210   99.1370   86.4010 C.3   535  ALA535      0.1597
     56  C         52.8340   99.8270   85.7770 C.2   535  ALA535      0.2287
     57  O         52.7450  101.0010   85.4170 O.2   535  ALA535     -0.2864
     58  CB        51.8650   98.8890   87.8780 C.3   535  ALA535      0.0319
     59  N         52.1530  100.8140   82.0960 N.3   538  THR538     -0.1203
     60  CA        51.2850  101.9940   82.0320 C.3   538  THR538      0.1994
     61  C         52.1490  103.2530   82.2560 C.2   538  THR538      0.2617
     62  O         51.9400  104.2640   81.5810 O.2   538  THR538     -0.2717
     63  CB        50.1360  101.8520   83.0360 C.3   538  THR538      0.1784
     64  OG1       49.3470  100.7230   82.6550 O.3   538  THR538     -0.2211
     65  CG2       49.2500  103.0960   83.1190 C.3   538  THR538      0.0376
     66  N         53.1460  103.1630   83.1660 N.am  539  MET539     -0.1979
     67  CA        54.1020  104.2320   83.4680 C.3   539  MET539      0.1605
     68  C         54.9400  104.5630   82.2190 C.2   539  MET539      0.2287
     69  O         55.1940  105.7410   81.9540 O.2   539  MET539     -0.2864
     70  CB        55.0050  103.8280   84.6500 C.3   539  MET539      0.0413
     71  CG        55.9130  104.9470   85.1580 C.3   539  MET539      0.0598
     72  SD        55.0350  106.4310   85.7110 S.3   539  MET539     -0.1393
     73  CE        54.6260  105.9700   87.3540 C.3   539  MET539      0.0692
     74  N         52.6120  106.5040   79.8420 N.3   542  ILE542     -0.1245
     75  CA        52.4660  107.8790   80.3320 C.3   542  ILE542      0.1561
     76  C         53.7340  108.6850   79.9800 C.2   542  ILE542      0.2260
     77  O         53.6160  109.8620   79.6270 O.2   542  ILE542     -0.2867
     78  CB        52.1370  107.9110   81.8620 C.3   542  ILE542      0.0252
     79  CG1       50.7020  107.4100   82.1300 C.3   542  ILE542      0.0019
     80  CG2       52.3360  109.3160   82.4770 C.3   542  ILE542      0.0019
     81  CD1       50.4890  106.7570   83.4750 C.3   542  ILE542      0.0001
@<TRIPOS>BOND
     1    77    76    2
     2    74    75    1
     3    76    75    1
     4    75    78    1
     5    62    61    2
     6    78    79    1
     7    78    80    1
     8    69    68    2
     9    60    59    1
    10    60    61    1
    11    60    63    1
    12    79    81    1
    13    68    67    1
    14    61    66   am
    15    52    51    1
    16    64    63    1
    17    63    65    1
    18    66    67    1
    19    67    70    1
    20    49    48    2
    21    51    50    1
    22    51    53    1
    23    47    50    1
    24    47    48    1
    25    47    46    1
    26    48    54   am
    27    70    71    1
    28    71    72    1
    29    57    56    2
    30    72    73    1
    31    54    55    1
    32    56    55    1
    33    55    58    1
    34    34    33   ar
    35    34    32   ar
    36    33    31   ar
    37    32    30   ar
    38    43    45   ar
    39    43    41   ar
    40     7     6    1
    41    45    44   ar
    42     8     6    1
    43    41    40   ar
    44    31    29   ar
    45    30    29   ar
    46    38    37    2
    47     6     5    1
    48    29    28    1
    49    22    21    1
    50    44    42   ar
    51    40    42   ar
    52    40    39    1
    53    37    36    1
    54    36    39    1
    55    36    35    1
    56    16    14    1
    57     5     2    1
    58    21    18    1
    59    21    23    1
    60    28    25    1
    61    18    17    1
    62    18    19    1
    63    14    15    1
    64    14    13    1
    65     2     3    1
    66     2     1    1
    67    27    26    2
    68     4     3    2
    69    26    25    1
    70    20    19    2
    71    25    24    1
    72    17    11   am
    73    13    10    1
    74    12    11    2
    75    11    10    1
    76    10     9    1
