@<TRIPOS>MOLECULE
tmp/5oceA01.pdb
 108 106 0 0 0
SMALL
GASTEIGER

@<TRIPOS>ATOM
      1  N        -27.4190   79.1660   90.5800 N.3     7  ARG7       -0.1245
      2  CA       -28.5940   79.9930   90.8370 C.3     7  ARG7        0.1563
      3  C        -29.8940   79.2360   90.5750 C.2     7  ARG7        0.2260
      4  O        -30.9100   79.8350   90.2120 O.2     7  ARG7       -0.2867
      5  CB       -28.5430   81.2710   90.0040 C.3     7  ARG7        0.0307
      6  CG       -27.3730   82.1770   90.3460 C.3     7  ARG7        0.0489
      7  CD       -27.6250   83.6020   89.8770 C.3     7  ARG7        0.2205
      8  NE       -26.5470   84.5040   90.2700 N.pl3   7  ARG7       -0.0865
      9  CZ       -26.3530   84.9500   91.5080 C.cat   7  ARG7        0.5346
     10  NH1      -25.3450   85.7710   91.7640 N.pl3   7  ARG7        0.1354
     11  NH2      -27.1590   84.5740   92.4920 N.pl3   7  ARG7        0.1354
     12  N        -40.7930   82.9370  105.0380 N.3    44  TYR44      -0.1227
     13  CA       -40.0940   84.1740  104.7020 C.3    44  TYR44       0.1736
     14  C        -40.8040   84.9050  103.5710 C.2    44  TYR44       0.2595
     15  O        -41.0360   86.1170  103.6440 O.2    44  TYR44      -0.2718
     16  CB       -38.6440   83.8820  104.3190 C.3    44  TYR44       0.0548
     17  CG       -37.9520   85.0660  103.6770 C.ar   44  TYR44      -0.0200
     18  CD1      -37.4350   86.0970  104.4510 C.ar   44  TYR44      -0.0009
     19  CD2      -37.8270   85.1580  102.2970 C.ar   44  TYR44      -0.0009
     20  CE1      -36.8080   87.1830  103.8680 C.ar   44  TYR44       0.0417
     21  CE2      -37.2020   86.2400  101.7060 C.ar   44  TYR44       0.0417
     22  CZ       -36.6950   87.2490  102.4960 C.ar   44  TYR44       0.1957
     23  OH       -36.0720   88.3280  101.9110 O.3    44  TYR44      -0.2866
     24  N        -41.1570   84.1770  102.5110 N.am   45  TRP45      -0.1976
     25  CA       -41.8100   84.8030  101.3680 C.3    45  TRP45       0.1640
     26  C        -43.2160   85.2660  101.7290 C.2    45  TRP45       0.2290
     27  O        -43.6570   86.3310  101.2820 O.2    45  TRP45      -0.2864
     28  CB       -41.8230   83.8330  100.1880 C.3    45  TRP45       0.0576
     29  CG       -40.4630   83.6800   99.5870 C.ar   45  TRP45       0.0006
     30  CD1      -39.6720   82.5680   99.6110 C.ar   45  TRP45       0.0946
     31  CD2      -39.7180   84.6870   98.8940 C.ar   45  TRP45       0.0152
     32  NE1      -38.4850   82.8180   98.9670 N.ar   45  TRP45      -0.2442
     33  CE2      -38.4890   84.1120   98.5180 C.ar   45  TRP45       0.0810
     34  CE3      -39.9740   86.0180   98.5530 C.ar   45  TRP45       0.0012
     35  CZ2      -37.5190   84.8210   97.8150 C.ar   45  TRP45       0.0191
     36  CZ3      -39.0100   86.7190   97.8540 C.ar   45  TRP45       0.0001
     37  CH2      -37.7980   86.1200   97.4930 C.ar   45  TRP45       0.0015
     38  N        -28.2790   83.6380  105.1540 N.3    87  HIS87      -0.1241
     39  CA       -29.6660   83.6400  104.7060 C.3    87  HIS87       0.1621
     40  C        -30.5300   82.7940  105.6310 C.2    87  HIS87       0.2264
     41  O        -31.0310   81.7390  105.2280 O.2    87  HIS87      -0.2867
     42  CB       -29.7610   83.1190  103.2700 C.3    87  HIS87       0.0745
     43  CG       -29.1010   84.0060  102.2610 C.ar   87  HIS87       0.0817
     44  ND1      -27.7330   84.1410  102.1710 N.ar   87  HIS87      -0.2268
     45  CD2      -29.6200   84.7920  101.2870 C.ar   87  HIS87       0.1154
     46  CE1      -27.4360   84.9790  101.1940 C.ar   87  HIS87       0.1986
     47  NE2      -28.5630   85.3880  100.6410 N.ar   87  HIS87      -0.2212
     48  N        -34.3880   88.2630  107.5920 N.3    91  TRP91      -0.1241
     49  CA       -33.4650   89.3750  107.7740 C.3    91  TRP91       0.1605
     50  C        -34.0890   90.7060  107.3880 C.2    91  TRP91       0.2264
     51  O        -33.6310   91.7500  107.8620 O.2    91  TRP91      -0.2867
     52  CB       -32.1910   89.1580  106.9530 C.3    91  TRP91       0.0550
     53  CG       -32.4530   88.7810  105.5310 C.ar   91  TRP91       0.0003
     54  CD1      -32.5680   89.6270  104.4670 C.ar   91  TRP91       0.0946
     55  CD2      -32.6400   87.4590  105.0150 C.ar   91  TRP91       0.0152
     56  NE1      -32.8140   88.9130  103.3200 N.ar   91  TRP91      -0.2442
     57  CE2      -32.8630   87.5790  103.6300 C.ar   91  TRP91       0.0810
     58  CE3      -32.6430   86.1850  105.5910 C.ar   91  TRP91       0.0012
     59  CZ2      -33.0830   86.4740  102.8120 C.ar   91  TRP91       0.0191
     60  CZ3      -32.8630   85.0890  104.7770 C.ar   91  TRP91       0.0001
     61  CH2      -33.0790   85.2410  103.4020 C.ar   91  TRP91       0.0015
     62  N        -27.7570   92.6750   94.1200 N.3   110  GLU110     -0.1245
     63  CA       -27.3760   92.1490   92.8180 C.3   110  GLU110      0.1567
     64  C        -28.3460   92.6480   91.7560 C.2   110  GLU110      0.2260
     65  O        -29.5630   92.6660   91.9610 O.2   110  GLU110     -0.2867
     66  CB       -27.3610   90.6200   92.8500 C.3   110  GLU110      0.0388
     67  CG       -27.1440   89.9640   91.4920 C.3   110  GLU110      0.1160
     68  CD       -27.0890   88.4530   91.5820 C.2   110  GLU110      0.3649
     69  OE1      -27.8020   87.8820   92.4340 O.co2 110  GLU110     -0.2457
     70  OE2      -26.3390   87.8370   90.7980 O.co2 110  GLU110     -0.2457
     71  N        -30.4360   92.0610   89.1620 N.3   112  LEU112     -0.1245
     72  CA       -31.1140   90.9130   88.5840 C.3   112  LEU112      0.1561
     73  C        -31.7180   91.2530   87.2250 C.2   112  LEU112      0.2260
     74  O        -31.9280   92.4180   86.8780 O.2   112  LEU112     -0.2867
     75  CB       -32.2160   90.4190   89.5210 C.3   112  LEU112      0.0270
     76  CG       -31.7920   90.1020   90.9550 C.3   112  LEU112      0.0019
     77  CD1      -33.0150   89.8400   91.8200 C.3   112  LEU112      0.0001
     78  CD2      -30.8460   88.9140   90.9870 C.3   112  LEU112      0.0001
     79  N        -37.3740   94.6760   93.8510 N.3   121  PHE121     -0.1241
     80  CA       -36.6470   94.3660   95.0760 C.3   121  PHE121      0.1605
     81  C        -36.1460   95.6350   95.7530 C.2   121  PHE121      0.2264
     82  O        -36.1660   95.7380   96.9840 O.2   121  PHE121     -0.2867
     83  CB       -35.4750   93.4330   94.7690 C.3   121  PHE121      0.0534
     84  CG       -35.8630   91.9850   94.6590 C.ar  121  PHE121     -0.0203
     85  CD1      -36.0530   91.2130   95.7930 C.ar  121  PHE121     -0.0042
     86  CD2      -36.0280   91.3950   93.4180 C.ar  121  PHE121     -0.0042
     87  CE1      -36.4080   89.8810   95.6890 C.ar  121  PHE121     -0.0003
     88  CE2      -36.3810   90.0650   93.3080 C.ar  121  PHE121     -0.0003
     89  CZ       -36.5700   89.3070   94.4450 C.ar  121  PHE121     -0.0000
     90  N        -37.3640   96.8160   99.5660 N.3   125  ARG125     -0.1245
     91  CA       -36.4660   97.0610  100.6880 C.3   125  ARG125      0.1563
     92  C        -36.3770   98.5420  101.0310 C.2   125  ARG125      0.2260
     93  O        -36.1810   98.8940  102.2000 O.2   125  ARG125     -0.2867
     94  CB       -35.0800   96.5070  100.3660 C.3   125  ARG125      0.0307
     95  CG       -35.1050   95.0400   99.9820 C.3   125  ARG125      0.0489
     96  CD       -33.7890   94.3360  100.2480 C.3   125  ARG125      0.2205
     97  NE       -34.0060   92.9220  100.5400 N.pl3 125  ARG125     -0.0865
     98  CZ       -34.0850   91.9640   99.6210 C.cat 125  ARG125      0.5346
     99  NH1      -33.9690   92.2520   98.3320 N.pl3 125  ARG125      0.1354
    100  NH2      -34.2880   90.7080   99.9940 N.pl3 125  ARG125      0.1354
    101  N        -25.4780   90.1520  103.3780 N.3   159  MET159     -0.1245
    102  CA       -25.6630   88.7030  103.4040 C.3   159  MET159      0.1570
    103  C        -24.3520   88.0500  102.9840 C.2   159  MET159      0.2261
    104  O        -23.9650   88.1140  101.8140 O.2   159  MET159     -0.2867
    105  CB       -26.8050   88.2970  102.4790 C.3   159  MET159      0.0387
    106  CG       -28.1050   89.0400  102.7380 C.3   159  MET159      0.0595
    107  SD       -28.7190   88.8060  104.4170 S.3   159  MET159     -0.1393
    108  CE       -29.0980   87.0580  104.3940 C.3   159  MET159      0.0692
@<TRIPOS>BOND
     1    74    73    2
     2    73    72    1
     3    72    71    1
     4    72    75    1
     5    75    76    1
     6     7     8    1
     7     7     6    1
     8     5     6    1
     9     5     2    1
    10     4     3    2
    11     8     9    2
    12     3     2    1
    13     1     2    1
    14    70    68   ar
    15    76    78    1
    16    76    77    1
    17    67    68    1
    18    67    66    1
    19     9    10    1
    20     9    11    1
    21    68    69   ar
    22    64    65    2
    23    64    63    1
    24    63    66    1
    25    63    62    1
    26    88    86   ar
    27    88    89   ar
    28    86    84   ar
    29    79    80    1
    30    89    87   ar
    31    84    83    1
    32    84    85   ar
    33    83    80    1
    34    80    81    1
    35    87    85   ar
    36    81    82    2
    37    37    35   ar
    38    37    36   ar
    39    35    33   ar
    40    36    34   ar
    41    99    98    1
    42    33    31   ar
    43    33    32   ar
    44    34    31   ar
    45    31    29   ar
    46    32    30   ar
    47    90    91    1
    48    29    30   ar
    49    29    28    1
    50    98   100    1
    51    98    97    2
    52    95    96    1
    53    95    94    1
    54    28    25    1
    55    96    97    1
    56    94    91    1
    57    47    46   ar
    58    47    45   ar
    59    91    92    1
    60    92    93    2
    61    46    44   ar
    62    27    26    2
    63    45    43   ar
    64    25    26    1
    65    25    24    1
    66    21    19   ar
    67    21    22   ar
    68   104   103    2
    69    23    22    1
    70    44    43   ar
    71    43    42    1
    72    19    17   ar
    73   105   106    1
    74   105   102    1
    75    22    20   ar
    76    24    14   am
    77   106   107    1
    78    59    61   ar
    79    59    57   ar
    80   103   102    1
    81    42    39    1
    82    56    57   ar
    83    56    54   ar
    84   101   102    1
    85    61    60   ar
    86    14    15    2
    87    14    13    1
    88    57    55   ar
    89    17    16    1
    90    17    18   ar
    91    20    18   ar
    92    16    13    1
    93   108   107    1
    94    54    53   ar
    95    13    12    1
    96    39    38    1
    97    39    40    1
    98    60    58   ar
    99    55    53   ar
   100    55    58   ar
   101    41    40    2
   102    53    52    1
   103    52    49    1
   104    50    49    1
   105    50    51    2
   106    48    49    1
