@<TRIPOS>MOLECULE
tmp/5ochE01.pdb
 166 157 0 0 0
SMALL
GASTEIGER

@<TRIPOS>ATOM
      1  N        170.3360   51.5750  492.8170 N.3     3  TRP3       -0.1241
      2  CA       170.6530   50.8070  491.6110 C.3     3  TRP3        0.1605
      3  C        171.5250   49.5790  491.9020 C.2     3  TRP3        0.2264
      4  O        171.5020   48.6290  491.1170 O.2     3  TRP3       -0.2867
      5  CB       171.3390   51.7100  490.5760 C.3     3  TRP3        0.0550
      6  CG       170.5330   52.9260  490.2130 C.ar    3  TRP3        0.0003
      7  CD1      170.6130   54.1620  490.7850 C.ar    3  TRP3        0.0946
      8  CD2      169.4970   53.0070  489.2220 C.ar    3  TRP3        0.0152
      9  NE1      169.7030   55.0150  490.2010 N.ar    3  TRP3       -0.2442
     10  CE2      169.0050   54.3320  489.2370 C.ar    3  TRP3        0.0810
     11  CE3      168.9420   52.0900  488.3100 C.ar    3  TRP3        0.0012
     12  CZ2      167.9830   54.7620  488.3790 C.ar    3  TRP3        0.0191
     13  CZ3      167.9330   52.5180  487.4600 C.ar    3  TRP3        0.0001
     14  CH2      167.4640   53.8380  487.5000 C.ar    3  TRP3        0.0015
     15  N        157.3180   51.2060  480.9550 N.3   129  VAL129     -0.1245
     16  CA       158.4870   51.8790  480.3900 C.3   129  VAL129      0.1561
     17  C        159.1360   50.9660  479.3370 C.2   129  VAL129      0.2260
     18  O        159.4760   51.4550  478.2670 O.2   129  VAL129     -0.2867
     19  CB       159.4840   52.3550  481.4830 C.3   129  VAL129      0.0252
     20  CG1      160.8150   52.8080  480.8870 C.3   129  VAL129      0.0019
     21  CG2      158.8740   53.4770  482.3200 C.3   129  VAL129      0.0019
     22  N        169.1680   61.0920  470.9720 N.3   160  VAL160     -0.1245
     23  CA       168.3250   60.2380  471.8220 C.3   160  VAL160      0.1561
     24  C        168.8780   60.2420  473.2660 C.2   160  VAL160      0.2260
     25  O        168.0930   60.2730  474.2120 O.2   160  VAL160     -0.2867
     26  CB       168.1840   58.7930  471.2470 C.3   160  VAL160      0.0252
     27  CG1      167.3160   57.9070  472.1400 C.3   160  VAL160      0.0019
     28  CG2      167.6190   58.8170  469.8310 C.3   160  VAL160      0.0019
     29  N        168.0460   63.9460  475.8850 N.3   163  PRO163     -0.2102
     30  CA       166.9830   64.0800  476.9040 C.3   163  PRO163      0.1504
     31  C        167.0720   63.0220  478.0110 C.2   163  PRO163      0.2575
     32  O        166.4990   63.2300  479.0750 O.2   163  PRO163     -0.2718
     33  CB       165.6940   63.9280  476.0940 C.3   163  PRO163      0.0282
     34  CG       166.0820   63.1180  474.9200 C.3   163  PRO163      0.0208
     35  CD       167.4740   63.5400  474.5830 C.3   163  PRO163      0.0893
     36  N        167.7830   61.9000  477.7610 N.am  164  ALA164     -0.1980
     37  CA       168.0120   60.8340  478.7400 C.3   164  ALA164      0.1597
     38  C        168.9960   61.3150  479.8060 C.2   164  ALA164      0.2287
     39  O        168.8380   60.9820  480.9810 O.2   164  ALA164     -0.2864
     40  CB       168.5450   59.5880  478.0540 C.3   164  ALA164      0.0319
     41  N        166.9960   63.7150  481.7590 N.3   167  GLY167     -0.1210
     42  CA       165.9720   62.9130  482.4210 C.3   167  GLY167      0.1956
     43  C        166.3600   62.3790  483.7800 C.2   167  GLY167      0.2611
     44  O        165.6820   62.6660  484.7690 O.2   167  GLY167     -0.2717
     45  N        167.4570   61.6060  483.8290 N.am  168  VAL168     -0.1979
     46  CA       167.9890   60.9920  485.0510 C.3   168  VAL168      0.1595
     47  C        168.4950   62.0920  486.0090 C.2   168  VAL168      0.2287
     48  O        168.1880   62.0410  487.2010 O.2   168  VAL168     -0.2864
     49  CB       169.0910   59.9350  484.7460 C.3   168  VAL168      0.0276
     50  CG1      169.5300   59.2080  486.0160 C.3   168  VAL168      0.0022
     51  CG2      168.6200   58.9270  483.7020 C.3   168  VAL168      0.0022
     52  N        165.7170   63.7880  487.9830 N.3   171  LEU171     -0.1245
     53  CA       165.1160   62.7910  488.8780 C.3   171  LEU171      0.1561
     54  C        165.9530   62.5760  490.1510 C.2   171  LEU171      0.2260
     55  O        165.4130   62.1420  491.1730 O.2   171  LEU171     -0.2867
     56  CB       164.9390   61.4510  488.1420 C.3   171  LEU171      0.0270
     57  CG       163.7040   61.3160  487.2490 C.3   171  LEU171      0.0019
     58  CD1      163.9090   60.2470  486.1960 C.3   171  LEU171      0.0001
     59  CD2      162.4780   60.9820  488.0660 C.3   171  LEU171      0.0001
     60  N        158.8410   69.6450  483.4840 N.3   237  PHE237     -0.1227
     61  CA       159.8680   68.8180  482.8530 C.3   237  PHE237      0.1736
     62  C        159.4330   68.4200  481.4380 C.2   237  PHE237      0.2595
     63  O        160.2190   68.5770  480.5050 O.2   237  PHE237     -0.2718
     64  CB       160.1590   67.5600  483.6950 C.3   237  PHE237      0.0547
     65  CG       161.2300   66.6610  483.1170 C.ar  237  PHE237     -0.0202
     66  CD1      160.9170   65.7020  482.1550 C.ar  237  PHE237     -0.0042
     67  CD2      162.5510   66.7750  483.5280 C.ar  237  PHE237     -0.0042
     68  CE1      161.9110   64.8870  481.6050 C.ar  237  PHE237     -0.0003
     69  CE2      163.5450   65.9600  482.9770 C.ar  237  PHE237     -0.0003
     70  CZ       163.2150   65.0180  482.0250 C.ar  237  PHE237     -0.0000
     71  N        158.1860   67.9020  481.2950 N.am  238  GLN238     -0.1979
     72  CA       157.5760   67.4440  480.0390 C.3   238  GLN238      0.1601
     73  C        157.5600   68.5490  478.9730 C.2   238  GLN238      0.2287
     74  O        157.8680   68.2800  477.8070 O.2   238  GLN238     -0.2864
     75  CB       156.1460   66.9300  480.2880 C.3   238  GLN238      0.0394
     76  CG       156.0740   65.6220  481.0720 C.3   238  GLN238      0.0908
     77  CD       154.6650   65.2480  481.4760 C.2   238  GLN238      0.2608
     78  OE1      153.8700   66.0830  481.9240 O.2   238  GLN238     -0.2717
     79  NE2      154.3400   63.9670  481.3850 N.am  238  GLN238     -0.0878
     80  N        161.2600   69.6040  478.0980 N.3   241  SER241     -0.1202
     81  CA       161.8470   68.5170  477.3180 C.3   241  SER241      0.2020
     82  C        161.4380   68.6230  475.8440 C.2   241  SER241      0.2618
     83  O        162.2420   68.2820  474.9710 O.2   241  SER241     -0.2717
     84  CB       161.4360   67.1610  477.8780 C.3   241  SER241      0.2103
     85  OG       162.0400   66.1110  477.1400 O.3   241  SER241     -0.2182
     86  N        160.1930   69.0980  475.5750 N.am  242  ASN242     -0.1974
     87  CA       159.6670   69.3040  474.2220 C.3   242  ASN242      0.1688
     88  C        160.4370   70.4330  473.5180 C.2   242  ASN242      0.2292
     89  O        160.7390   70.3150  472.3290 O.2   242  ASN242     -0.2864
     90  CB       158.1560   69.5990  474.2440 C.3   242  ASN242      0.1181
     91  CG       157.5490   69.9150  472.8810 C.2   242  ASN242      0.2629
     92  OD1      156.9830   70.9940  472.6700 O.2   242  ASN242     -0.2716
     93  ND2      157.6650   68.9990  471.9160 N.am  242  ASN242     -0.0877
     94  N        164.2540   69.2550  472.8070 N.3   245  PHE245     -0.1241
     95  CA       164.3640   68.3940  471.6280 C.3   245  PHE245      0.1605
     96  C        164.2710   69.1890  470.3200 C.2   245  PHE245      0.2264
     97  O        165.0230   68.9150  469.3830 O.2   245  PHE245     -0.2867
     98  CB       163.2930   67.2900  471.6400 C.3   245  PHE245      0.0534
     99  CG       163.6100   66.1440  470.7050 C.ar  245  PHE245     -0.0203
    100  CD1      163.3840   66.2540  469.3330 C.ar  245  PHE245     -0.0042
    101  CD2      164.1330   64.9540  471.1910 C.ar  245  PHE245     -0.0042
    102  CE1      163.7240   65.2150  468.4600 C.ar  245  PHE245     -0.0003
    103  CE2      164.4430   63.9010  470.3200 C.ar  245  PHE245     -0.0003
    104  CZ       164.2380   64.0410  468.9590 C.ar  245  PHE245     -0.0000
    105  N        161.3160   62.4040  467.2800 N.3   281  GLN281     -0.1245
    106  CA       160.5110   63.3840  468.0250 C.3   281  GLN281      0.1566
    107  C        159.1280   62.8330  468.3690 C.2   281  GLN281      0.2260
    108  O        158.6170   63.0990  469.4580 O.2   281  GLN281     -0.2867
    109  CB       160.3600   64.6920  467.2280 C.3   281  GLN281      0.0367
    110  CG       159.9840   65.8850  468.1110 C.3   281  GLN281      0.0905
    111  CD       159.6510   67.1490  467.3570 C.2   281  GLN281      0.2608
    112  OE1      160.2130   67.4600  466.2970 O.2   281  GLN281     -0.2717
    113  NE2      158.7610   67.9420  467.9360 N.am  281  GLN281     -0.0878
    114  N        159.8940   59.6780  470.9470 N.3   284  MET284     -0.1230
    115  CA       160.3100   60.1530  472.2770 C.3   284  MET284      0.1702
    116  C        159.1420   60.7570  473.0440 C.2   284  MET284      0.2592
    117  O        159.1180   60.6860  474.2710 O.2   284  MET284     -0.2718
    118  CB       161.4360   61.1960  472.1600 C.3   284  MET284      0.0401
    119  CG       162.7680   60.6300  471.7290 C.3   284  MET284      0.0596
    120  SD       163.6250   59.7320  473.0340 S.3   284  MET284     -0.1393
    121  CE       163.4530   58.0630  472.4410 C.3   284  MET284      0.0692
    122  N        158.1790   61.3510  472.3100 N.am  285  ALA285     -0.1980
    123  CA       156.9650   61.9800  472.8260 C.3   285  ALA285      0.1597
    124  C        156.1200   60.9990  473.6520 C.2   285  ALA285      0.2287
    125  O        155.4880   61.4180  474.6280 O.2   285  ALA285     -0.2864
    126  CB       156.1410   62.5340  471.6740 C.3   285  ALA285      0.0319
    127  N        157.2720   58.4410  475.5170 N.3   287  LEU287     -0.1231
    128  CA       157.9660   58.2840  476.7940 C.3   287  LEU287      0.1693
    129  C        157.7750   59.5220  477.6790 C.2   287  LEU287      0.2592
    130  O        157.7360   59.3870  478.9020 O.2   287  LEU287     -0.2718
    131  CB       159.4600   58.0090  476.5700 C.3   287  LEU287      0.0284
    132  CG       159.7940   56.6810  475.8980 C.3   287  LEU287      0.0019
    133  CD1      161.0800   56.7710  475.1350 C.3   287  LEU287      0.0001
    134  CD2      159.8670   55.5570  476.9000 C.3   287  LEU287      0.0001
    135  N        157.6240   60.7190  477.0590 N.am  288  SER288     -0.1952
    136  CA       157.3980   61.9960  477.7490 C.3   288  SER288      0.1924
    137  C        156.0540   61.9860  478.4930 C.2   288  SER288      0.2314
    138  O        155.9430   62.6270  479.5370 O.2   288  SER288     -0.2863
    139  CB       157.4510   63.1610  476.7630 C.3   288  SER288      0.2116
    140  OG       157.4080   64.4200  477.4140 O.3   288  SER288     -0.2180
    141  N        156.4070   59.9320  481.7960 N.3   291  PHE291     -0.1241
    142  CA       157.3530   60.4990  482.7690 C.3   291  PHE291      0.1605
    143  C        156.7440   60.5710  484.1740 C.2   291  PHE291      0.2264
    144  O        157.4670   60.3870  485.1550 O.2   291  PHE291     -0.2867
    145  CB       157.8750   61.8780  482.3290 C.3   291  PHE291      0.0534
    146  CG       158.9330   62.4500  483.2440 C.ar  291  PHE291     -0.0203
    147  CD1      160.2220   61.9310  483.2550 C.ar  291  PHE291     -0.0042
    148  CD2      158.6320   63.4870  484.1170 C.ar  291  PHE291     -0.0042
    149  CE1      161.1910   62.4420  484.1230 C.ar  291  PHE291     -0.0003
    150  CE2      159.6020   64.0000  484.9800 C.ar  291  PHE291     -0.0003
    151  CZ       160.8750   63.4760  484.9760 C.ar  291  PHE291     -0.0000
    152  N        157.2450   57.2790  485.6130 N.3   294  VAL294     -0.1245
    153  CA       158.6760   57.1050  485.8820 C.3   294  VAL294      0.1561
    154  C        158.9990   57.6740  487.2760 C.2   294  VAL294      0.2260
    155  O        159.7000   57.0210  488.0500 O.2   294  VAL294     -0.2867
    156  CB       159.5430   57.7450  484.7680 C.3   294  VAL294      0.0252
    157  CG1      161.0300   57.6590  485.0900 C.3   294  VAL294      0.0019
    158  CG2      159.2560   57.1070  483.4170 C.3   294  VAL294      0.0019
    159  N        159.8300   55.1380  490.4400 N.3   298  LEU298     -0.1245
    160  CA       161.1460   55.2490  491.0760 C.3   298  LEU298      0.1561
    161  C        161.0330   55.6430  492.5490 C.2   298  LEU298      0.2260
    162  O        161.8110   55.1430  493.3650 O.2   298  LEU298     -0.2867
    163  CB       162.0320   56.2480  490.3340 C.3   298  LEU298      0.0270
    164  CG       162.7280   55.7180  489.0840 C.3   298  LEU298      0.0019
    165  CD1      163.1190   56.8520  488.1780 C.3   298  LEU298      0.0001
    166  CD2      163.9680   54.8910  489.4390 C.3   298  LEU298      0.0001
@<TRIPOS>BOND
     1   112   111    2
     2   109   106    1
     3   109   110    1
     4   105   106    1
     5   111   113   am
     6   111   110    1
     7   106   107    1
     8   107   108    2
     9   102   104   ar
    10   102   100   ar
    11   104   103   ar
    12   100    99   ar
    13    97    96    2
    14    28    26    1
    15    96    95    1
    16   103   101   ar
    17    99   101   ar
    18    99    98    1
    19   114   115    1
    20    22    23    1
    21    26    23    1
    22    26    27    1
    23    95    98    1
    24    95    94    1
    25   126   123    1
    26   119   118    1
    27   119   120    1
    28    23    24    1
    29    93    91   am
    30   118   115    1
    31   115   116    1
    32   122   123    1
    33   122   116   am
    34    89    88    2
    35   121   120    1
    36    92    91    2
    37   123   124    1
    38    91    90    1
    39   116   117    2
    40    24    25    2
    41    88    87    1
    42   124   125    2
    43    87    90    1
    44    87    86    1
    45    35    34    1
    46    35    29    1
    47    34    33    1
    48    83    82    2
    49   133   132    1
    50   127   128    1
    51    86    82   am
    52    82    81    1
    53    29    30    1
    54   132   131    1
    55   132   134    1
    56    33    30    1
    57   131   128    1
    58   139   140    1
    59   139   136    1
    60   128   129    1
    61    30    31    1
    62   135   129   am
    63   135   136    1
    64    85    84    1
    65    81    84    1
    66    81    80    1
    67   129   130    2
    68   136   137    1
    69    36    31   am
    70    36    37    1
    71    74    73    2
    72    31    32    2
    73    40    37    1
    74    18    17    2
    75   137   138    2
    76    37    38    1
    77    73    72    1
    78    17    16    1
    79    38    39    2
    80    72    75    1
    81    72    71    1
    82    75    76    1
    83    16    15    1
    84    16    19    1
    85    63    62    2
    86    20    19    1
    87    76    77    1
    88    71    62   am
    89    79    77   am
    90    62    61    1
    91    77    78    2
    92    19    21    1
    93    68    70   ar
    94    68    66   ar
    95    41    42    1
    96   141   142    1
    97    70    69   ar
    98    66    65   ar
    99   145   142    1
   100   145   146    1
   101    42    43    1
   102   142   143    1
   103    61    60    1
   104    61    64    1
   105    69    67   ar
   106    65    67   ar
   107    65    64    1
   108   146   147   ar
   109   146   148   ar
   110   147   149   ar
   111   158   156    1
   112    51    49    1
   113    43    45   am
   114    43    44    2
   115    45    46    1
   116   148   150   ar
   117   149   151   ar
   118   143   144    2
   119    49    46    1
   120    49    50    1
   121   156   157    1
   122   156   153    1
   123   151   150   ar
   124    46    47    1
   125   152   153    1
   126   153   154    1
   127    47    48    2
   128    58    57    1
   129    57    59    1
   130    57    56    1
   131   154   155    2
   132    13    14   ar
   133    13    11   ar
   134    14    12   ar
   135    52    53    1
   136    56    53    1
   137   165   164    1
   138    11     8   ar
   139    12    10   ar
   140    53    54    1
   141   164   166    1
   142   164   163    1
   143     8    10   ar
   144     8     6   ar
   145    10     9   ar
   146    54    55    2
   147     9     7   ar
   148     6     5    1
   149     6     7   ar
   150   163   160    1
   151   159   160    1
   152     5     2    1
   153   160   161    1
   154     4     3    2
   155     2     3    1
   156     2     1    1
   157   161   162    2
