@<TRIPOS>MOLECULE
tmp/5ochC00.pdb
 128 123 0 0 0
SMALL
GASTEIGER

@<TRIPOS>ATOM
      1  N        249.3390   51.6230  422.7640 N.3    98  ASP98      -0.1239
      2  CA       248.6980   50.6020  421.9360 C.3    98  ASP98       0.1674
      3  C        248.7220   49.2570  422.6700 C.2    98  ASP98       0.2266
      4  O        247.8080   48.4450  422.5000 O.2    98  ASP98      -0.2867
      5  CB       249.3760   50.5010  420.5580 C.3    98  ASP98       0.1410
      6  CG       248.9660   51.6020  419.5970 C.2    98  ASP98       0.3668
      7  OD1      247.7790   51.6370  419.2000 O.co2  98  ASP98      -0.2456
      8  OD2      249.8370   52.4080  419.2140 O.co2  98  ASP98      -0.2456
      9  N        256.0110   48.1370  412.2030 N.3   300  TYR300     -0.1241
     10  CA       255.4870   48.5050  413.5280 C.3   300  TYR300      0.1605
     11  C        256.1690   47.7040  414.6610 C.2   300  TYR300      0.2264
     12  O        256.5300   46.5470  414.4340 O.2   300  TYR300     -0.2867
     13  CB       253.9570   48.3240  413.5790 C.3   300  TYR300      0.0534
     14  CG       253.1900   49.5080  413.0240 C.ar  300  TYR300     -0.0201
     15  CD1      252.9100   50.6190  413.8170 C.ar  300  TYR300     -0.0009
     16  CD2      252.7330   49.5150  411.7090 C.ar  300  TYR300     -0.0009
     17  CE1      252.2070   51.7120  413.3110 C.ar  300  TYR300      0.0417
     18  CE2      252.0230   50.6000  411.1940 C.ar  300  TYR300      0.0417
     19  CZ       251.7610   51.6970  411.9990 C.ar  300  TYR300      0.1957
     20  OH       251.0630   52.7720  411.4990 O.3   300  TYR300     -0.2866
     21  N        254.1870   44.3490  415.4480 N.3   302  ARG302     -0.1245
     22  CA       254.3970   43.2840  414.4640 C.3   302  ARG302      0.1563
     23  C        255.7830   43.4810  413.8240 C.2   302  ARG302      0.2260
     24  O        255.8690   44.0890  412.7520 O.2   302  ARG302     -0.2867
     25  CB       253.2770   43.2850  413.4050 C.3   302  ARG302      0.0307
     26  CG       251.9760   42.7830  414.0110 C.3   302  ARG302      0.0489
     27  CD       250.8100   42.9700  413.0380 C.3   302  ARG302      0.2205
     28  NE       250.6510   44.3380  412.5460 N.pl3 302  ARG302     -0.0865
     29  CZ       249.8510   44.6770  411.5240 C.cat 302  ARG302      0.5346
     30  NH1      249.1430   43.7350  410.8710 N.pl3 302  ARG302      0.1354
     31  NH2      249.7730   45.9740  411.1450 N.pl3 302  ARG302      0.1354
     32  N        255.8550   41.6850  410.1390 N.3   305  PHE305     -0.1241
     33  CA       255.0210   42.2660  409.0890 C.3   305  PHE305      0.1605
     34  C        255.5310   43.6620  408.6970 C.2   305  PHE305      0.2264
     35  O        255.4140   44.6100  409.4790 O.2   305  PHE305     -0.2867
     36  CB       253.5430   42.3110  409.5240 C.3   305  PHE305      0.0534
     37  CG       252.6010   42.7660  408.4350 C.ar  305  PHE305     -0.0203
     38  CD1      252.2530   41.9140  407.3930 C.ar  305  PHE305     -0.0042
     39  CD2      252.0670   44.0480  408.4480 C.ar  305  PHE305     -0.0042
     40  CE1      251.3910   42.3410  406.3780 C.ar  305  PHE305     -0.0003
     41  CE2      251.2030   44.4730  407.4350 C.ar  305  PHE305     -0.0003
     42  CZ       250.8690   43.6160  406.4080 C.ar  305  PHE305     -0.0000
     43  N        255.2730   47.0220  406.7600 N.3   307  VAL307     -0.1245
     44  CA       254.2360   47.9340  406.2730 C.3   307  VAL307      0.1561
     45  C        254.7830   48.8340  405.1520 C.2   307  VAL307      0.2260
     46  O        254.1370   48.9760  404.1140 O.2   307  VAL307     -0.2867
     47  CB       253.6590   48.7740  407.4380 C.3   307  VAL307      0.0252
     48  CG1      252.5820   49.7420  406.9600 C.3   307  VAL307      0.0019
     49  CG2      253.0300   47.8240  408.4600 C.3   307  VAL307      0.0019
     50  N        245.8110   52.0410  397.9090 N.3   326  GLN326     -0.1231
     51  CA       244.7790   51.1370  398.4160 C.3   326  GLN326      0.1698
     52  C        244.7800   51.1290  399.9490 C.2   326  GLN326      0.2593
     53  O        245.8140   51.4020  400.5630 O.2   326  GLN326     -0.2718
     54  CB       244.9870   49.7160  397.8610 C.3   326  GLN326      0.0381
     55  CG       243.7000   48.8950  397.7320 C.3   326  GLN326      0.0905
     56  CD       242.8160   49.3520  396.5930 C.2   326  GLN326      0.2608
     57  OE1      241.9330   50.2010  396.7590 O.2   326  GLN326     -0.2717
     58  NE2      243.0340   48.7950  395.4130 N.am  326  GLN326     -0.0878
     59  N        243.6120   50.8360  400.5570 N.am  327  SER327     -0.1938
     60  CA       243.4210   50.7840  402.0090 C.3   327  SER327      0.2055
     61  C        244.2960   49.6910  402.6440 C.2   327  SER327      0.2644
     62  O        244.1320   48.5040  402.3450 O.2   327  SER327     -0.2714
     63  CB       241.9490   50.5650  402.3560 C.3   327  SER327      0.2130
     64  OG       241.2220   51.7830  402.3390 O.3   327  SER327     -0.2179
     65  N        245.2350   50.1270  403.4860 N.am  328  GLY328     -0.1939
     66  CA       246.1850   49.2730  404.1930 C.3   328  GLY328      0.2014
     67  C        247.5800   49.2370  403.5920 C.2   328  GLY328      0.2639
     68  O        248.4080   48.4290  404.0170 O.2   328  GLY328     -0.2714
     69  N        247.8450   50.1070  402.6180 N.am  329  GLY329     -0.1939
     70  CA       249.1270   50.1800  401.9210 C.3   329  GLY329      0.2014
     71  C        250.2210   50.9860  402.6000 C.2   329  GLY329      0.2639
     72  O        251.3740   50.9520  402.1580 O.2   329  GLY329     -0.2714
     73  N        249.8560   51.7150  403.6580 N.am  330  GLY330     -0.1939
     74  CA       250.7730   52.5530  404.4250 C.3   330  GLY330      0.2014
     75  C        250.6600   54.0340  404.1210 C.2   330  GLY330      0.2639
     76  O        251.6800   54.7240  404.0180 O.2   330  GLY330     -0.2714
     77  N        249.4130   54.5310  403.9780 N.am  331  LYS331     -0.1963
     78  CA       249.1130   55.9380  403.6910 C.3   331  LYS331      0.1728
     79  C        249.2240   56.7860  404.9670 C.2   331  LYS331      0.2617
     80  O        249.9060   57.8140  404.9590 O.2   331  LYS331     -0.2715
     81  CB       247.7120   56.1000  403.0610 C.3   331  LYS331      0.0311
     82  CG       247.5020   55.4010  401.7100 C.3   331  LYS331      0.0038
     83  CD       246.3050   55.9630  400.9210 C.3   331  LYS331      0.0206
     84  CE       244.9330   55.6520  401.4950 C.3   331  LYS331      0.1093
     85  NZ       244.4910   54.2680  401.1840 N.3   331  LYS331     -0.1314
     86  N        248.5590   56.3430  406.0590 N.am  332  THR332     -0.1937
     87  CA       248.5210   57.0010  407.3700 C.3   332  THR332      0.2028
     88  C        249.8490   56.7380  408.1190 C.2   332  THR332      0.2642
     89  O        250.2620   57.5790  408.9220 O.2   332  THR332     -0.2714
     90  CB       247.2680   56.5400  408.1410 C.3   332  THR332      0.1808
     91  OG1      246.1150   56.8640  407.3630 O.3   332  THR332     -0.2208
     92  CG2      247.1250   57.2040  409.5010 C.3   332  THR332      0.0379
     93  N        250.5280   55.6000  407.8200 N.am  333  THR333     -0.1950
     94  CA       251.8220   55.2120  408.4070 C.3   333  THR333      0.1897
     95  C        252.9110   56.2140  407.9860 C.2   333  THR333      0.2313
     96  O        253.7660   56.5620  408.8020 O.2   333  THR333     -0.2863
     97  CB       252.2100   53.7710  408.0130 C.3   333  THR333      0.1794
     98  OG1      251.0570   52.9280  408.0500 O.3   333  THR333     -0.2208
     99  CG2      253.2910   53.1890  408.9160 C.3   333  THR333      0.0378
    100  N        256.8580   57.5510  415.3250 N.3   342  TYR342     -0.1241
    101  CA       257.7500   56.4030  415.2000 C.3   342  TYR342      0.1605
    102  C        258.9470   56.7800  414.3240 C.2   342  TYR342      0.2264
    103  O        258.8540   57.7120  413.5180 O.2   342  TYR342     -0.2867
    104  CB       257.0270   55.1930  414.5830 C.3   342  TYR342      0.0534
    105  CG       255.6720   54.8540  415.1640 C.ar  342  TYR342     -0.0201
    106  CD1      255.5560   54.0180  416.2700 C.ar  342  TYR342     -0.0009
    107  CD2      254.5010   55.2920  414.5520 C.ar  342  TYR342     -0.0009
    108  CE1      254.3110   53.6700  416.7850 C.ar  342  TYR342      0.0417
    109  CE2      253.2490   54.9500  415.0570 C.ar  342  TYR342      0.0417
    110  CZ       253.1590   54.1360  416.1730 C.ar  342  TYR342      0.1957
    111  OH       251.9250   53.7920  416.6690 O.3   342  TYR342     -0.2866
    112  N        245.1620   63.9550  406.0190 N.3   454  ASP454     -0.1225
    113  CA       244.8520   62.5290  405.8860 C.3   454  ASP454      0.1805
    114  C        243.3320   62.2990  405.8770 C.2   454  ASP454      0.2597
    115  O        242.7030   62.2330  406.9380 O.2   454  ASP454     -0.2718
    116  CB       245.5420   61.7080  406.9990 C.3   454  ASP454      0.1424
    117  CG       245.3170   60.2030  406.9390 C.2   454  ASP454      0.3668
    118  OD1      245.3590   59.6370  405.8260 O.co2 454  ASP454     -0.2456
    119  OD2      245.1400   59.5910  408.0070 O.co2 454  ASP454     -0.2456
    120  N        242.7560   62.1920  404.6550 N.am  455  GLU455     -0.1979
    121  CA       241.3370   61.9510  404.3380 C.3   455  GLU455      0.1602
    122  C        240.4040   62.8870  405.1360 C.2   455  GLU455      0.2287
    123  O        239.3950   62.4370  405.6750 O.2   455  GLU455     -0.2864
    124  CB       240.9680   60.4710  404.5810 C.3   455  GLU455      0.0415
    125  CG       241.6200   59.4880  403.6170 C.3   455  GLU455      0.1163
    126  CD       241.6720   58.0330  404.0550 C.2   455  GLU455      0.3649
    127  OE1      241.1990   57.7170  405.1720 O.co2 455  GLU455     -0.2457
    128  OE2      242.2010   57.2060  403.2790 O.co2 455  GLU455     -0.2457
@<TRIPOS>BOND
     1    58    56   am
     2    56    57    2
     3    56    55    1
     4    55    54    1
     5    54    51    1
     6    50    51    1
     7    51    52    1
     8    52    59   am
     9    52    53    2
    10    59    60    1
    11    83    84    1
    12    83    82    1
    13    85    84    1
    14    82    81    1
    15    70    71    1
    16    70    69    1
    17    60    63    1
    18    60    61    1
    19    72    71    2
    20    64    63    1
    21    62    61    2
    22    71    73   am
    23    69    67   am
    24    61    65   am
    25    81    78    1
    26   128   126   ar
    27    65    66    1
    28    67    68    2
    29    67    66    1
    30   125   126    1
    31   125   124    1
    32    73    74    1
    33    78    77    1
    34    78    79    1
    35    77    75   am
    36    76    75    2
    37   126   127   ar
    38    46    45    2
    39    75    74    1
    40   121   124    1
    41   121   120    1
    42   121   122    1
    43   120   114   am
    44    80    79    2
    45    79    86   am
    46   122   123    2
    47    45    44    1
    48   118   117   ar
    49   114   113    1
    50   114   115    2
    51   113   112    1
    52   113   116    1
    53    86    87    1
    54    44    43    1
    55    44    47    1
    56    40    42   ar
    57    40    38   ar
    58    42    41   ar
    59   117   116    1
    60   117   119   ar
    61    48    47    1
    62    91    90    1
    63    87    88    1
    64    87    90    1
    65    38    37   ar
    66    41    39   ar
    67    47    49    1
    68    93    88   am
    69    93    94    1
    70    95    94    1
    71    95    96    2
    72    97    98    1
    73    97    94    1
    74    97    99    1
    75    88    89    2
    76    90    92    1
    77    37    39   ar
    78    37    36    1
    79    34    33    1
    80    34    35    2
    81    33    36    1
    82    33    32    1
    83    30    29    1
    84    31    29    1
    85    18    16   ar
    86    18    19   ar
    87    20    19    1
    88    29    28    2
    89    16    14   ar
    90    19    17   ar
    91     9    10    1
    92    28    27    1
    93    24    23    2
    94    14    13    1
    95    14    15   ar
    96    27    26    1
    97    17    15   ar
    98    25    26    1
    99    25    22    1
   100   103   102    2
   101    10    13    1
   102    10    11    1
   103    23    22    1
   104   102   101    1
   105    12    11    2
   106    22    21    1
   107   107   109   ar
   108   107   105   ar
   109   104   105    1
   110   104   101    1
   111   109   110   ar
   112   105   106   ar
   113   101   100    1
   114   110   111    1
   115   110   108   ar
   116   106   108   ar
   117     7     6   ar
   118     8     6   ar
   119     6     5    1
   120     5     2    1
   121     2     3    1
   122     2     1    1
   123     4     3    2
