@<TRIPOS>MOLECULE
tmp/5ochD01.pdb
 165 156 0 0 0
SMALL
GASTEIGER

@<TRIPOS>ATOM
      1  N        219.6460   49.9200  453.0720 N.3     3  TRP3       -0.1241
      2  CA       219.6930   48.7350  453.9350 C.3     3  TRP3        0.1605
      3  C        218.6810   47.6590  453.5070 C.2     3  TRP3        0.2264
      4  O        218.8850   46.4820  453.8170 O.2     3  TRP3       -0.2867
      5  CB       219.4570   49.1360  455.3990 C.3     3  TRP3        0.0550
      6  CG       220.4370   50.1580  455.9050 C.ar    3  TRP3        0.0003
      7  CD1      220.2890   51.5140  455.8890 C.ar    3  TRP3        0.0946
      8  CD2      221.7320   49.9020  456.4730 C.ar    3  TRP3        0.0152
      9  NE1      221.4030   52.1210  456.4250 N.ar    3  TRP3       -0.2442
     10  CE2      222.3070   51.1550  456.7890 C.ar    3  TRP3        0.0810
     11  CE3      222.4640   48.7330  456.7500 C.ar    3  TRP3        0.0012
     12  CZ2      223.5770   51.2720  457.3750 C.ar    3  TRP3        0.0191
     13  CZ3      223.7210   48.8500  457.3320 C.ar    3  TRP3        0.0001
     14  CH2      224.2640   50.1070  457.6390 C.ar    3  TRP3        0.0015
     15  N        235.6650   45.7280  459.0830 N.3   129  VAL129     -0.1245
     16  CA       234.7860   46.0790  460.2020 C.3   129  VAL129      0.1561
     17  C        234.4210   44.8140  460.9900 C.2   129  VAL129      0.2260
     18  O        234.4720   44.8570  462.2150 O.2   129  VAL129     -0.2867
     19  CB       233.5400   46.8980  459.7620 C.3   129  VAL129      0.0252
     20  CG1      232.5110   47.0400  460.8900 C.3   129  VAL129      0.0019
     21  CG2      233.9570   48.2740  459.2680 C.3   129  VAL129      0.0019
     22  N        228.4650   50.7780  475.7110 N.3   160  VAL160     -0.1245
     23  CA       228.9000   50.3010  474.3900 C.3   160  VAL160      0.1561
     24  C        227.8770   50.7910  473.3410 C.2   160  VAL160      0.2260
     25  O        228.2660   51.1720  472.2360 O.2   160  VAL160     -0.2867
     26  CB       229.0910   48.7530  474.3560 C.3   160  VAL160      0.0252
     27  CG1      229.4680   48.2530  472.9630 C.3   160  VAL160      0.0019
     28  CG2      230.1300   48.2990  475.3730 C.3   160  VAL160      0.0019
     29  N        228.1240   55.1940  472.0000 N.3   163  PRO163     -0.2102
     30  CA       228.8250   55.7140  470.8120 C.3   163  PRO163      0.1504
     31  C        228.3040   55.1320  469.4960 C.2   163  PRO163      0.2575
     32  O        228.5310   55.7350  468.4530 O.2   163  PRO163     -0.2718
     33  CB       230.2830   55.3150  471.0530 C.3   163  PRO163      0.0282
     34  CG       230.2120   54.1290  471.9200 C.3   163  PRO163      0.0208
     35  CD       229.0450   54.3840  472.8270 C.3   163  PRO163      0.0893
     36  N        227.6100   53.9740  469.5460 N.am  164  ALA164     -0.1980
     37  CA       227.0040   53.3320  468.3770 C.3   164  ALA164      0.1597
     38  C        225.7920   54.1420  467.9020 C.2   164  ALA164      0.2287
     39  O        225.5690   54.2640  466.6930 O.2   164  ALA164     -0.2864
     40  CB       226.5940   51.9060  468.7150 C.3   164  ALA164      0.0319
     41  N        227.2910   57.1790  466.4290 N.3   167  GLY167     -0.1210
     42  CA       227.9830   56.7230  465.2300 C.3   167  GLY167      0.1956
     43  C        227.1520   56.7230  463.9680 C.2   167  GLY167      0.2611
     44  O        227.5170   57.3790  462.9890 O.2   167  GLY167     -0.2717
     45  N        226.0280   55.9860  463.9920 N.am  168  VAL168     -0.1979
     46  CA       225.0950   55.8510  462.8680 C.3   168  VAL168      0.1595
     47  C        224.4150   57.2090  462.5910 C.2   168  VAL168      0.2287
     48  O        224.3380   57.6190  461.4310 O.2   168  VAL168     -0.2864
     49  CB       224.0610   54.7160  463.1180 C.3   168  VAL168      0.0276
     50  CG1      223.1520   54.5070  461.9100 C.3   168  VAL168      0.0022
     51  CG2      224.7530   53.4060  463.4890 C.3   168  VAL168      0.0022
     52  N        226.5880   59.6190  460.6100 N.3   171  LEU171     -0.1231
     53  CA       226.8020   59.0580  459.2690 C.3   171  LEU171      0.1693
     54  C        225.6120   59.3210  458.3390 C.2   171  LEU171      0.2591
     55  O        225.7810   59.3330  457.1160 O.2   171  LEU171     -0.2718
     56  CB       227.0630   57.5430  459.3510 C.3   171  LEU171      0.0284
     57  CG       228.4940   57.1110  459.6680 C.3   171  LEU171      0.0019
     58  CD1      228.5190   55.7180  460.2530 C.3   171  LEU171      0.0001
     59  CD2      229.3740   57.1540  458.4290 C.3   171  LEU171      0.0001
     60  N        224.4150   59.5230  458.9230 N.am  172  MET172     -0.1979
     61  CA       223.1680   59.8040  458.2050 C.3   172  MET172      0.1605
     62  C        222.9500   61.3210  458.0390 C.2   172  MET172      0.2287
     63  O        222.2410   61.7420  457.1200 O.2   172  MET172     -0.2864
     64  CB       221.9620   59.1750  458.9420 C.3   172  MET172      0.0413
     65  CG       222.0420   57.6550  459.1280 C.3   172  MET172      0.0598
     66  SD       222.2240   56.6820  457.6070 S.3   172  MET172     -0.1393
     67  CE       222.5270   55.0710  458.2930 C.3   172  MET172      0.0692
     68  N        235.1100   63.5450  464.5780 N.3   238  PHE238     -0.1241
     69  CA       234.2370   62.5090  465.1310 C.3   238  PHE238      0.1605
     70  C        235.0270   61.5970  466.0740 C.2   238  PHE238      0.2264
     71  O        234.5750   61.3550  467.1910 O.2   238  PHE238     -0.2867
     72  CB       233.5780   61.6800  464.0100 C.3   238  PHE238      0.0534
     73  CG       232.6380   60.6000  464.5110 C.ar  238  PHE238     -0.0203
     74  CD1      233.1210   59.3490  464.8820 C.ar  238  PHE238     -0.0042
     75  CD2      231.2700   60.8370  464.6150 C.ar  238  PHE238     -0.0042
     76  CE1      232.2570   58.3620  465.3610 C.ar  238  PHE238     -0.0003
     77  CE2      230.4050   59.8420  465.0820 C.ar  238  PHE238     -0.0003
     78  CZ       230.9060   58.6140  465.4520 C.ar  238  PHE238     -0.0000
     79  N        234.4510   61.3150  470.0120 N.3   242  SER242     -0.1202
     80  CA       234.0580   59.9690  470.4290 C.3   242  SER242      0.2020
     81  C        234.9020   59.4920  471.6150 C.2   242  SER242      0.2618
     82  O        234.3990   58.7410  472.4490 O.2   242  SER242     -0.2717
     83  CB       234.1930   58.9910  469.2710 C.3   242  SER242      0.2103
     84  OG       233.3070   57.9010  469.4450 O.3   242  SER242     -0.2182
     85  N        236.1770   59.9370  471.6900 N.am  243  ASN243     -0.1974
     86  CA       237.1050   59.6190  472.7810 C.3   243  ASN243      0.1688
     87  C        236.6840   60.3530  474.0620 C.2   243  ASN243      0.2292
     88  O        236.7620   59.7750  475.1470 O.2   243  ASN243     -0.2864
     89  CB       238.5500   59.9740  472.3940 C.3   243  ASN243      0.1181
     90  CG       239.5770   59.7640  473.4890 C.2   243  ASN243      0.2629
     91  OD1      240.2710   60.6980  473.9090 O.2   243  ASN243     -0.2716
     92  ND2      239.7090   58.5330  473.9700 N.am  243  ASN243     -0.0877
     93  N        233.2940   58.7820  475.4720 N.3   246  PHE246     -0.1241
     94  CA       233.4860   57.5460  476.2370 C.3   246  PHE246      0.1605
     95  C        234.0180   57.8450  477.6350 C.2   246  PHE246      0.2264
     96  O        233.5720   57.2180  478.5930 O.2   246  PHE246     -0.2867
     97  CB       234.4310   56.5690  475.5160 C.3   246  PHE246      0.0534
     98  CG       234.4070   55.1690  476.0880 C.ar  246  PHE246     -0.0203
     99  CD1      233.5330   54.2110  475.5890 C.ar  246  PHE246     -0.0042
    100  CD2      235.2590   54.8080  477.1250 C.ar  246  PHE246     -0.0042
    101  CE1      233.5080   52.9190  476.1200 C.ar  246  PHE246     -0.0003
    102  CE2      235.2100   53.5260  477.6760 C.ar  246  PHE246     -0.0003
    103  CZ       234.3550   52.5820  477.1520 C.ar  246  PHE246     -0.0000
    104  N        237.2950   50.4630  476.6150 N.3   282  GLN282     -0.1245
    105  CA       237.9050   51.6840  476.0580 C.3   282  GLN282      0.1566
    106  C        239.0090   51.3610  475.0510 C.2   282  GLN282      0.2260
    107  O        239.1300   52.0590  474.0460 O.2   282  GLN282     -0.2867
    108  CB       238.4790   52.5730  477.1740 C.3   282  GLN282      0.0367
    109  CG       239.0420   53.8820  476.6610 C.3   282  GLN282      0.0905
    110  CD       239.5800   54.7680  477.7670 C.2   282  GLN282      0.2608
    111  OE1      239.8710   54.2990  478.8670 O.2   282  GLN282     -0.2717
    112  NE2      239.7150   56.0570  477.4790 N.am  282  GLN282     -0.0878
    113  N        237.0770   49.6240  471.9450 N.3   285  MET285     -0.1230
    114  CA       236.2980   50.6150  471.1970 C.3   285  MET285      0.1702
    115  C        237.2220   51.4890  470.3630 C.2   285  MET285      0.2592
    116  O        236.8340   51.9330  469.2820 O.2   285  MET285     -0.2718
    117  CB       235.4640   51.4890  472.1470 C.3   285  MET285      0.0401
    118  CG       234.2760   50.7840  472.7620 C.3   285  MET285      0.0596
    119  SD       232.8710   50.6020  471.6440 S.3   285  MET285     -0.1393
    120  CE       232.9530   48.8450  471.3230 C.3   285  MET285      0.0692
    121  N        238.4540   51.7130  470.8660 N.am  286  ALA286     -0.1980
    122  CA       239.5110   52.4980  470.2240 C.3   286  ALA286      0.1597
    123  C        239.9240   51.8990  468.8770 C.2   286  ALA286      0.2287
    124  O        240.2750   52.6550  467.9740 O.2   286  ALA286     -0.2864
    125  CB       240.7250   52.5920  471.1370 C.3   286  ALA286      0.0319
    126  N        237.9000   50.2130  466.7800 N.3   288  LEU288     -0.1231
    127  CA       236.7990   50.4950  465.8520 C.3   288  LEU288      0.1693
    128  C        236.7800   51.9710  465.4620 C.2   288  LEU288      0.2592
    129  O        236.4170   52.2940  464.3310 O.2   288  LEU288     -0.2718
    130  CB       235.4470   50.0840  466.4560 C.3   288  LEU288      0.0284
    131  CG       235.2260   48.5820  466.6330 C.3   288  LEU288      0.0019
    132  CD1      234.1700   48.3110  467.6770 C.3   288  LEU288      0.0001
    133  CD2      234.8740   47.9110  465.3050 C.3   288  LEU288      0.0001
    134  N        237.1980   52.8580  466.3900 N.am  289  SER289     -0.1952
    135  CA       237.2850   54.3070  466.1890 C.3   289  SER289      0.1924
    136  C        238.3500   54.6520  465.1330 C.2   289  SER289      0.2314
    137  O        238.2050   55.6540  464.4370 O.2   289  SER289     -0.2863
    138  CB       237.6000   55.0090  467.5090 C.3   289  SER289      0.2116
    139  OG       237.3710   56.4080  467.4440 O.3   289  SER289     -0.2180
    140  N        236.9460   54.0310  461.5870 N.3   292  PHE292     -0.1241
    141  CA       235.8120   54.9050  461.2520 C.3   292  PHE292      0.1605
    142  C        235.9760   55.5450  459.8660 C.2   292  PHE292      0.2264
    143  O        234.9790   55.7280  459.1660 O.2   292  PHE292     -0.2867
    144  CB       235.5810   55.9860  462.3220 C.3   292  PHE292      0.0534
    145  CG       234.3560   56.8380  462.0730 C.ar  292  PHE292     -0.0203
    146  CD1      233.0770   56.3260  462.2800 C.ar  292  PHE292     -0.0042
    147  CD2      234.4790   58.1440  461.6100 C.ar  292  PHE292     -0.0042
    148  CE1      231.9430   57.1050  462.0250 C.ar  292  PHE292     -0.0003
    149  CE2      233.3440   58.9240  461.3600 C.ar  292  PHE292     -0.0003
    150  CZ       232.0840   58.4000  461.5710 C.ar  292  PHE292     -0.0000
    151  N        234.7990   53.0650  457.5060 N.3   295  VAL295     -0.1245
    152  CA       233.3460   52.9510  457.6470 C.3   295  VAL295      0.1561
    153  C        232.6670   53.9930  456.7520 C.2   295  VAL295      0.2260
    154  O        231.7240   53.6530  456.0360 O.2   295  VAL295     -0.2867
    155  CB       232.8950   53.0770  459.1230 C.3   295  VAL295      0.0252
    156  CG1      231.3810   52.9680  459.2640 C.3   295  VAL295      0.0019
    157  CG2      233.5350   51.9430  459.9280 C.3   295  VAL295      0.0019
    158  N        230.7640   52.8360  453.2290 N.3   299  LEU299     -0.1245
    159  CA       229.3290   53.1070  453.1360 C.3   299  LEU299      0.1561
    160  C        229.0200   54.0370  451.9640 C.2   299  LEU299      0.2260
    161  O        228.0290   53.8180  451.2700 O.2   299  LEU299     -0.2867
    162  CB       228.7770   53.6940  454.4450 C.3   299  LEU299      0.0270
    163  CG       228.4520   52.6980  455.5650 C.3   299  LEU299      0.0019
    164  CD1      228.4130   53.3970  456.9080 C.3   299  LEU299      0.0001
    165  CD2      227.1210   51.9860  455.3180 C.3   299  LEU299      0.0001
@<TRIPOS>BOND
     1   161   160    2
     2   160   159    1
     3     1     2    1
     4   159   158    1
     5   159   162    1
     6     3     4    2
     7     3     2    1
     8     2     5    1
     9   162   163    1
    10   165   163    1
    11     5     6    1
    12   163   164    1
    13     7     6   ar
    14     7     9   ar
    15     6     8   ar
    16   154   153    2
    17     9    10   ar
    18     8    11   ar
    19     8    10   ar
    20    11    13   ar
    21   153   152    1
    22    10    12   ar
    23    55    54    2
    24    63    62    2
    25    13    14   ar
    26    12    14   ar
    27   151   152    1
    28    66    67    1
    29    66    65    1
    30   152   155    1
    31    62    61    1
    32    61    60    1
    33    61    64    1
    34    54    60   am
    35    54    53    1
    36    59    57    1
    37    64    65    1
    38    15    16    1
    39   155   156    1
    40   155   157    1
    41   143   142    2
    42    21    19    1
    43    53    56    1
    44    53    52    1
    45    56    57    1
    46    57    58    1
    47    19    16    1
    48    19    20    1
    49   142   141    1
    50    16    17    1
    51    17    18    2
    52   141   140    1
    53   141   144    1
    54   149   150   ar
    55   149   147   ar
    56    48    47    2
    57   150   148   ar
    58   147   145   ar
    59    50    49    1
    60   148   146   ar
    61   145   146   ar
    62   145   144    1
    63    47    46    1
    64    46    49    1
    65    46    45    1
    66    44    43    2
    67    49    51    1
    68    43    45   am
    69    43    42    1
    70    72    73    1
    71    72    69    1
    72   129   128    2
    73   137   136    2
    74    73    75   ar
    75    73    74   ar
    76    68    69    1
    77    75    77   ar
    78    74    76   ar
    79    77    78   ar
    80    69    70    1
    81   136   135    1
    82    42    41    1
    83   133   131    1
    84    76    78   ar
    85   128   127    1
    86   128   134   am
    87   127   130    1
    88   127   126    1
    89    70    71    2
    90   135   134    1
    91   135   138    1
    92   130   131    1
    93   131   132    1
    94    39    38    2
    95   139   138    1
    96    38    37    1
    97   124   123    2
    98    37    40    1
    99    37    36    1
   100    32    31    2
   101   123   122    1
   102    83    84    1
   103    83    80    1
   104   116   115    2
   105    31    36   am
   106    31    30    1
   107    79    80    1
   108   122   121    1
   109   122   125    1
   110   115   121   am
   111   115   114    1
   112    80    81    1
   113    30    33    1
   114    30    29    1
   115    33    34    1
   116   114   113    1
   117   114   117    1
   118   120   119    1
   119    81    85   am
   120    81    82    2
   121   119   118    1
   122    85    86    1
   123    34    35    1
   124    29    35    1
   125   117   118    1
   126    25    24    2
   127    89    86    1
   128    89    90    1
   129    86    87    1
   130    27    26    1
   131    24    23    1
   132    90    91    2
   133    90    92   am
   134   107   106    2
   135    87    88    2
   136    26    23    1
   137    26    28    1
   138    23    22    1
   139   106   105    1
   140    93    94    1
   141    97    98    1
   142    97    94    1
   143    99    98   ar
   144    99   101   ar
   145   105   104    1
   146   105   108    1
   147    98   100   ar
   148   101   103   ar
   149    94    95    1
   150   109   108    1
   151   109   110    1
   152   100   102   ar
   153   103   102   ar
   154   112   110   am
   155    95    96    2
   156   110   111    2
