@<TRIPOS>MOLECULE
tmp/5ochB02.pdb
 223 213 0 0 0
SMALL
GASTEIGER

@<TRIPOS>ATOM
      1  N        176.0360    3.2850  480.3020 N.3     3  TRP3       -0.1241
      2  CA       176.2350    2.0980  481.1370 C.3     3  TRP3        0.1605
      3  C        175.3970    0.8990  480.6700 C.2     3  TRP3        0.2264
      4  O        175.7670   -0.2400  480.9610 O.2     3  TRP3       -0.2867
      5  CB       175.9220    2.4250  482.6040 C.3     3  TRP3        0.0550
      6  CG       176.7220    3.5750  483.1460 C.ar    3  TRP3        0.0003
      7  CD1      176.3540    4.8880  483.1710 C.ar    3  TRP3        0.0946
      8  CD2      178.0440    3.5170  483.7010 C.ar    3  TRP3        0.0152
      9  NE1      177.3560    5.6510  483.7260 N.ar    3  TRP3       -0.2442
     10  CE2      178.4040    4.8340  484.0640 C.ar    3  TRP3        0.0810
     11  CE3      178.9570    2.4740  483.9440 C.ar    3  TRP3        0.0012
     12  CZ2      179.6370    5.1380  484.6530 C.ar    3  TRP3        0.0191
     13  CZ3      180.1800    2.7780  484.5220 C.ar    3  TRP3        0.0001
     14  CH2      180.5090    4.0950  484.8700 C.ar    3  TRP3        0.0015
     15  N        177.5720   -0.6530  477.9760 N.3     6  PHE6       -0.1241
     16  CA       178.8470   -1.0100  478.6060 C.3     6  PHE6        0.1605
     17  C        178.7780   -2.3960  479.2590 C.2     6  PHE6        0.2264
     18  O        179.7530   -3.1490  479.1900 O.2     6  PHE6       -0.2867
     19  CB       179.2490    0.0610  479.6410 C.3     6  PHE6        0.0534
     20  CG       180.3640   -0.3210  480.5840 C.ar    6  PHE6       -0.0203
     21  CD1      181.6800   -0.3720  480.1460 C.ar    6  PHE6       -0.0042
     22  CD2      180.0990   -0.6160  481.9140 C.ar    6  PHE6       -0.0042
     23  CE1      182.7080   -0.7350  481.0180 C.ar    6  PHE6       -0.0003
     24  CE2      181.1290   -0.9750  482.7870 C.ar    6  PHE6       -0.0003
     25  CZ       182.4260   -1.0320  482.3340 C.ar    6  PHE6       -0.0000
     26  N        180.9360   -6.2590  478.8930 N.3    10  LEU10      -0.1245
     27  CA       181.5690   -6.7080  480.1370 C.3    10  LEU10       0.1561
     28  C        181.0640   -8.0910  480.5850 C.2    10  LEU10       0.2260
     29  O        181.8500   -8.8810  481.1080 O.2    10  LEU10      -0.2867
     30  CB       181.3060   -5.6680  481.2440 C.3    10  LEU10       0.0270
     31  CG       182.0720   -5.8250  482.5580 C.3    10  LEU10       0.0019
     32  CD1      183.4810   -5.2640  482.4530 C.3    10  LEU10       0.0001
     33  CD2      181.3380   -5.1420  483.6810 C.3    10  LEU10       0.0001
     34  N        189.9970    4.3320  476.4640 N.3   117  PHE117     -0.1241
     35  CA       189.0610    3.7750  477.4320 C.3   117  PHE117      0.1605
     36  C        189.5960    2.4430  477.9740 C.2   117  PHE117      0.2264
     37  O        189.5900    2.2490  479.1850 O.2   117  PHE117     -0.2867
     38  CB       187.6650    3.6080  476.7910 C.3   117  PHE117      0.0534
     39  CG       186.6810    2.7420  477.5480 C.ar  117  PHE117     -0.0203
     40  CD1      185.9560    3.2560  478.6160 C.ar  117  PHE117     -0.0042
     41  CD2      186.4620    1.4200  477.1740 C.ar  117  PHE117     -0.0042
     42  CE1      185.0430    2.4550  479.3090 C.ar  117  PHE117     -0.0003
     43  CE2      185.5560    0.6190  477.8720 C.ar  117  PHE117     -0.0003
     44  CZ       184.8530    1.1420  478.9330 C.ar  117  PHE117     -0.0000
     45  N        190.4870    1.6280  481.7630 N.3   121  PHE121     -0.1241
     46  CA       189.7250    0.5610  482.4240 C.3   121  PHE121      0.1605
     47  C        190.6970   -0.4160  483.0800 C.2   121  PHE121      0.2264
     48  O        190.4570   -0.8640  484.2020 O.2   121  PHE121     -0.2867
     49  CB       188.8190   -0.1640  481.4000 C.3   121  PHE121      0.0534
     50  CG       188.1910   -1.4740  481.8330 C.ar  121  PHE121     -0.0203
     51  CD1      187.1020   -1.4920  482.6980 C.ar  121  PHE121     -0.0042
     52  CD2      188.6560   -2.6880  481.3330 C.ar  121  PHE121     -0.0042
     53  CE1      186.5140   -2.7010  483.0860 C.ar  121  PHE121     -0.0003
     54  CE2      188.0690   -3.8990  481.7240 C.ar  121  PHE121     -0.0003
     55  CZ       186.9990   -3.8960  482.5940 C.ar  121  PHE121     -0.0000
     56  N        192.3820    1.3620  486.3050 N.3   124  VAL124     -0.1231
     57  CA       191.4660    1.5340  487.4350 C.3   124  VAL124      0.1692
     58  C        191.3120    0.1900  488.1670 C.2   124  VAL124      0.2591
     59  O        191.3600    0.1840  489.3910 O.2   124  VAL124     -0.2718
     60  CB       190.1060    2.1660  487.0180 C.3   124  VAL124      0.0266
     61  CG1      189.0690    2.0950  488.1440 C.3   124  VAL124      0.0020
     62  CG2      190.2970    3.6170  486.5660 C.3   124  VAL124      0.0020
     63  N        191.2000   -0.9360  487.4350 N.am  125  ILE125     -0.1980
     64  CA       191.0720   -2.2520  488.0670 C.3   125  ILE125      0.1595
     65  C        192.4520   -2.7270  488.5830 C.2   125  ILE125      0.2287
     66  O        192.4980   -3.3190  489.6560 O.2   125  ILE125     -0.2864
     67  CB       190.3780   -3.3200  487.1640 C.3   125  ILE125      0.0276
     68  CG1      189.1390   -2.7660  486.4080 C.3   125  ILE125      0.0022
     69  CG2      190.0240   -4.5930  487.9520 C.3   125  ILE125      0.0022
     70  CD1      187.9160   -2.1990  487.2540 C.3   125  ILE125      0.0001
     71  N        184.4720    4.9350  502.9250 N.3   155  VAL155     -0.1245
     72  CA       184.9850    4.5610  501.5970 C.3   155  VAL155      0.1561
     73  C        183.9180    4.9350  500.5420 C.2   155  VAL155      0.2260
     74  O        184.2620    5.3970  499.4530 O.2   155  VAL155     -0.2867
     75  CB       185.3870    3.0570  501.5300 C.3   155  VAL155      0.0252
     76  CG1      185.8520    2.6540  500.1310 C.3   155  VAL155      0.0019
     77  CG2      186.4640    2.7270  502.5560 C.3   155  VAL155      0.0019
     78  N        183.5650    9.3610  499.3060 N.3   158  PRO158     -0.2102
     79  CA       184.1810   10.0000  498.1290 C.3   158  PRO158      0.1504
     80  C        183.7420    9.3820  496.8010 C.2   158  PRO158      0.2575
     81  O        183.8710   10.0370  495.7730 O.2   158  PRO158     -0.2718
     82  CB       185.6780    9.8000  498.3620 C.3   158  PRO158      0.0282
     83  CG       185.7720    8.5940  499.2000 C.3   158  PRO158      0.0208
     84  CD       184.5890    8.6640  500.1130 C.3   158  PRO158      0.0893
     85  N        183.2290    8.1350  496.8220 N.am  159  ALA159     -0.1980
     86  CA       182.7170    7.4440  495.6390 C.3   159  ALA159      0.1597
     87  C        181.3990    8.0760  495.1910 C.2   159  ALA159      0.2287
     88  O        181.1590    8.1860  493.9880 O.2   159  ALA159     -0.2864
     89  CB       182.5230    5.9660  495.9340 C.3   159  ALA159      0.0319
     90  N        182.4120   11.3270  493.7920 N.3   162  GLY162     -0.1210
     91  CA       183.1580   11.0050  492.5790 C.3   162  GLY162      0.1956
     92  C        182.3290   10.9080  491.3210 C.2   162  GLY162      0.2611
     93  O        182.5760   11.6400  490.3600 O.2   162  GLY162     -0.2717
     94  N        181.3400   10.0040  491.3290 N.am  163  VAL163     -0.1979
     95  CA       180.4300    9.7540  490.2100 C.3   163  VAL163      0.1595
     96  C        179.5440   10.9990  489.9730 C.2   163  VAL163      0.2287
     97  O        179.4060   11.4300  488.8270 O.2   163  VAL163     -0.2864
     98  CB       179.5880    8.4670  490.4500 C.3   163  VAL163      0.0276
     99  CG1      178.6860    8.1510  489.2610 C.3   163  VAL163      0.0022
    100  CG2      180.4840    7.2710  490.7660 C.3   163  VAL163      0.0022
    101  N        181.2980   13.7890  488.0700 N.3   166  LEU166     -0.1231
    102  CA       181.5930   13.3130  486.7130 C.3   166  LEU166      0.1693
    103  C        180.3680   13.4120  485.7950 C.2   166  LEU166      0.2591
    104  O        180.5250   13.4880  484.5740 O.2   166  LEU166     -0.2718
    105  CB       182.0970   11.8590  486.7480 C.3   166  LEU166      0.0284
    106  CG       183.5780   11.6460  487.0480 C.3   166  LEU166      0.0019
    107  CD1      183.8220   10.2510  487.5880 C.3   166  LEU166      0.0001
    108  CD2      184.4330   11.8650  485.8080 C.3   166  LEU166      0.0001
    109  N        179.1560   13.4020  486.3880 N.am  167  MET167     -0.1979
    110  CA       177.8720   13.4990  485.6860 C.3   167  MET167      0.1605
    111  C        177.4110   14.9660  485.5700 C.2   167  MET167      0.2287
    112  O        176.6370   15.2970  484.6670 O.2   167  MET167     -0.2864
    113  CB       176.7900   12.6590  486.4050 C.3   167  MET167      0.0413
    114  CG       177.1170   11.1630  486.5440 C.3   167  MET167      0.0598
    115  SD       177.5270   10.2860  485.0070 S.3   167  MET167     -0.1393
    116  CE       178.0400    8.7130  485.6530 C.3   167  MET167      0.0692
    117  N        189.1280   18.8320  492.1240 N.3   233  PHE233     -0.1227
    118  CA       188.4290   17.6600  492.6490 C.3   233  PHE233      0.1736
    119  C        189.3560   16.8600  493.5680 C.2   233  PHE233      0.2595
    120  O        188.9510   16.5200  494.6750 O.2   233  PHE233     -0.2718
    121  CB       187.9070   16.7710  491.4990 C.3   233  PHE233      0.0547
    122  CG       187.1500   15.5460  491.9610 C.ar  233  PHE233     -0.0202
    123  CD1      187.8240   14.3790  492.3060 C.ar  233  PHE233     -0.0042
    124  CD2      185.7660   15.5630  492.0640 C.ar  233  PHE233     -0.0042
    125  CE1      187.1280   13.2590  492.7580 C.ar  233  PHE233     -0.0003
    126  CE2      185.0720   14.4380  492.5120 C.ar  233  PHE233     -0.0003
    127  CZ       185.7570   13.2940  492.8490 C.ar  233  PHE233     -0.0000
    128  N        190.5880   16.5640  493.0990 N.am  234  GLN234     -0.1979
    129  CA       191.6220   15.8010  493.8110 C.3   234  GLN234      0.1601
    130  C        191.9770   16.4390  495.1680 C.2   234  GLN234      0.2287
    131  O        192.1250   15.7210  496.1570 O.2   234  GLN234     -0.2864
    132  CB       192.8900   15.6720  492.9430 C.3   234  GLN234      0.0394
    133  CG       192.7320   14.7750  491.7180 C.3   234  GLN234      0.0908
    134  CD       193.9220   14.8320  490.7890 C.2   234  GLN234      0.2608
    135  OE1      194.4600   15.8980  490.4810 O.2   234  GLN234     -0.2717
    136  NE2      194.3210   13.6850  490.2640 N.am  234  GLN234     -0.0878
    137  N        188.8400   16.4030  497.5040 N.3   237  SER237     -0.1202
    138  CA       188.6570   15.0050  497.8850 C.3   237  SER237      0.2020
    139  C        189.5660   14.6360  499.0600 C.2   237  SER237      0.2618
    140  O        189.1810   13.8030  499.8820 O.2   237  SER237     -0.2717
    141  CB       188.9380   14.0930  496.6970 C.3   237  SER237      0.2103
    142  OG       188.2540   12.8630  496.8370 O.3   237  SER237     -0.2182
    143  N        190.7600   15.2680  499.1430 N.am  238  ASN238     -0.1974
    144  CA       191.7310   15.0730  500.2240 C.3   238  ASN238      0.1688
    145  C        191.2090   15.7030  501.5260 C.2   238  ASN238      0.2292
    146  O        191.3740   15.1150  502.5970 O.2   238  ASN238     -0.2864
    147  CB       193.1080   15.6500  499.8420 C.3   238  ASN238      0.1181
    148  CG       194.1590   15.5750  500.9360 C.2   238  ASN238      0.2629
    149  OD1      194.7020   16.5960  501.3730 O.2   238  ASN238     -0.2716
    150  ND2      194.4680   14.3730  501.4140 N.am  238  ASN238     -0.0877
    151  N        187.9920   13.6440  502.9060 N.3   241  PHE241     -0.1241
    152  CA       188.3570   12.4150  503.6050 C.3   241  PHE241      0.1605
    153  C        188.8850   12.7020  505.0190 C.2   241  PHE241      0.2264
    154  O        188.5430   11.9690  505.9470 O.2   241  PHE241     -0.2867
    155  CB       189.3960   11.6130  502.8020 C.3   241  PHE241      0.0534
    156  CG       189.5450   10.1800  503.2610 C.ar  241  PHE241     -0.0203
    157  CD1      188.7600    9.1710  502.7170 C.ar  241  PHE241     -0.0042
    158  CD2      190.4540    9.8430  504.2530 C.ar  241  PHE241     -0.0042
    159  CE1      188.8880    7.8500  503.1560 C.ar  241  PHE241     -0.0003
    160  CE2      190.5700    8.5260  504.6990 C.ar  241  PHE241     -0.0003
    161  CZ       189.8060    7.5340  504.1310 C.ar  241  PHE241     -0.0000
    162  N        193.2230    5.9840  503.8310 N.3   277  GLN277     -0.1245
    163  CA       193.6340    7.2940  503.2980 C.3   277  GLN277      0.1566
    164  C        194.7860    7.1670  502.2920 C.2   277  GLN277      0.2260
    165  O        194.8070    7.8950  501.3000 O.2   277  GLN277     -0.2867
    166  CB       194.0490    8.2440  504.4330 C.3   277  GLN277      0.0367
    167  CG       193.9930    9.7180  504.0330 C.3   277  GLN277      0.0905
    168  CD       194.5270   10.6630  505.0790 C.2   277  GLN277      0.2608
    169  OE1      194.3250   10.4950  506.2900 O.2   277  GLN277     -0.2717
    170  NE2      195.1620   11.7300  504.6200 N.am  277  GLN277     -0.0878
    171  N        193.1670    5.2180  499.1410 N.3   280  MET280     -0.1230
    172  CA       192.2530    6.0910  498.4040 C.3   280  MET280      0.1702
    173  C        193.0440    7.1140  497.5920 C.2   280  MET280      0.2592
    174  O        192.6010    7.5130  496.5120 O.2   280  MET280     -0.2718
    175  CB       191.2870    6.8040  499.3650 C.3   280  MET280      0.0401
    176  CG       190.2270    5.9080  499.9600 C.3   280  MET280      0.0596
    177  SD       188.8790    5.5250  498.8330 S.3   280  MET280     -0.1393
    178  CE       189.2190    3.8090  498.5000 C.3   280  MET280      0.0692
    179  N        194.2280    7.5190  498.1140 N.am  281  ALA281     -0.1980
    180  CA       195.1550    8.4690  497.4940 C.3   281  ALA281      0.1597
    181  C        195.6650    7.9680  496.1360 C.2   281  ALA281      0.2287
    182  O        195.9040    8.7870  495.2480 O.2   281  ALA281     -0.2864
    183  CB       196.3300    8.7310  498.4200 C.3   281  ALA281      0.0319
    184  N        193.9360    6.0320  493.9840 N.3   283  LEU283     -0.1231
    185  CA       192.8140    6.1600  493.0500 C.3   283  LEU283      0.1693
    186  C        192.5670    7.6270  492.6960 C.2   283  LEU283      0.2592
    187  O        192.1600    7.9160  491.5710 O.2   283  LEU283     -0.2718
    188  CB       191.5370    5.5220  493.6230 C.3   283  LEU283      0.0284
    189  CG       191.5640    3.9930  493.8050 C.3   283  LEU283      0.0019
    190  CD1      190.5450    3.5440  494.8200 C.3   283  LEU283      0.0001
    191  CD2      191.3510    3.2600  492.5000 C.3   283  LEU283      0.0001
    192  N        192.8420    8.5470  493.6470 N.am  284  SER284     -0.1952
    193  CA       192.7060    9.9990  493.4790 C.3   284  SER284      0.1924
    194  C        193.7070   10.5300  492.4400 C.2   284  SER284      0.2314
    195  O        193.4140   11.5190  491.7700 O.2   284  SER284     -0.2863
    196  CB       192.9070   10.7130  494.8140 C.3   284  SER284      0.2116
    197  OG       192.4580   12.0580  494.7710 O.3   284  SER284     -0.2180
    198  N        192.4180    9.7990  488.8690 N.3   287  PHE287     -0.1241
    199  CA       191.1630   10.4970  488.5530 C.3   287  PHE287      0.1605
    200  C        191.2240   11.1950  487.1860 C.2   287  PHE287      0.2264
    201  O        190.2100   11.2460  486.4930 O.2   287  PHE287     -0.2867
    202  CB       190.7680   11.4980  489.6540 C.3   287  PHE287      0.0534
    203  CG       189.4250   12.1580  489.4260 C.ar  287  PHE287     -0.0203
    204  CD1      188.2410   11.4520  489.6140 C.ar  287  PHE287     -0.0042
    205  CD2      189.3460   13.4790  489.0050 C.ar  287  PHE287     -0.0042
    206  CE1      187.0030   12.0560  489.3820 C.ar  287  PHE287     -0.0003
    207  CE2      188.1070   14.0830  488.7770 C.ar  287  PHE287     -0.0003
    208  CZ       186.9450   13.3690  488.9690 C.ar  287  PHE287     -0.0000
    209  N        190.4220    8.6230  484.7640 N.3   290  VAL290     -0.1245
    210  CA       189.0020    8.2820  484.9060 C.3   290  VAL290      0.1561
    211  C        188.1680    9.2400  484.0400 C.2   290  VAL290      0.2260
    212  O        187.2740    8.7860  483.3290 O.2   290  VAL290     -0.2867
    213  CB       188.5580    8.2930  486.3940 C.3   290  VAL290      0.0252
    214  CG1      187.0570    8.0510  486.5420 C.3   290  VAL290      0.0019
    215  CG2      189.3470    7.2740  487.2070 C.3   290  VAL290      0.0019
    216  N        186.4020    7.9080  480.5260 N.3   294  LEU294     -0.1245
    217  CA       184.9420    7.9680  480.4440 C.3   294  LEU294      0.1561
    218  C        184.4940    8.8670  479.2970 C.2   294  LEU294      0.2260
    219  O        183.5140    8.5390  478.6250 O.2   294  LEU294     -0.2867
    220  CB       184.3180    8.4500  481.7640 C.3   294  LEU294      0.0270
    221  CG       184.1520    7.3960  482.8570 C.3   294  LEU294      0.0019
    222  CD1      184.0330    8.0470  484.2090 C.3   294  LEU294      0.0001
    223  CD2      182.9410    6.5030  482.5990 C.3   294  LEU294      0.0001
@<TRIPOS>BOND
     1    34    35    1
     2    38    35    1
     3    38    39    1
     4    41    39   ar
     5    41    43   ar
     6    35    36    1
     7    39    40   ar
     8    43    44   ar
     9    36    37    2
    10    15    16    1
    11    16    17    1
    12    16    19    1
    13    40    42   ar
    14   219   218    2
    15    26    27    1
    16    44    42   ar
    17    18    17    2
    18   218   217    1
    19    19    20    1
    20    27    28    1
    21    27    30    1
    22    21    20   ar
    23    21    23   ar
    24     1     2    1
    25   217   216    1
    26   217   220    1
    27    20    22   ar
    28    28    29    2
    29     3     4    2
    30     3     2    1
    31    23    25   ar
    32     2     5    1
    33    30    31    1
    34    52    54   ar
    35    52    50   ar
    36    49    50    1
    37    49    46    1
    38    54    55   ar
    39    45    46    1
    40   220   221    1
    41    50    51   ar
    42    22    24   ar
    43    25    24   ar
    44    46    47    1
    45    32    31    1
    46    31    33    1
    47    55    53   ar
    48   223   221    1
    49     5     6    1
    50    51    53   ar
    51   221   222    1
    52    47    48    2
    53     6     7   ar
    54     6     8   ar
    55     7     9   ar
    56   212   211    2
    57     8    11   ar
    58     8    10   ar
    59     9    10   ar
    60    11    13   ar
    61   211   210    1
    62    10    12   ar
    63    13    14   ar
    64   104   103    2
    65    12    14   ar
    66   112   111    2
    67   209   210    1
    68   210   213    1
    69   115   116    1
    70   115   114    1
    71   111   110    1
    72   110   109    1
    73   110   113    1
    74   103   109   am
    75   103   102    1
    76   108   106    1
    77    56    57    1
    78   213   214    1
    79   213   215    1
    80   113   114    1
    81    68    67    1
    82    68    70    1
    83   201   200    2
    84    62    60    1
    85   102   105    1
    86   102   101    1
    87   105   106    1
    88    60    57    1
    89    60    61    1
    90   106   107    1
    91    67    69    1
    92    67    64    1
    93   200   199    1
    94    57    58    1
    95    63    64    1
    96    63    58   am
    97    64    65    1
    98    58    59    2
    99   199   198    1
   100   199   202    1
   101    65    66    2
   102   207   208   ar
   103   207   205   ar
   104    97    96    2
   105   208   206   ar
   106   205   203   ar
   107    99    98    1
   108   206   204   ar
   109   203   204   ar
   110   203   202    1
   111    96    95    1
   112    95    98    1
   113    95    94    1
   114   136   134   am
   115    93    92    2
   116    98   100    1
   117   135   134    2
   118   134   133    1
   119    92    94   am
   120    92    91    1
   121   121   122    1
   122   121   118    1
   123   187   186    2
   124   133   132    1
   125   195   194    2
   126   122   124   ar
   127   122   123   ar
   128   124   126   ar
   129   117   118    1
   130   123   125   ar
   131   194   193    1
   132   191   189    1
   133   126   127   ar
   134    91    90    1
   135   118   119    1
   136   186   185    1
   137   186   192   am
   138   125   127   ar
   139   132   129    1
   140   185   188    1
   141   185   184    1
   142   128   119   am
   143   128   129    1
   144   193   192    1
   145   193   196    1
   146   119   120    2
   147   188   189    1
   148   189   190    1
   149   129   130    1
   150    88    87    2
   151   197   196    1
   152   130   131    2
   153    87    86    1
   154   182   181    2
   155    86    89    1
   156    86    85    1
   157    81    80    2
   158   181   180    1
   159   174   173    2
   160   141   142    1
   161   141   138    1
   162    80    85   am
   163    80    79    1
   164   180   179    1
   165   180   183    1
   166   137   138    1
   167   173   179   am
   168   173   172    1
   169   138   139    1
   170    79    82    1
   171    79    78    1
   172    82    83    1
   173   172   171    1
   174   172   175    1
   175   178   177    1
   176   177   176    1
   177   139   143   am
   178   139   140    2
   179   143   144    1
   180    83    84    1
   181    78    84    1
   182   175   176    1
   183    74    73    2
   184   147   144    1
   185   147   148    1
   186    76    75    1
   187   144   145    1
   188    73    72    1
   189   148   149    2
   190   148   150   am
   191   165   164    2
   192   145   146    2
   193    75    72    1
   194    75    77    1
   195    72    71    1
   196   164   163    1
   197   157   159   ar
   198   157   156   ar
   199   155   156    1
   200   155   152    1
   201   151   152    1
   202   159   161   ar
   203   156   158   ar
   204   163   162    1
   205   163   166    1
   206   152   153    1
   207   167   166    1
   208   167   168    1
   209   161   160   ar
   210   158   160   ar
   211   170   168   am
   212   153   154    2
   213   168   169    2
