@<TRIPOS>MOLECULE
tmp/5ochE00.pdb
 108 103 0 0 0
SMALL
GASTEIGER

@<TRIPOS>ATOM
      1  N        157.5320   50.3180  516.8080 N.3   104  ASP104     -0.1239
      2  CA       156.8780   51.3190  517.6490 C.3   104  ASP104      0.1674
      3  C        156.9210   52.6810  516.9530 C.2   104  ASP104      0.2266
      4  O        156.0060   53.4910  517.1260 O.2   104  ASP104     -0.2867
      5  CB       157.5340   51.3870  519.0410 C.3   104  ASP104      0.1410
      6  CG       157.1260   50.2500  519.9600 C.2   104  ASP104      0.3668
      7  OD1      155.9330   50.1870  520.3370 O.co2 104  ASP104     -0.2456
      8  OD2      158.0010   49.4330  520.3170 O.co2 104  ASP104     -0.2456
      9  N        164.1270   53.3840  527.4920 N.3   340  TYR340     -0.1241
     10  CA       163.6130   53.0750  526.1490 C.3   340  TYR340      0.1605
     11  C        164.3200   53.9120  525.0610 C.2   340  TYR340      0.2264
     12  O        164.6860   55.0570  525.3350 O.2   340  TYR340     -0.2867
     13  CB       162.0850   53.2740  526.0830 C.3   340  TYR340      0.0534
     14  CG       161.2970   52.0770  526.5820 C.ar  340  TYR340     -0.0201
     15  CD1      161.0280   50.9950  525.7460 C.ar  340  TYR340     -0.0009
     16  CD2      160.8180   52.0280  527.8870 C.ar  340  TYR340     -0.0009
     17  CE1      160.3110   49.8880  526.2020 C.ar  340  TYR340      0.0417
     18  CE2      160.0990   50.9270  528.3530 C.ar  340  TYR340      0.0417
     19  CZ       159.8470   49.8590  527.5060 C.ar  340  TYR340      0.1957
     20  OH       159.1370   48.7720  527.9630 O.3   340  TYR340     -0.2866
     21  N        162.3970   57.3160  524.3940 N.3   342  ARG342     -0.1245
     22  CA       162.6150   58.3430  525.4210 C.3   342  ARG342      0.1563
     23  C        163.9990   58.1100  526.0540 C.2   342  ARG342      0.2260
     24  O        164.0830   57.4560  527.0990 O.2   342  ARG342     -0.2867
     25  CB       161.4980   58.3150  526.4820 C.3   342  ARG342      0.0307
     26  CG       160.0910   58.3960  525.8920 C.3   342  ARG342      0.0489
     27  CD       159.0540   58.2930  526.9900 C.3   342  ARG342      0.2205
     28  NE       159.2170   57.0300  527.6960 N.pl3 342  ARG342     -0.0865
     29  CZ       158.2690   56.4520  528.4120 C.cat 342  ARG342      0.5346
     30  NH1      157.0760   57.0230  528.5200 N.pl3 342  ARG342      0.1354
     31  NH2      158.5150   55.2940  529.0010 N.pl3 342  ARG342      0.1354
     32  N        163.4160   54.3110  532.8530 N.3   347  VAL347     -0.1245
     33  CA       162.3360   53.4190  533.2900 C.3   347  VAL347      0.1561
     34  C        162.8290   52.4580  534.3860 C.2   347  VAL347      0.2260
     35  O        162.1530   52.2990  535.4050 O.2   347  VAL347     -0.2867
     36  CB       161.7220   52.6440  532.1030 C.3   347  VAL347      0.0252
     37  CG1      160.6060   51.7080  532.5540 C.3   347  VAL347      0.0019
     38  CG2      161.1320   53.6530  531.1140 C.3   347  VAL347      0.0019
     39  N        151.4220   50.5200  538.7640 N.3   367  SER367     -0.1202
     40  CA       151.2780   50.5970  537.3040 C.3   367  SER367      0.2020
     41  C        152.2020   51.6610  536.7090 C.2   367  SER367      0.2619
     42  O        152.0710   52.8500  537.0190 O.2   367  SER367     -0.2717
     43  CB       149.8300   50.8760  536.9130 C.3   367  SER367      0.2103
     44  OG       149.0650   49.6830  536.8730 O.3   367  SER367     -0.2182
     45  N        153.1400   51.2020  535.8810 N.am  368  GLY368     -0.1942
     46  CA       154.1410   52.0350  535.2230 C.3   368  GLY368      0.2014
     47  C        155.5100   52.0080  535.8820 C.2   368  GLY368      0.2639
     48  O        156.3810   52.8040  535.5170 O.2   368  GLY368     -0.2714
     49  N        155.6990   51.0940  536.8410 N.am  369  GLY369     -0.1939
     50  CA       156.9430   50.9280  537.5940 C.3   369  GLY369      0.2014
     51  C        158.0580   50.2040  536.8580 C.2   369  GLY369      0.2639
     52  O        159.2040   50.2010  537.3230 O.2   369  GLY369     -0.2714
     53  N        157.7200   49.5790  535.7260 N.am  370  GLY370     -0.1939
     54  CA       158.6620   48.8440  534.8870 C.3   370  GLY370      0.2014
     55  C        158.5750   47.3340  534.9910 C.2   370  GLY370      0.2639
     56  O        159.5760   46.6500  534.7620 O.2   370  GLY370     -0.2714
     57  N        157.3790   46.8030  535.3200 N.am  371  LYS371     -0.1963
     58  CA       157.1350   45.3670  535.4960 C.3   371  LYS371      0.1728
     59  C        157.2530   44.6090  534.1750 C.2   371  LYS371      0.2617
     60  O        158.0760   43.6980  534.0780 O.2   371  LYS371     -0.2715
     61  CB       155.7560   45.1130  536.1260 C.3   371  LYS371      0.0311
     62  CG       155.5830   45.6860  537.5340 C.3   371  LYS371      0.0038
     63  CD       154.2530   45.2840  538.1810 C.3   371  LYS371      0.0206
     64  CE       153.0210   45.8950  537.5420 C.3   371  LYS371      0.1093
     65  NZ       152.9830   47.3740  537.6910 N.3   371  LYS371     -0.1314
     66  N        156.4460   45.0020  533.1600 N.am  372  THR372     -0.1937
     67  CA       156.4120   44.4010  531.8180 C.3   372  THR372      0.2028
     68  C        157.7590   44.6800  531.0890 C.2   372  THR372      0.2642
     69  O        158.1600   43.8870  530.2300 O.2   372  THR372     -0.2714
     70  CB       155.1730   44.9140  531.0530 C.3   372  THR372      0.1808
     71  OG1      154.0000   44.5890  531.8000 O.3   372  THR372     -0.2208
     72  CG2      155.0350   44.3080  529.6680 C.3   372  THR372      0.0379
     73  N        158.4670   45.7770  531.4810 N.am  373  THR373     -0.1950
     74  CA       159.7750   46.1960  530.9510 C.3   373  THR373      0.1897
     75  C        160.8420   45.1320  531.2700 C.2   373  THR373      0.2313
     76  O        161.6960   44.8630  530.4300 O.2   373  THR373     -0.2863
     77  CB       160.1780   47.5810  531.5100 C.3   373  THR373      0.1794
     78  OG1      159.0410   48.4440  531.5690 O.3   373  THR373     -0.2208
     79  CG2      161.2620   48.2500  530.6870 C.3   373  THR373      0.0378
     80  N        164.9260   44.0430  524.0130 N.3   382  TYR382     -0.1241
     81  CA       165.8320   45.1690  524.2140 C.3   382  TYR382      0.1605
     82  C        167.0010   44.7290  525.1030 C.2   382  TYR382      0.2264
     83  O        166.8700   43.7690  525.8700 O.2   382  TYR382     -0.2867
     84  CB       165.1130   46.3650  524.8700 C.3   382  TYR382      0.0534
     85  CG       163.7770   46.7530  524.2800 C.ar  382  TYR382     -0.0201
     86  CD1      163.6960   47.6430  523.2120 C.ar  382  TYR382     -0.0009
     87  CD2      162.5870   46.3040  524.8470 C.ar  382  TYR382     -0.0009
     88  CE1      162.4660   48.0340  522.6890 C.ar  382  TYR382      0.0417
     89  CE2      161.3520   46.6870  524.3340 C.ar  382  TYR382      0.0417
     90  CZ       161.2960   47.5530  523.2550 C.ar  382  TYR382      0.1957
     91  OH       160.0760   47.9290  522.7520 O.3   382  TYR382     -0.2866
     92  N        152.8640   37.5150  532.8490 N.3   494  ASP494     -0.1225
     93  CA       152.5720   38.9380  533.0350 C.3   494  ASP494      0.1805
     94  C        151.0550   39.1930  533.0230 C.2   494  ASP494      0.2597
     95  O        150.4500   39.3110  531.9560 O.2   494  ASP494     -0.2718
     96  CB       153.3010   39.7870  531.9680 C.3   494  ASP494      0.1424
     97  CG       153.0990   41.2890  532.0820 C.2   494  ASP494      0.3668
     98  OD1      153.1240   41.8110  533.2190 O.co2 494  ASP494     -0.2456
     99  OD2      152.9650   41.9470  531.0320 O.co2 494  ASP494     -0.2456
    100  N        150.4560   39.2590  534.2350 N.am  495  GLU495     -0.1979
    101  CA       149.0350   39.5130  534.5360 C.3   495  GLU495      0.1602
    102  C        148.1020   38.6250  533.6910 C.2   495  GLU495      0.2287
    103  O        147.1120   39.1130  533.1490 O.2   495  GLU495     -0.2864
    104  CB       148.6920   41.0080  534.3450 C.3   495  GLU495      0.0415
    105  CG       149.3390   41.9440  535.3590 C.3   495  GLU495      0.1163
    106  CD       149.4250   43.4130  534.9780 C.2   495  GLU495      0.3649
    107  OE1      148.9840   43.7810  533.8640 O.co2 495  GLU495     -0.2457
    108  OE2      149.9500   44.1990  535.7980 O.co2 495  GLU495     -0.2457
@<TRIPOS>BOND
     1     1     2    1
     2     3     4    2
     3     3     2    1
     4     2     5    1
     5     5     6    1
     6     6     8   ar
     7     6     7   ar
     8    88    86   ar
     9    88    90   ar
    10    91    90    1
    11    86    85   ar
    12    90    89   ar
    13    80    81    1
    14    81    84    1
    15    81    82    1
    16    85    87   ar
    17    85    84    1
    18    89    87   ar
    19    21    22    1
    20    11    12    2
    21    11    10    1
    22    82    83    2
    23    22    23    1
    24    22    25    1
    25    15    17   ar
    26    15    14   ar
    27    26    25    1
    28    26    27    1
    29    23    24    2
    30    13    10    1
    31    13    14    1
    32    10     9    1
    33    17    19   ar
    34    14    16   ar
    35    27    28    1
    36    19    20    1
    37    19    18   ar
    38    28    29    2
    39    16    18   ar
    40    29    30    1
    41    29    31    1
    42    72    70    1
    43    69    68    2
    44    76    75    2
    45    79    77    1
    46    74    75    1
    47    74    73    1
    48    74    77    1
    49    99    97   ar
    50    70    71    1
    51    70    67    1
    52    68    73   am
    53    68    67    1
    54    38    36    1
    55    77    78    1
    56    67    66    1
    57    95    94    2
    58    96    97    1
    59    96    93    1
    60    97    98   ar
    61    36    37    1
    62    36    33    1
    63    92    93    1
    64    32    33    1
    65    94    93    1
    66    94   100   am
    67   103   102    2
    68    66    59   am
    69    33    34    1
    70   102   101    1
    71   107   106   ar
    72    60    59    2
    73    59    58    1
    74   100   101    1
    75   104   101    1
    76   104   105    1
    77    34    35    2
    78    56    55    2
    79    54    55    1
    80    54    53    1
    81   106   105    1
    82   106   108   ar
    83    55    57   am
    84    46    45    1
    85    46    47    1
    86    57    58    1
    87    58    61    1
    88    48    47    2
    89    53    51   am
    90    45    41   am
    91    47    49   am
    92    61    62    1
    93    41    42    2
    94    41    40    1
    95    49    50    1
    96    51    52    2
    97    51    50    1
    98    44    43    1
    99    43    40    1
   100    40    39    1
   101    62    63    1
   102    64    65    1
   103    64    63    1
