@<TRIPOS>MOLECULE
tmp/5ochG01.pdb
 135 127 0 0 0
SMALL
GASTEIGER

@<TRIPOS>ATOM
      1  N        267.6930   49.3630  559.8790 N.3     3  TRP3       -0.1241
      2  CA       267.5010   50.5040  560.7780 C.3     3  TRP3        0.1605
      3  C        268.3480   51.7200  560.3820 C.2     3  TRP3        0.2264
      4  O        267.9880   52.8460  560.7410 O.2     3  TRP3       -0.2867
      5  CB       267.8060   50.0970  562.2270 C.3     3  TRP3        0.0550
      6  CG       266.9910   48.9300  562.7040 C.ar    3  TRP3        0.0003
      7  CD1      267.3380   47.6120  562.6490 C.ar    3  TRP3        0.0946
      8  CD2      265.6720   48.9760  563.2660 C.ar    3  TRP3        0.0152
      9  NE1      266.3250   46.8340  563.1610 N.ar    3  TRP3       -0.2442
     10  CE2      265.2900   47.6460  563.5500 C.ar    3  TRP3        0.0810
     11  CE3      264.7770   50.0170  563.5760 C.ar    3  TRP3        0.0012
     12  CZ2      264.0560   47.3270  564.1310 C.ar    3  TRP3        0.0191
     13  CZ3      263.5530   49.6990  564.1460 C.ar    3  TRP3        0.0001
     14  CH2      263.2030   48.3690  564.4180 C.ar    3  TRP3        0.0015
     15  N        251.2280   51.0640  565.8860 N.3   120  VAL120     -0.1245
     16  CA       252.1350   50.8210  567.0070 C.3   120  VAL120      0.1561
     17  C        252.3000   52.1180  567.8170 C.2   120  VAL120      0.2260
     18  O        252.2450   52.0600  569.0420 O.2   120  VAL120     -0.2867
     19  CB       253.4890   50.2070  566.5600 C.3   120  VAL120      0.0252
     20  CG1      254.5110   50.1920  567.6940 C.3   120  VAL120      0.0019
     21  CG2      253.2900   48.7950  566.0230 C.3   120  VAL120      0.0019
     22  N        259.1090   46.7690  582.4230 N.3   144  VAL144     -0.1245
     23  CA       258.6140   47.2110  581.1100 C.3   144  VAL144      0.1561
     24  C        259.6890   46.8850  580.0520 C.2   144  VAL144      0.2260
     25  O        259.3530   46.4770  578.9390 O.2   144  VAL144     -0.2867
     26  CB       258.2180   48.7180  581.1080 C.3   144  VAL144      0.0252
     27  CG1      257.7640   49.1850  579.7260 C.3   144  VAL144      0.0019
     28  CG2      257.1300   49.0020  582.1360 C.3   144  VAL144      0.0019
     29  N        260.0240   42.5180  578.5970 N.3   147  PRO147     -0.2102
     30  CA       259.4120   41.9380  577.3870 C.3   147  PRO147      0.1504
     31  C        259.8590   42.6220  576.0930 C.2   147  PRO147      0.2575
     32  O        259.7330   42.0200  575.0300 O.2   147  PRO147     -0.2718
     33  CB       257.9130   42.1230  577.6250 C.3   147  PRO147      0.0282
     34  CG       257.8150   43.2900  578.5200 C.3   147  PRO147      0.0208
     35  CD       258.9970   43.1760  579.4320 C.3   147  PRO147      0.0893
     36  N        260.3810   43.8630  576.1820 N.am  148  ALA148     -0.1980
     37  CA       260.8960   44.6110  575.0340 C.3   148  ALA148      0.1597
     38  C        262.2200   43.9990  574.5630 C.2   148  ALA148      0.2287
     39  O        262.4700   43.9470  573.3560 O.2   148  ALA148     -0.2864
     40  CB       261.0850   46.0730  575.4020 C.3   148  ALA148      0.0319
     41  N        261.2040   40.8270  573.0000 N.3   151  GLY151     -0.1210
     42  CA       260.4720   41.2120  571.7980 C.3   151  GLY151      0.1956
     43  C        261.3130   41.3660  570.5530 C.2   151  GLY151      0.2611
     44  O        261.0690   40.6880  569.5520 O.2   151  GLY151     -0.2717
     45  N        262.3080   42.2590  570.6190 N.am  152  VAL152     -0.1979
     46  CA       263.2280   42.5590  569.5200 C.3   152  VAL152      0.1595
     47  C        264.1150   41.3260  569.2350 C.2   152  VAL152      0.2287
     48  O        264.2660   40.9540  568.0720 O.2   152  VAL152     -0.2864
     49  CB       264.0620   43.8370  569.8240 C.3   152  VAL152      0.0276
     50  CG1      264.9970   44.1940  568.6700 C.3   152  VAL152      0.0022
     51  CG2      263.1520   45.0210  570.1580 C.3   152  VAL152      0.0022
     52  N        262.3670   38.6550  567.1790 N.3   155  LEU155     -0.1245
     53  CA       262.0880   39.1960  565.8430 C.3   155  LEU155      0.1561
     54  C        263.3230   39.1450  564.9310 C.2   155  LEU155      0.2260
     55  O        263.1770   39.1330  563.7050 O.2   155  LEU155     -0.2867
     56  CB       261.5810   40.6440  565.9420 C.3   155  LEU155      0.0270
     57  CG       260.0920   40.8350  566.2370 C.3   155  LEU155      0.0019
     58  CD1      259.8420   42.1950  566.8430 C.3   155  LEU155      0.0001
     59  CD2      259.2340   40.6650  564.9710 C.3   155  LEU155      0.0001
     60  N        254.4640   33.4510  570.9230 N.3   222  PHE222     -0.1241
     61  CA       255.1710   34.5920  571.4960 C.3   222  PHE222      0.1605
     62  C        254.2450   35.3620  572.4410 C.2   222  PHE222      0.2264
     63  O        254.6440   35.6510  573.5670 O.2   222  PHE222     -0.2867
     64  CB       255.7120   35.5180  570.3860 C.3   222  PHE222      0.0534
     65  CG       256.4770   36.7150  570.9010 C.ar  222  PHE222     -0.0203
     66  CD1      255.8110   37.8710  571.2910 C.ar  222  PHE222     -0.0042
     67  CD2      257.8610   36.6830  571.0050 C.ar  222  PHE222     -0.0042
     68  CE1      256.5130   38.9640  571.7950 C.ar  222  PHE222     -0.0003
     69  CE2      258.5630   37.7840  571.4960 C.ar  222  PHE222     -0.0003
     70  CZ       257.8830   38.9150  571.8880 C.ar  222  PHE222     -0.0000
     71  N        254.7570   35.6970  576.3980 N.3   226  SER226     -0.1217
     72  CA       254.9590   37.0800  576.8510 C.3   226  SER226      0.1889
     73  C        254.0190   37.4190  578.0120 C.2   226  SER226      0.2288
     74  O        254.3680   38.2450  578.8570 O.2   226  SER226     -0.2866
     75  CB       254.7520   38.0650  575.7050 C.3   226  SER226      0.2089
     76  OG       254.8770   39.3510  576.0580 O.3   226  SER226     -0.2183
     77  N        255.5440   38.0890  581.9930 N.3   230  PHE230     -0.1241
     78  CA       255.1880   39.3040  582.7280 C.3   230  PHE230      0.1605
     79  C        254.6170   38.9660  584.1100 C.2   230  PHE230      0.2264
     80  O        254.9620   39.6380  585.0820 O.2   230  PHE230     -0.2867
     81  CB       254.1840   40.1590  581.9380 C.3   230  PHE230      0.0534
     82  CG       254.0170   41.5620  582.4750 C.ar  230  PHE230     -0.0203
     83  CD1      254.8060   42.6010  582.0040 C.ar  230  PHE230     -0.0042
     84  CD2      253.0750   41.8420  583.4570 C.ar  230  PHE230     -0.0042
     85  CE1      254.6600   43.8950  582.5080 C.ar  230  PHE230     -0.0003
     86  CE2      252.9500   43.1300  583.9800 C.ar  230  PHE230     -0.0003
     87  CZ       253.7250   44.1540  583.4840 C.ar  230  PHE230     -0.0000
     88  N        250.4250   46.7070  578.5680 N.3   260  MET260     -0.1245
     89  CA       251.3420   45.8650  577.7950 C.3   260  MET260      0.1570
     90  C        250.5550   44.8820  576.9320 C.2   260  MET260      0.2261
     91  O        251.0020   44.5300  575.8390 O.2   260  MET260     -0.2867
     92  CB       252.3000   45.1000  578.7290 C.3   260  MET260      0.0387
     93  CG       253.3650   45.9670  579.3660 C.3   260  MET260      0.0595
     94  SD       254.7300   46.3930  578.2600 S.3   260  MET260     -0.1393
     95  CE       254.3990   48.1200  578.0070 C.3   260  MET260      0.0692
     96  N        249.6750   46.1250  573.3720 N.3   263  LEU263     -0.1231
     97  CA       250.8020   46.0380  572.4360 C.3   263  LEU263      0.1693
     98  C        251.0440   44.5920  572.0090 C.2   263  LEU263      0.2592
     99  O        251.4500   44.3570  570.8710 O.2   263  LEU263     -0.2718
    100  CB       252.0820   46.6360  573.0510 C.3   263  LEU263      0.0284
    101  CG       252.0660   48.1470  573.3000 C.3   263  LEU263      0.0019
    102  CD1      253.0900   48.5440  574.3360 C.3   263  LEU263      0.0001
    103  CD2      252.2820   48.9170  572.0260 C.3   263  LEU263      0.0001
    104  N        250.7700   43.6280  572.9180 N.am  264  SER264     -0.1952
    105  CA       250.9040   42.1860  572.6840 C.3   264  SER264      0.1924
    106  C        249.9060   41.7040  571.6170 C.2   264  SER264      0.2314
    107  O        250.1980   40.7470  570.8980 O.2   264  SER264     -0.2863
    108  CB       250.6970   41.4180  573.9850 C.3   264  SER264      0.2116
    109  OG       251.1440   40.0780  573.8700 O.3   264  SER264     -0.2180
    110  N        251.2140   42.6000  568.0830 N.3   267  PHE267     -0.1241
    111  CA       252.4730   41.9220  567.7390 C.3   267  PHE267      0.1605
    112  C        252.4130   41.2870  566.3420 C.2   267  PHE267      0.2264
    113  O        253.4300   41.2660  565.6450 O.2   267  PHE267     -0.2867
    114  CB       252.8700   40.8720  568.7920 C.3   267  PHE267      0.0534
    115  CG       254.2140   40.2240  568.5290 C.ar  267  PHE267     -0.0203
    116  CD1      255.3970   40.9180  568.7570 C.ar  267  PHE267     -0.0042
    117  CD2      254.2950   38.9260  568.0340 C.ar  267  PHE267     -0.0042
    118  CE1      256.6380   40.3260  568.4930 C.ar  267  PHE267     -0.0003
    119  CE2      255.5360   38.3330  567.7750 C.ar  267  PHE267     -0.0003
    120  CZ       256.6990   39.0370  568.0050 C.ar  267  PHE267     -0.0000
    121  N        253.2200   43.9490  564.0310 N.3   270  VAL270     -0.1245
    122  CA       254.6380   44.2790  564.1860 C.3   270  VAL270      0.1561
    123  C        255.4750   43.3640  563.2910 C.2   270  VAL270      0.2260
    124  O        256.3730   43.8500  562.6050 O.2   270  VAL270     -0.2867
    125  CB       255.0900   44.2060  565.6620 C.3   270  VAL270      0.0252
    126  CG1      256.5690   44.5400  565.8190 C.3   270  VAL270      0.0019
    127  CG2      254.2800   45.2220  566.4710 C.3   270  VAL270      0.0019
    128  N        257.2750   44.8450  559.8640 N.3   274  LEU274     -0.1245
    129  CA       258.7350   44.7880  559.7780 C.3   274  LEU274      0.1561
    130  C        259.1870   43.9550  558.5790 C.2   274  LEU274      0.2260
    131  O        260.1520   44.3350  557.9140 O.2   274  LEU274     -0.2867
    132  CB       259.3490   44.2350  561.0690 C.3   274  LEU274      0.0270
    133  CG       259.5170   45.2270  562.2120 C.3   274  LEU274      0.0019
    134  CD1      259.6290   44.5020  563.5360 C.3   274  LEU274      0.0001
    135  CD2      260.7360   46.1250  561.9970 C.3   274  LEU274      0.0001
@<TRIPOS>BOND
     1   131   130    2
     2   130   129    1
     3   129   128    1
     4   129   132    1
     5     1     2    1
     6     3     4    2
     7     3     2    1
     8     2     5    1
     9   132   133    1
    10   135   133    1
    11   133   134    1
    12     5     6    1
    13   124   123    2
    14     7     6   ar
    15     7     9   ar
    16     6     8   ar
    17     9    10   ar
    18     8    10   ar
    19     8    11   ar
    20   123   122    1
    21    10    12   ar
    22    11    13   ar
    23    55    54    2
    24   121   122    1
    25    12    14   ar
    26    13    14   ar
    27   122   125    1
    28    54    53    1
    29    59    57    1
    30   113   112    2
    31   125   126    1
    32   125   127    1
    33    53    56    1
    34    53    52    1
    35    15    16    1
    36    56    57    1
    37    21    19    1
    38    57    58    1
    39   112   111    1
    40    19    16    1
    41    19    20    1
    42    16    17    1
    43   111   110    1
    44   111   114    1
    45   119   120   ar
    46   119   117   ar
    47    17    18    2
    48   120   118   ar
    49   117   115   ar
    50    48    47    2
    51   118   116   ar
    52   115   116   ar
    53   115   114    1
    54    50    49    1
    55    47    46    1
    56    46    49    1
    57    46    45    1
    58    44    43    2
    59    49    51    1
    60    64    65    1
    61    64    61    1
    62    43    45   am
    63    43    42    1
    64    99    98    2
    65   107   106    2
    66    65    67   ar
    67    65    66   ar
    68    60    61    1
    69    67    69   ar
    70    66    68   ar
    71    61    62    1
    72    69    70   ar
    73   106   105    1
    74    68    70   ar
    75    42    41    1
    76    98    97    1
    77    98   104   am
    78   103   101    1
    79    97   100    1
    80    97    96    1
    81    62    63    2
    82   105   104    1
    83   105   108    1
    84   100   101    1
    85   101   102    1
    86    39    38    2
    87   109   108    1
    88    38    37    1
    89    32    31    2
    90    37    40    1
    91    37    36    1
    92    75    76    1
    93    75    72    1
    94    91    90    2
    95    31    36   am
    96    31    30    1
    97    71    72    1
    98    72    73    1
    99    90    89    1
   100    30    33    1
   101    30    29    1
   102    33    34    1
   103    89    88    1
   104    89    92    1
   105    95    94    1
   106    73    74    2
   107    94    93    1
   108    34    35    1
   109    29    35    1
   110    92    93    1
   111    25    24    2
   112    27    26    1
   113    24    23    1
   114    26    23    1
   115    26    28    1
   116    23    22    1
   117    81    82    1
   118    81    78    1
   119    77    78    1
   120    83    82   ar
   121    83    85   ar
   122    82    84   ar
   123    85    87   ar
   124    78    79    1
   125    84    86   ar
   126    87    86   ar
   127    79    80    2
