@<TRIPOS>MOLECULE
tmp/5ociA00.pdb
 166 155 0 0 0
SMALL
GASTEIGER

@<TRIPOS>ATOM
      1  N         66.6360   33.5860   33.2110 N.3    32  LEU32      -0.1245
      2  CA        66.0920   33.0140   31.9700 C.3    32  LEU32       0.1561
      3  C         64.7950   33.7120   31.5640 C.2    32  LEU32       0.2260
      4  O         64.6120   34.0220   30.3870 O.2    32  LEU32      -0.2867
      5  CB        65.8780   31.5130   32.1300 C.3    32  LEU32       0.0270
      6  CG        67.1980   30.7130   32.3350 C.3    32  LEU32       0.0019
      7  CD1       66.8780   29.2350   32.5180 C.3    32  LEU32       0.0001
      8  CD2       68.1930   30.8940   31.1250 C.3    32  LEU32       0.0001
      9  N         65.7410   37.0010   30.0200 N.3    35  ASN35      -0.1225
     10  CA        66.1870   36.8360   28.6410 C.3    35  ASN35       0.1785
     11  C         65.0150   36.6740   27.7150 C.2    35  ASN35       0.2597
     12  O         64.9930   37.3130   26.6510 O.2    35  ASN35      -0.2718
     13  CB        67.1680   35.6840   28.5140 C.3    35  ASN35       0.1169
     14  CG        68.5080   35.9630   29.1700 C.2    35  ASN35       0.2627
     15  OD1       68.7460   37.0460   29.7330 O.2    35  ASN35      -0.2716
     16  ND2       69.4300   34.9820   29.0920 N.am   35  ASN35      -0.0877
     17  N         64.0090   35.8510   28.1260 N.am   36  SER36      -0.1952
     18  CA        62.7930   35.6760   27.3170 C.3    36  SER36       0.1924
     19  C         62.0790   37.0210   27.1330 C.2    36  SER36       0.2314
     20  O         61.6490   37.3520   26.0220 O.2    36  SER36      -0.2863
     21  CB        61.8580   34.6700   27.9810 C.3    36  SER36       0.2116
     22  OG        62.4360   33.3700   27.9520 O.3    36  SER36      -0.2180
     23  N         63.3480   40.0060   27.1360 N.3    38  ASP38      -0.1225
     24  CA        64.1330   40.8240   26.1920 C.3    38  ASP38       0.1805
     25  C         63.8270   40.4240   24.7590 C.2    38  ASP38       0.2597
     26  O         63.6030   41.2950   23.9150 O.2    38  ASP38      -0.2718
     27  CB        65.6340   40.6600   26.4760 C.3    38  ASP38       0.1424
     28  CG        66.0790   41.2940   27.7900 C.2    38  ASP38       0.3668
     29  OD1       65.2650   42.0320   28.4130 O.co2  38  ASP38      -0.2456
     30  OD2       67.2220   41.0600   28.1920 O.co2  38  ASP38      -0.2456
     31  N         63.7580   39.0900   24.4930 N.am   39  ALA39      -0.1979
     32  CA        63.4360   38.6060   23.1350 C.3    39  ALA39       0.1597
     33  C         62.0000   38.9850   22.7120 C.2    39  ALA39       0.2287
     34  O         61.7260   39.2320   21.5330 O.2    39  ALA39      -0.2864
     35  CB        63.5990   37.1090   23.0910 C.3    39  ALA39       0.0319
     36  N         61.9160   42.6060   21.7830 N.3    42  LYS42      -0.1245
     37  CA        62.5240   42.7930   20.4600 C.3    42  LYS42       0.1561
     38  C         61.5600   42.5010   19.3250 C.2    42  LYS42       0.2260
     39  O         61.4890   43.2940   18.3870 O.2    42  LYS42      -0.2867
     40  CB        63.8290   41.9900   20.3370 C.3    42  LYS42       0.0271
     41  CG        64.6500   42.3830   19.1020 C.3    42  LYS42       0.0035
     42  CD        66.0600   41.7850   19.1590 C.3    42  LYS42       0.0206
     43  CE        66.9700   42.3640   18.1050 C.3    42  LYS42       0.1093
     44  NZ        68.1350   41.4770   17.8400 N.3    42  LYS42      -0.1314
     45  N         59.5220   30.7620   25.1240 N.3    77  ASP77      -0.1239
     46  CA        58.9700   32.0830   24.8320 C.3    77  ASP77       0.1674
     47  C         58.6630   32.2100   23.3340 C.2    77  ASP77       0.2266
     48  O         59.2120   31.4690   22.5230 O.2    77  ASP77      -0.2867
     49  CB        59.8840   33.2250   25.3040 C.3    77  ASP77       0.1410
     50  CG        61.1950   33.3180   24.5620 C.2    77  ASP77       0.3668
     51  OD1       61.1660   33.5620   23.3360 O.co2  77  ASP77      -0.2456
     52  OD2       62.2550   33.1120   25.2010 O.co2  77  ASP77      -0.2456
     53  N         61.6330   36.9850   19.5360 N.3    80  ILE80      -0.1231
     54  CA        62.2050   37.1420   18.1860 C.3    80  ILE80       0.1692
     55  C         62.9660   35.8880   17.7000 C.2    80  ILE80       0.2593
     56  O         63.1370   35.7090   16.4850 O.2    80  ILE80      -0.2718
     57  CB        63.1010   38.4310   18.1300 C.3    80  ILE80       0.0266
     58  CG1       63.4820   38.7990   16.6740 C.3    80  ILE80       0.0019
     59  CG2       64.3570   38.2970   19.0140 C.3    80  ILE80       0.0020
     60  CD1       63.1940   40.1420   16.3270 C.3    80  ILE80       0.0001
     61  N         63.4440   35.0660   18.6340 N.am   81  GLY81      -0.1942
     62  CA        64.2450   33.9020   18.2800 C.3    81  GLY81       0.2014
     63  C         65.6410   34.2970   17.8300 C.2    81  GLY81       0.2638
     64  O         65.9870   35.4870   17.7940 O.2    81  GLY81      -0.2714
     65  N         66.4580   33.2900   17.4960 N.am   82  MET82      -0.1976
     66  CA        67.8330   33.5360   17.0800 C.3    82  MET82       0.1605
     67  C         68.1730   32.8010   15.7880 C.2    82  MET82       0.2287
     68  O         67.8390   31.6190   15.6170 O.2    82  MET82      -0.2864
     69  CB        68.8050   33.0740   18.1700 C.3    82  MET82       0.0413
     70  CG        68.7360   33.9100   19.4460 C.3    82  MET82       0.0598
     71  SD        69.8150   33.3410   20.7600 S.3    82  MET82      -0.1393
     72  CE        68.8680   31.8570   21.3520 C.3    82  MET82       0.0692
     73  N         73.1450   34.5170   15.1040 N.3    86  ASP86      -0.1225
     74  CA        72.7420   35.1110   16.3950 C.3    86  ASP86       0.1805
     75  C         73.1270   34.1520   17.5170 C.2    86  ASP86       0.2597
     76  O         73.7070   34.5890   18.4950 O.2    86  ASP86      -0.2718
     77  CB        71.2180   35.3780   16.4840 C.3    86  ASP86       0.1424
     78  CG        70.6050   36.4390   15.5840 C.2    86  ASP86       0.3668
     79  OD1       71.3510   37.3450   15.1270 O.co2  86  ASP86      -0.2456
     80  OD2       69.3740   36.3680   15.3350 O.co2  86  ASP86      -0.2456
     81  N         72.8350   32.8370   17.3560 N.am   87  LEU87      -0.1979
     82  CA        73.1040   31.7790   18.3240 C.3    87  LEU87       0.1596
     83  C         74.5860   31.6160   18.6390 C.2    87  LEU87       0.2287
     84  O         75.1020   32.3760   19.4620 O.2    87  LEU87      -0.2864
     85  CB        72.4540   30.4630   17.8280 C.3    87  LEU87       0.0297
     86  CG        72.3550   29.2290   18.6950 C.3    87  LEU87       0.0022
     87  CD1       71.4980   29.4750   19.9600 C.3    87  LEU87       0.0001
     88  CD2       71.7300   28.0880   17.8960 C.3    87  LEU87       0.0001
     89  N         76.3680   35.6210   20.0570 N.3    89  LEU89      -0.1245
     90  CA        76.0920   35.8020   21.4780 C.3    89  LEU89       0.1561
     91  C         77.0290   34.8460   22.2450 C.2    89  LEU89       0.2260
     92  O         76.8630   34.5670   23.4320 O.2    89  LEU89      -0.2867
     93  CB        74.6080   35.5360   21.7740 C.3    89  LEU89       0.0270
     94  CG        73.6560   36.6290   21.2750 C.3    89  LEU89       0.0019
     95  CD1       72.3620   36.0550   20.8180 C.3    89  LEU89       0.0001
     96  CD2       73.4110   37.6700   22.3470 C.3    89  LEU89       0.0001
     97  N         73.2850   38.9020   36.0790 N.3   112  GLY112     -0.1225
     98  CA        72.5120   39.5500   35.0220 C.3   112  GLY112      0.1811
     99  C         72.9160   40.9690   34.6830 C.2   112  GLY112      0.2280
    100  O         72.6740   41.4280   33.5690 O.2   112  GLY112     -0.2866
    101  N         75.2700   40.7380   31.4950 N.3   115  GLY115     -0.1225
    102  CA        74.8280   40.1340   30.2420 C.3   115  GLY115      0.1811
    103  C         75.1460   38.6620   30.0700 C.2   115  GLY115      0.2280
    104  O         75.1820   38.1510   28.9440 O.2   115  GLY115     -0.2866
    105  N         73.7460   36.2090   32.4160 N.3   117  GLY117     -0.1210
    106  CA        72.8170   35.5320   33.3210 C.3   117  GLY117      0.1956
    107  C         72.4120   34.1400   32.8910 C.2   117  GLY117      0.2612
    108  O         72.1900   33.2860   33.7520 O.2   117  GLY117     -0.2717
    109  N         72.3720   33.8820   31.5720 N.am  118  PHE118     -0.1962
    110  CA        72.0510   32.5540   31.0390 C.3   118  PHE118      0.1771
    111  C         72.8780   31.4640   31.7370 C.2   118  PHE118      0.2619
    112  O         72.3360   30.4040   32.0450 O.2   118  PHE118     -0.2715
    113  CB        72.3510   32.5020   29.5270 C.3   118  PHE118      0.0574
    114  CG        72.3520   31.0970   28.9760 C.ar  118  PHE118     -0.0200
    115  CD1       71.1590   30.4070   28.7790 C.ar  118  PHE118     -0.0042
    116  CD2       73.5530   30.4520   28.6740 C.ar  118  PHE118     -0.0042
    117  CE1       71.1610   29.0890   28.2820 C.ar  118  PHE118     -0.0003
    118  CE2       73.5500   29.1350   28.1840 C.ar  118  PHE118     -0.0003
    119  CZ        72.3650   28.4620   28.0040 C.ar  118  PHE118     -0.0000
    120  N         74.1960   31.7200   31.9480 N.am  119  TYR119     -0.1974
    121  CA        75.0720   30.6830   32.5070 C.3   119  TYR119      0.1639
    122  C         74.7140   30.2810   33.9520 C.2   119  TYR119      0.2290
    123  O         75.1330   29.1980   34.3710 O.2   119  TYR119     -0.2864
    124  CB        76.5450   31.0570   32.3440 C.3   119  TYR119      0.0560
    125  CG        76.9320   31.1210   30.8830 C.ar  119  TYR119     -0.0198
    126  CD1       77.0930   29.9580   30.1350 C.ar  119  TYR119     -0.0009
    127  CD2       77.0230   32.3420   30.2190 C.ar  119  TYR119     -0.0009
    128  CE1       77.4000   30.0080   28.7730 C.ar  119  TYR119      0.0417
    129  CE2       77.3480   32.4020   28.8540 C.ar  119  TYR119      0.0417
    130  CZ        77.5240   31.2290   28.1410 C.ar  119  TYR119      0.1957
    131  OH        77.8110   31.2410   26.7870 O.3   119  TYR119     -0.2866
    132  N         69.0350   24.4750   24.0160 N.3   130  VAL130     -0.1245
    133  CA        68.3150   25.6820   23.6230 C.3   130  VAL130      0.1561
    134  C         67.8690   25.4670   22.1840 C.2   130  VAL130      0.2260
    135  O         68.7150   25.2830   21.2950 O.2   130  VAL130     -0.2867
    136  CB        69.1610   26.9620   23.7730 C.3   130  VAL130      0.0252
    137  CG1       68.3800   28.1880   23.2870 C.3   130  VAL130      0.0019
    138  CG2       69.6580   27.1390   25.2230 C.3   130  VAL130      0.0019
    139  N         70.9110   24.1060   20.1360 N.3   142  TRP142     -0.1241
    140  CA        72.2190   24.3320   20.7850 C.3   142  TRP142      0.1605
    141  C         72.2000   23.4730   22.0520 C.2   142  TRP142      0.2264
    142  O         71.1510   23.3260   22.6870 O.2   142  TRP142     -0.2867
    143  CB        72.3640   25.8200   21.1670 C.3   142  TRP142      0.0550
    144  CG        73.5800   26.2100   21.9710 C.ar  142  TRP142      0.0003
    145  CD1       74.6920   26.8440   21.4980 C.ar  142  TRP142      0.0946
    146  CD2       73.7690   26.0670   23.3950 C.ar  142  TRP142      0.0152
    147  NE1       75.5600   27.1180   22.5340 N.ar  142  TRP142     -0.2442
    148  CE2       75.0290   26.6320   23.7070 C.ar  142  TRP142      0.0810
    149  CE3       72.9720   25.5620   24.4470 C.ar  142  TRP142      0.0012
    150  CZ2       75.5000   26.7280   25.0220 C.ar  142  TRP142      0.0191
    151  CZ3       73.4710   25.6100   25.7510 C.ar  142  TRP142      0.0001
    152  CH2       74.7170   26.1830   26.0210 C.ar  142  TRP142      0.0015
    153  N         62.2230   31.0040   21.4250 N.3   164  THR164     -0.1218
    154  CA        63.3120   30.2020   21.9890 C.3   164  THR164      0.1862
    155  C         62.7860   29.3690   23.1400 C.2   164  THR164      0.2287
    156  O         61.9700   29.8410   23.9390 O.2   164  THR164     -0.2866
    157  CB        64.4470   31.1490   22.4270 C.3   164  THR164      0.1770
    158  OG1       64.9740   31.7790   21.2520 O.3   164  THR164     -0.2211
    159  CG2       65.5550   30.4470   23.2190 C.3   164  THR164      0.0375
    160  N         64.3280   26.9360   26.2790 N.3   166  VAL166     -0.1245
    161  CA        65.4810   26.5230   27.0600 C.3   166  VAL166      0.1561
    162  C         65.0560   25.3260   27.8690 C.2   166  VAL166      0.2260
    163  O         64.1310   25.4290   28.6730 O.2   166  VAL166     -0.2867
    164  CB        65.9800   27.6600   27.9760 C.3   166  VAL166      0.0252
    165  CG1       67.1240   27.1780   28.8600 C.3   166  VAL166      0.0019
    166  CG2       66.3990   28.8970   27.1650 C.3   166  VAL166      0.0019
@<TRIPOS>BOND
     1    73    74    1
     2    79    78   ar
     3    80    78   ar
     4    78    77    1
     5    68    67    2
     6    67    66    1
     7    60    58    1
     8    74    77    1
     9    74    75    1
    10    56    55    2
    11    58    57    1
    12    66    65    1
    13    66    69    1
    14    81    75   am
    15    81    82    1
    16    65    63   am
    17    75    76    2
    18    55    54    1
    19    55    61   am
    20    64    63    2
    21    85    82    1
    22    85    86    1
    23    63    62    1
    24    44    43    1
    25    88    86    1
    26    43    42    1
    27    57    54    1
    28    57    59    1
    29    69    70    1
    30    54    53    1
    31    62    61    1
    32    82    83    1
    33    39    38    2
    34    83    84    2
    35    86    87    1
    36    41    42    1
    37    41    40    1
    38    38    37    1
    39    70    71    1
    40    89    90    1
    41   139   140    1
    42    40    37    1
    43    37    36    1
    44    71    72    1
    45   140   143    1
    46   140   141    1
    47    95    94    1
    48   143   144    1
    49   158   157    1
    50    94    93    1
    51    94    96    1
    52   135   134    2
    53   153   154    1
    54    90    93    1
    55    90    91    1
    56   145   144   ar
    57   145   147   ar
    58    34    33    2
    59   144   146   ar
    60   154   157    1
    61   154   155    1
    62   141   142    2
    63   134   133    1
    64    91    92    2
    65   157   159    1
    66    48    47    2
    67   147   148   ar
    68    33    32    1
    69    35    32    1
    70    32    31    1
    71   155   156    2
    72   137   136    1
    73    47    46    1
    74    51    50   ar
    75   146   148   ar
    76   146   149   ar
    77   133   136    1
    78   133   132    1
    79   148   150   ar
    80   136   138    1
    81    26    25    2
    82   149   151   ar
    83    31    25   am
    84    50    52   ar
    85    50    49    1
    86    25    24    1
    87    46    45    1
    88    46    49    1
    89   150   152   ar
    90   151   152   ar
    91    20    19    2
    92    24    27    1
    93    24    23    1
    94   160   161    1
    95    27    28    1
    96    12    11    2
    97   131   130    1
    98   161   162    1
    99   161   164    1
   100    19    18    1
   101   166   164    1
   102    18    21    1
   103    18    17    1
   104    11    17   am
   105    11    10    1
   106    28    30   ar
   107    28    29   ar
   108   162   163    2
   109    22    21    1
   110   164   165    1
   111   119   118   ar
   112   119   117   ar
   113   130   128   ar
   114   130   129   ar
   115   118   116   ar
   116   117   115   ar
   117    13    10    1
   118    13    14    1
   119    10     9    1
   120   116   114   ar
   121   128   126   ar
   122   115   114   ar
   123   129   127   ar
   124   104   103    2
   125   114   113    1
   126    16    14   am
   127    14    15    2
   128   113   110    1
   129   103   102    1
   130   126   125   ar
   131   127   125   ar
   132   102   101    1
   133     4     3    2
   134   125   124    1
   135   110   109    1
   136   110   111    1
   137     8     6    1
   138     3     2    1
   139   109   107   am
   140   111   120   am
   141   111   112    2
   142   120   121    1
   143     2     5    1
   144     2     1    1
   145     5     6    1
   146     6     7    1
   147   124   121    1
   148   105   106    1
   149   121   122    1
   150   107   106    1
   151   107   108    2
   152   100    99    2
   153   122   123    2
   154    99    98    1
   155    98    97    1
