@<TRIPOS>MOLECULE
tmp/5ocjA00.pdb
 128 125 0 0 0
SMALL
GASTEIGER

@<TRIPOS>ATOM
      1  N          3.6620  -22.8120  -14.2750 N.3    32  GLY32      -0.1210
      2  CA         2.9750  -23.5080  -15.3460 C.3    32  GLY32       0.1956
      3  C          3.9210  -24.3360  -16.2120 C.2    32  GLY32       0.2612
      4  O          5.0870  -24.5610  -15.8840 O.2    32  GLY32      -0.2717
      5  N          3.3960  -24.7650  -17.3630 N.am   33  LEU33      -0.1965
      6  CA         4.1210  -25.6860  -18.2390 C.3    33  LEU33       0.1728
      7  C          5.4060  -25.0800  -18.7920 C.2    33  LEU33       0.2616
      8  O          6.3880  -25.7990  -19.0070 O.2    33  LEU33      -0.2715
      9  CB         3.2290  -26.1100  -19.4070 C.3    33  LEU33       0.0311
     10  CG         3.7440  -27.2330  -20.2970 C.3    33  LEU33       0.0022
     11  CD1        3.5860  -28.5780  -19.5830 C.3    33  LEU33       0.0001
     12  CD2        3.0170  -27.2220  -21.6320 C.3    33  LEU33       0.0001
     13  N          5.4150  -23.7790  -19.0700 N.am   34  ARG34      -0.1977
     14  CA         6.5650  -23.1470  -19.7150 C.3    34  ARG34       0.1597
     15  C          7.4360  -22.4170  -18.7080 C.2    34  ARG34       0.2287
     16  O          7.9450  -21.3310  -18.9870 O.2    34  ARG34      -0.2864
     17  CB         6.1040  -22.2110  -20.8300 C.3    34  ARG34       0.0334
     18  CG         5.5010  -22.9700  -21.9970 C.3    34  ARG34       0.0492
     19  CD         5.2750  -22.1180  -23.2370 C.3    34  ARG34       0.2205
     20  NE         6.4710  -21.4190  -23.7100 N.pl3  34  ARG34      -0.0865
     21  CZ         7.5110  -21.9800  -24.3340 C.cat  34  ARG34       0.5346
     22  NH1        7.5600  -23.2850  -24.5640 N.pl3  34  ARG34       0.1354
     23  NH2        8.5230  -21.2200  -24.7250 N.pl3  34  ARG34       0.1354
     24  N         -1.0260  -24.1790  -10.8360 N.3   116  LEU116     -0.1231
     25  CA        -1.9290  -23.7570  -11.8930 C.3   116  LEU116      0.1693
     26  C         -1.5460  -24.5110  -13.1550 C.2   116  LEU116      0.2592
     27  O         -0.3830  -24.8910  -13.3330 O.2   116  LEU116     -0.2718
     28  CB        -1.9060  -22.2290  -12.1140 C.3   116  LEU116      0.0284
     29  CG        -0.6820  -21.4680  -12.6510 C.3   116  LEU116      0.0019
     30  CD1        0.5410  -21.7640  -11.8400 C.3   116  LEU116      0.0001
     31  CD2       -0.3820  -21.7280  -14.1480 C.3   116  LEU116      0.0001
     32  N         -2.5360  -24.7250  -14.0200 N.am  117  SER117     -0.1952
     33  CA        -2.3000  -25.4350  -15.2730 C.3   117  SER117      0.1924
     34  C         -1.5620  -26.7380  -14.9880 C.2   117  SER117      0.2314
     35  O         -2.0210  -27.5340  -14.1680 O.2   117  SER117     -0.2863
     36  CB        -1.5090  -24.5470  -16.2410 C.3   117  SER117      0.2116
     37  OG        -1.5570  -25.0740  -17.5640 O.3   117  SER117     -0.2180
     38  N          1.5920  -31.7520  -25.5400 N.3   158  ALA158     -0.1245
     39  CA         1.8950  -30.4370  -24.9900 C.3   158  ALA158      0.1562
     40  C          3.3260  -30.3710  -24.4700 C.2   158  ALA158      0.2260
     41  O          4.0130  -29.3540  -24.6510 O.2   158  ALA158     -0.2867
     42  CB         0.9010  -30.0910  -23.8870 C.3   158  ALA158      0.0290
     43  N          5.6570  -30.0520  -27.3520 N.3   161  ASP161     -0.1225
     44  CA         5.5880  -28.7190  -27.9530 C.3   161  ASP161      0.1805
     45  C          6.2430  -27.6510  -27.0910 C.2   161  ASP161      0.2598
     46  O          6.7060  -26.6390  -27.6230 O.2   161  ASP161     -0.2718
     47  CB         4.1370  -28.3200  -28.2080 C.3   161  ASP161      0.1424
     48  CG         3.4080  -29.3130  -29.0760 C.2   161  ASP161      0.3668
     49  OD1        4.0660  -30.0460  -29.8510 O.co2 161  ASP161     -0.2456
     50  OD2        2.1660  -29.3710  -28.9640 O.co2 161  ASP161     -0.2456
     51  N          6.2650  -27.8400  -25.7760 N.am  162  SER162     -0.1952
     52  CA         6.8670  -26.8850  -24.8500 C.3   162  SER162      0.1924
     53  C          8.2480  -27.3860  -24.4250 C.2   162  SER162      0.2314
     54  O          8.4690  -27.8660  -23.3100 O.2   162  SER162     -0.2863
     55  CB         5.9510  -26.6620  -23.6530 C.3   162  SER162      0.2116
     56  OG         6.6550  -26.1340  -22.5360 O.3   162  SER162     -0.2180
     57  N         -7.5170  -14.7320  -25.7880 N.3   214  ASN214     -0.1240
     58  CA        -6.9270  -15.3620  -26.9560 C.3   214  ASN214      0.1653
     59  C         -7.4620  -16.7830  -27.0290 C.2   214  ASN214      0.2266
     60  O         -7.8720  -17.3670  -26.0200 O.2   214  ASN214     -0.2867
     61  CB        -5.3940  -15.3470  -26.9000 C.3   214  ASN214      0.1155
     62  CG        -4.8510  -16.1590  -25.7600 C.2   214  ASN214      0.2627
     63  OD1       -4.7240  -17.3820  -25.8620 O.2   214  ASN214     -0.2716
     64  ND2       -4.5200  -15.4880  -24.6560 N.am  214  ASN214     -0.0877
     65  N         -6.1720  -19.9150  -27.6430 N.3   216  PRO216     -0.2102
     66  CA        -5.6280  -21.0250  -26.8380 C.3   216  PRO216      0.1504
     67  C         -6.0250  -20.9370  -25.3740 C.2   216  PRO216      0.2575
     68  O         -6.3350  -21.9640  -24.7620 O.2   216  PRO216     -0.2718
     69  CB        -4.1130  -20.8950  -27.0420 C.3   216  PRO216      0.0282
     70  CG        -3.9780  -20.2410  -28.3990 C.3   216  PRO216      0.0208
     71  CD        -5.1110  -19.2340  -28.4110 C.3   216  PRO216      0.0893
     72  N         -6.0390  -19.7400  -24.7910 N.am  217  ALA217     -0.1980
     73  CA        -6.4410  -19.6240  -23.3910 C.3   217  ALA217      0.1597
     74  C         -7.9160  -19.9630  -23.2080 C.2   217  ALA217      0.2287
     75  O         -8.2970  -20.5950  -22.2150 O.2   217  ALA217     -0.2864
     76  CB        -6.1510  -18.2220  -22.8720 C.3   217  ALA217      0.0319
     77  N         -8.2110  -24.0390  -23.8350 N.3   220  LEU220     -0.1245
     78  CA        -7.6870  -24.8820  -22.7650 C.3   220  LEU220      0.1561
     79  C         -8.5770  -24.8340  -21.5330 C.2   220  LEU220      0.2260
     80  O         -8.7440  -25.8460  -20.8370 O.2   220  LEU220     -0.2867
     81  CB        -6.2690  -24.4550  -22.3840 C.3   220  LEU220      0.0270
     82  CG        -5.1460  -24.8310  -23.3410 C.3   220  LEU220      0.0019
     83  CD1       -3.8210  -24.3520  -22.7570 C.3   220  LEU220      0.0001
     84  CD2       -5.1360  -26.3360  -23.5480 C.3   220  LEU220      0.0001
     85  N         -7.5190  -19.5610  -19.5910 N.3   253  HIS253     -0.1226
     86  CA        -6.2970  -20.1930  -19.0750 C.3   253  HIS253      0.1752
     87  C         -5.1530  -19.1740  -19.0930 C.2   253  HIS253      0.2597
     88  O         -4.2310  -19.2430  -19.9100 O.2   253  HIS253     -0.2718
     89  CB        -5.9740  -21.4160  -19.9270 C.3   253  HIS253      0.0759
     90  CG        -5.2070  -22.4860  -19.2230 C.ar  253  HIS253      0.0818
     91  ND1       -5.8020  -23.3890  -18.3700 N.ar  253  HIS253     -0.2268
     92  CD2       -3.9040  -22.8450  -19.3030 C.ar  253  HIS253      0.1154
     93  CE1       -4.8960  -24.2440  -17.9350 C.ar  253  HIS253      0.1986
     94  NE2       -3.7360  -23.9380  -18.4890 N.ar  253  HIS253     -0.2212
     95  N         -5.2180  -18.2130  -18.1630 N.am  254  SER254     -0.1938
     96  CA        -4.2980  -17.0800  -18.2000 C.3   254  SER254      0.2055
     97  C         -4.1050  -16.4830  -16.8090 C.2   254  SER254      0.2643
     98  O         -4.9370  -16.6400  -15.9140 O.2   254  SER254     -0.2714
     99  CB        -4.7860  -16.0010  -19.1730 C.3   254  SER254      0.2130
    100  OG        -6.0770  -15.5810  -18.8000 O.3   254  SER254     -0.2179
    101  N         -2.9700  -15.8010  -16.6480 N.am  255  TRP255     -0.1973
    102  CA        -2.5200  -15.3790  -15.3260 C.3   255  TRP255      0.1640
    103  C         -3.4580  -14.4290  -14.5760 C.2   255  TRP255      0.2290
    104  O         -3.4910  -14.5160  -13.3370 O.2   255  TRP255     -0.2864
    105  CB        -1.1270  -14.7510  -15.4650 C.3   255  TRP255      0.0576
    106  CG        -0.0750  -15.7800  -15.7570 C.ar  255  TRP255      0.0006
    107  CD1        0.4440  -16.1090  -16.9840 C.ar  255  TRP255      0.0946
    108  CD2        0.5650  -16.6360  -14.8070 C.ar  255  TRP255      0.0152
    109  NE1        1.3750  -17.1120  -16.8480 N.ar  255  TRP255     -0.2442
    110  CE2        1.4660  -17.4540  -15.5220 C.ar  255  TRP255      0.0810
    111  CE3        0.4590  -16.7960  -13.4180 C.ar  255  TRP255      0.0012
    112  CZ2        2.2740  -18.4060  -14.8950 C.ar  255  TRP255      0.0191
    113  CZ3        1.2690  -17.7510  -12.7930 C.ar  255  TRP255      0.0001
    114  CH2        2.1570  -18.5440  -13.5370 C.ar  255  TRP255      0.0015
    115  N         -5.7610  -16.6040  -12.4960 N.3   258  TRP258     -0.1241
    116  CA        -5.0380  -17.3190  -11.4550 C.3   258  TRP258      0.1605
    117  C         -4.6520  -16.3760  -10.3260 C.2   258  TRP258      0.2264
    118  O         -4.7460  -16.7410   -9.1500 O.2   258  TRP258     -0.2867
    119  CB        -3.8170  -18.0070  -12.0600 C.3   258  TRP258      0.0550
    120  CG        -4.2450  -19.0120  -13.0890 C.ar  258  TRP258      0.0003
    121  CD1       -5.3790  -19.7760  -13.0600 C.ar  258  TRP258      0.0946
    122  CD2       -3.5590  -19.3520  -14.3010 C.ar  258  TRP258      0.0152
    123  NE1       -5.4370  -20.5760  -14.1810 N.ar  258  TRP258     -0.2442
    124  CE2       -4.3300  -20.3340  -14.9550 C.ar  258  TRP258      0.0810
    125  CE3       -2.3680  -18.9190  -14.8950 C.ar  258  TRP258      0.0012
    126  CZ2       -3.9510  -20.8960  -16.1830 C.ar  258  TRP258      0.0191
    127  CZ3       -1.9850  -19.4830  -16.1140 C.ar  258  TRP258      0.0001
    128  CH2       -2.7800  -20.4610  -16.7440 C.ar  258  TRP258      0.0015
@<TRIPOS>BOND
     1    49    48   ar
     2    48    50   ar
     3    48    47    1
     4    71    70    1
     5    71    65    1
     6    70    69    1
     7    47    44    1
     8    44    43    1
     9    44    45    1
    10    65    66    1
    11    46    45    2
    12    45    51   am
    13    69    66    1
    14    59    58    1
    15    59    60    2
    16    58    61    1
    17    58    57    1
    18    61    62    1
    19    66    67    1
    20    63    62    2
    21    51    52    1
    22    62    64   am
    23    38    39    1
    24    67    72   am
    25    67    68    2
    26    39    40    1
    27    39    42    1
    28    52    53    1
    29    52    55    1
    30    72    73    1
    31    23    21    1
    32    41    40    2
    33    22    21    1
    34    53    54    2
    35    21    20    2
    36    77    78    1
    37    20    19    1
    38    55    56    1
    39    84    82    1
    40    73    74    1
    41    73    76    1
    42    82    83    1
    43    82    81    1
    44    19    18    1
    45    74    75    2
    46    78    81    1
    47    78    79    1
    48    18    17    1
    49    12    10    1
    50    79    80    2
    51    17    14    1
    52    10    11    1
    53    10     9    1
    54    89    90    1
    55    89    86    1
    56    88    87    2
    57    14    13    1
    58    14    15    1
    59    85    86    1
    60     9     6    1
    61    92    90   ar
    62    92    94   ar
    63    90    91   ar
    64    99   100    1
    65    99    96    1
    66    87    86    1
    67    87    95   am
    68    13     7   am
    69     8     7    2
    70    16    15    2
    71     7     6    1
    72    94    93   ar
    73    91    93   ar
    74     6     5    1
    75    96    95    1
    76    96    97    1
    77    37    36    1
    78     5     3   am
    79   107   109   ar
    80   107   106   ar
    81   109   110   ar
    82    97   101   am
    83    97    98    2
    84   128   126   ar
    85   128   127   ar
    86   101   102    1
    87    36    33    1
    88     3     4    2
    89     3     2    1
    90   126   124   ar
    91   127   125   ar
    92   106   105    1
    93   106   108   ar
    94   110   112   ar
    95   110   108   ar
    96   105   102    1
    97     2     1    1
    98   102   103    1
    99    33    34    1
   100    33    32    1
   101    34    35    2
   102   124   122   ar
   103   124   123   ar
   104   112   114   ar
   105   125   122   ar
   106   108   111   ar
   107   103   104    2
   108   122   120   ar
   109   123   121   ar
   110    31    29    1
   111    32    26   am
   112   114   113   ar
   113   111   113   ar
   114    27    26    2
   115    26    25    1
   116   120   121   ar
   117   120   119    1
   118    29    28    1
   119    29    30    1
   120   115   116    1
   121    28    25    1
   122   119   116    1
   123    25    24    1
   124   116   117    1
   125   117   118    2
