@<TRIPOS>MOLECULE
tmp/5ocjB00.pdb
 141 140 0 0 0
SMALL
GASTEIGER

@<TRIPOS>ATOM
      1  N        -10.3640  -21.3650  -43.0160 N.3    34  GLY34      -0.1210
      2  CA       -10.2600  -22.0260  -41.7310 C.3    34  GLY34       0.1956
      3  C        -11.3690  -21.6200  -40.7770 C.2    34  GLY34       0.2612
      4  O        -12.3340  -20.9440  -41.1400 O.2    34  GLY34      -0.2717
      5  N        -11.1990  -22.0330  -39.5200 N.am   35  LEU35      -0.1965
      6  CA       -12.2090  -21.8030  -38.4860 C.3    35  LEU35       0.1728
      7  C        -12.4780  -20.3160  -38.2660 C.2    35  LEU35       0.2616
      8  O        -13.6260  -19.9130  -38.0370 O.2    35  LEU35      -0.2715
      9  CB       -11.7560  -22.4460  -37.1770 C.3    35  LEU35       0.0311
     10  CG       -12.6880  -22.3170  -35.9670 C.3    35  LEU35       0.0022
     11  CD1      -13.8360  -23.3120  -36.0840 C.3    35  LEU35       0.0001
     12  CD2      -11.9210  -22.5090  -34.6610 C.3    35  LEU35       0.0001
     13  N        -11.4340  -19.4890  -38.3020 N.am   36  ARG36      -0.1977
     14  CA       -11.5650  -18.0630  -37.9900 C.3    36  ARG36       0.1597
     15  C        -11.8020  -17.2080  -39.2270 C.2    36  ARG36       0.2287
     16  O        -11.3360  -16.0660  -39.2860 O.2    36  ARG36      -0.2864
     17  CB       -10.3230  -17.5790  -37.2420 C.3    36  ARG36       0.0334
     18  CG        -9.9430  -18.4330  -36.0640 C.3    36  ARG36       0.0492
     19  CD        -8.6690  -17.9120  -35.4220 C.3    36  ARG36       0.2205
     20  NE        -8.8460  -16.5830  -34.8400 N.pl3  36  ARG36      -0.0865
     21  CZ        -7.8830  -15.9230  -34.2030 C.cat  36  ARG36       0.5346
     22  NH1       -6.6830  -16.4730  -34.0710 N.pl3  36  ARG36       0.1354
     23  NH2       -8.1160  -14.7190  -33.6950 N.pl3  36  ARG36       0.1354
     24  N         -8.9150  -26.6330  -45.5420 N.3   118  LEU118     -0.1231
     25  CA        -7.8520  -26.8080  -44.5680 C.3   118  LEU118      0.1693
     26  C         -8.4450  -26.6400  -43.1810 C.2   118  LEU118      0.2592
     27  O         -9.4300  -25.9170  -42.9940 O.2   118  LEU118     -0.2718
     28  CB        -6.6640  -25.8400  -44.7900 C.3   118  LEU118      0.0284
     29  CG        -6.7380  -24.3010  -44.6780 C.3   118  LEU118      0.0019
     30  CD1       -7.7860  -23.7360  -45.5950 C.3   118  LEU118      0.0001
     31  CD2       -6.9480  -23.7570  -43.2370 C.3   118  LEU118      0.0001
     32  N         -7.8270  -27.3150  -42.2100 N.am  119  SER119     -0.1952
     33  CA        -8.2870  -27.2400  -40.8300 C.3   119  SER119      0.1924
     34  C         -9.7840  -27.5250  -40.7970 C.2   119  SER119      0.2314
     35  O        -10.2160  -28.5580  -41.3110 O.2   119  SER119     -0.2863
     36  CB        -7.9470  -25.8700  -40.2330 C.3   119  SER119      0.2116
     37  OG        -8.1080  -25.8590  -38.8190 O.3   119  SER119     -0.2180
     38  N        -13.9450  -25.2640  -29.9000 N.3   160  ALA160     -0.1245
     39  CA       -13.2820  -24.3980  -30.8720 C.3   160  ALA160      0.1562
     40  C        -14.2670  -23.4300  -31.5080 C.2   160  ALA160      0.2260
     41  O        -13.9300  -22.2670  -31.7570 O.2   160  ALA160     -0.2867
     42  CB       -12.5960  -25.2380  -31.9470 C.3   160  ALA160      0.0290
     43  N        -14.9230  -20.6870  -29.1140 N.3   163  ASP163     -0.1239
     44  CA       -13.7920  -19.7670  -28.9760 C.3   163  ASP163      0.1674
     45  C        -13.6660  -18.8570  -30.1850 C.2   163  ASP163      0.2266
     46  O        -13.1490  -17.7390  -30.0690 O.2   163  ASP163     -0.2867
     47  CB       -12.4880  -20.5380  -28.8040 C.3   163  ASP163      0.1410
     48  CG       -12.5420  -21.5280  -27.6690 C.2   163  ASP163      0.3668
     49  OD1      -13.2920  -21.2970  -26.6980 O.co2 163  ASP163     -0.2456
     50  OD2      -11.8270  -22.5450  -27.7630 O.co2 163  ASP163     -0.2456
     51  N          4.9430  -22.2370  -33.5700 N.3   216  ASN216     -0.1225
     52  CA         4.2840  -21.8000  -32.3500 C.3   216  ASN216      0.1785
     53  C          3.5220  -22.9870  -31.7760 C.2   216  ASN216      0.2597
     54  O          3.1670  -23.9250  -32.4890 O.2   216  ASN216     -0.2718
     55  CB         3.3600  -20.5930  -32.5930 C.3   216  ASN216      0.1169
     56  CG         2.2170  -20.9120  -33.5270 C.2   216  ASN216      0.2627
     57  OD1        1.2290  -21.5220  -33.1210 O.2   216  ASN216     -0.2716
     58  ND2        2.3430  -20.5040  -34.7890 N.am  216  ASN216     -0.0877
     59  N          3.3030  -22.9560  -30.4620 N.am  217  ILE217     -0.1966
     60  CA         2.7780  -24.1400  -29.7800 C.3   217  ILE217      0.1712
     61  C          1.3960  -24.5380  -30.2820 C.2   217  ILE217      0.2458
     62  O          1.1830  -25.7330  -30.5460 O.2   217  ILE217     -0.2730
     63  CB         2.8160  -23.9350  -28.2530 C.3   217  ILE217      0.0289
     64  CG1        4.2480  -24.0100  -27.7380 C.3   217  ILE217      0.0022
     65  CG2        1.9440  -24.9730  -27.5500 C.3   217  ILE217      0.0023
     66  CD1        4.3500  -23.6800  -26.2800 C.3   217  ILE217      0.0001
     67  N          0.4230  -23.6240  -30.4390 N.am  218  PRO218     -0.2716
     68  CA        -0.8900  -24.0690  -30.9420 C.3   218  PRO218      0.1536
     69  C         -0.8010  -24.7350  -32.3050 C.2   218  PRO218      0.2598
     70  O         -1.4830  -25.7420  -32.5630 O.2   218  PRO218     -0.2715
     71  CB        -1.7050  -22.7700  -30.9870 C.3   218  PRO218      0.0310
     72  CG        -1.0400  -21.8680  -29.9830 C.3   218  PRO218      0.0237
     73  CD         0.4170  -22.1780  -30.1270 C.3   218  PRO218      0.0939
     74  N          0.0530  -24.2130  -33.1870 N.am  219  ALA219     -0.1978
     75  CA         0.1870  -24.8210  -34.5080 C.3   219  ALA219      0.1597
     76  C          0.8290  -26.2000  -34.4150 C.2   219  ALA219      0.2287
     77  O          0.4200  -27.1240  -35.1300 O.2   219  ALA219     -0.2864
     78  CB         0.9870  -23.9080  -35.4380 C.3   219  ALA219      0.0319
     79  N          0.7170  -28.1640  -31.7090 N.3   221  PHE221     -0.1227
     80  CA        -0.1920  -29.0270  -30.9630 C.3   221  PHE221      0.1736
     81  C         -1.3190  -29.5420  -31.8470 C.2   221  PHE221      0.2595
     82  O         -1.6040  -30.7470  -31.8730 O.2   221  PHE221     -0.2718
     83  CB        -0.7410  -28.2580  -29.7640 C.3   221  PHE221      0.0547
     84  CG        -1.7100  -29.0450  -28.9210 C.ar  221  PHE221     -0.0202
     85  CD1       -1.2520  -29.8430  -27.8910 C.ar  221  PHE221     -0.0042
     86  CD2       -3.0710  -28.9830  -29.1640 C.ar  221  PHE221     -0.0042
     87  CE1       -2.1380  -30.5580  -27.1010 C.ar  221  PHE221     -0.0003
     88  CE2       -3.9680  -29.6970  -28.3800 C.ar  221  PHE221     -0.0003
     89  CZ        -3.4950  -30.4860  -27.3460 C.ar  221  PHE221     -0.0000
     90  N         -1.9680  -28.6410  -32.5890 N.am  222  LEU222     -0.1980
     91  CA        -3.1300  -29.0310  -33.3770 C.3   222  LEU222      0.1596
     92  C         -2.7610  -30.0290  -34.4570 C.2   222  LEU222      0.2287
     93  O         -3.5330  -30.9490  -34.7620 O.2   222  LEU222     -0.2864
     94  CB        -3.7760  -27.8010  -34.0050 C.3   222  LEU222      0.0297
     95  CG        -4.6490  -26.9830  -33.0680 C.3   222  LEU222      0.0022
     96  CD1       -5.0790  -25.6860  -33.7480 C.3   222  LEU222      0.0001
     97  CD2       -5.8590  -27.8180  -32.6780 C.3   222  LEU222      0.0001
     98  N          0.2840  -26.6560  -38.0050 N.3   255  HIS255     -0.1226
     99  CA        -1.0670  -26.2600  -38.3960 C.3   255  HIS255      0.1752
    100  C         -1.0500  -24.7730  -38.7570 C.2   255  HIS255      0.2597
    101  O         -1.5070  -23.9050  -38.0100 O.2   255  HIS255     -0.2718
    102  CB        -2.0210  -26.5690  -37.2520 C.3   255  HIS255      0.0759
    103  CG        -3.4500  -26.7330  -37.6660 C.ar  255  HIS255      0.0818
    104  ND1       -3.9360  -27.9100  -38.1880 N.ar  255  HIS255     -0.2268
    105  CD2       -4.5040  -25.8870  -37.5930 C.ar  255  HIS255      0.1154
    106  CE1       -5.2300  -27.7790  -38.4350 C.ar  255  HIS255      0.1986
    107  NE2       -5.6000  -26.5620  -38.0770 N.ar  255  HIS255     -0.2212
    108  N         -0.4890  -24.4790  -39.9310 N.am  256  SER256     -0.1938
    109  CA        -0.2590  -23.0840  -40.2940 C.3   256  SER256      0.2055
    110  C         -0.1610  -22.9370  -41.8040 C.2   256  SER256      0.2643
    111  O          0.1190  -23.8930  -42.5340 O.2   256  SER256     -0.2714
    112  CB         1.0070  -22.5440  -39.6220 C.3   256  SER256      0.2130
    113  OG         2.1430  -23.3040  -40.0070 O.3   256  SER256     -0.2179
    114  N         -0.3670  -21.6980  -42.2520 N.am  257  TRP257     -0.1973
    115  CA        -0.5570  -21.4340  -43.6720 C.3   257  TRP257      0.1640
    116  C          0.6200  -21.7890  -44.5840 C.2   257  TRP257      0.2290
    117  O          0.3520  -22.1690  -45.7370 O.2   257  TRP257     -0.2864
    118  CB        -0.9440  -19.9600  -43.8410 C.3   257  TRP257      0.0576
    119  CG        -2.3540  -19.7200  -43.3720 C.ar  257  TRP257      0.0006
    120  CD1       -2.7430  -19.2300  -42.1570 C.ar  257  TRP257      0.0946
    121  CD2       -3.5620  -19.9780  -44.1060 C.ar  257  TRP257      0.0152
    122  NE1       -4.1190  -19.1610  -42.0910 N.ar  257  TRP257     -0.2442
    123  CE2       -4.6420  -19.6160  -43.2750 C.ar  257  TRP257      0.0810
    124  CE3       -3.8320  -20.4740  -45.3900 C.ar  257  TRP257      0.0012
    125  CZ2       -5.9670  -19.7280  -43.6830 C.ar  257  TRP257      0.0191
    126  CZ3       -5.1540  -20.5850  -45.7920 C.ar  257  TRP257      0.0001
    127  CH2       -6.2000  -20.2200  -44.9400 C.ar  257  TRP257      0.0015
    128  N          0.1300  -25.3320  -45.7540 N.3   260  TRP260     -0.1241
    129  CA        -1.0340  -25.4980  -46.6130 C.3   260  TRP260      0.1605
    130  C         -0.7700  -24.9070  -47.9920 C.2   260  TRP260      0.2264
    131  O         -1.1510  -25.4960  -49.0120 O.2   260  TRP260     -0.2867
    132  CB        -2.2460  -24.8600  -45.9540 C.3   260  TRP260      0.0550
    133  CG        -2.5570  -25.5100  -44.6230 C.ar  260  TRP260      0.0003
    134  CD1       -2.3790  -26.8330  -44.2860 C.ar  260  TRP260      0.0946
    135  CD2       -3.0480  -24.8590  -43.4520 C.ar  260  TRP260      0.0152
    136  NE1       -2.7530  -27.0400  -42.9730 N.ar  260  TRP260     -0.2442
    137  CE2       -3.1700  -25.8450  -42.4420 C.ar  260  TRP260      0.0810
    138  CE3       -3.4040  -23.5370  -43.1570 C.ar  260  TRP260      0.0012
    139  CZ2       -3.6210  -25.5470  -41.1620 C.ar  260  TRP260      0.0191
    140  CZ3       -3.8440  -23.2430  -41.8700 C.ar  260  TRP260      0.0001
    141  CH2       -3.9640  -24.2490  -40.8960 C.ar  260  TRP260      0.0015
@<TRIPOS>BOND
     1   131   130    2
     2   130   129    1
     3   129   132    1
     4   129   128    1
     5   132   133    1
     6   126   124   ar
     7   126   127   ar
     8   117   116    2
     9    30    29    1
    10    24    25    1
    11   124   121   ar
    12   127   125   ar
    13    28    29    1
    14    28    25    1
    15    29    31    1
    16   133   134   ar
    17   133   135   ar
    18   116   115    1
    19    25    26    1
    20   134   136   ar
    21   121   119   ar
    22   121   123   ar
    23   118   115    1
    24   118   119    1
    25   125   123   ar
    26   115   114    1
    27   135   138   ar
    28   135   137   ar
    29   119   120   ar
    30   123   122   ar
    31    26    27    2
    32    26    32   am
    33   138   140   ar
    34     1     2    1
    35   136   137   ar
    36   111   110    2
    37   137   139   ar
    38   114   110   am
    39    32    33    1
    40   120   122   ar
    41   140   141   ar
    42   110   109    1
    43     2     3    1
    44    35    34    2
    45   139   141   ar
    46     4     3    2
    47    33    34    1
    48    33    36    1
    49     3     5   am
    50   109   108    1
    51   109   112    1
    52    36    37    1
    53   113   112    1
    54   108   100   am
    55     5     6    1
    56    16    15    2
    57    15    14    1
    58   100    99    1
    59   100   101    2
    60     6     7    1
    61     6     9    1
    62   106   104   ar
    63   106   107   ar
    64    99    98    1
    65    99   102    1
    66    13     7   am
    67    13    14    1
    68     7     8    2
    69   104   103   ar
    70   107   105   ar
    71    14    17    1
    72   103   105   ar
    73   103   102    1
    74    17    18    1
    75     9    10    1
    76    11    10    1
    77    18    19    1
    78    10    12    1
    79    78    75    1
    80    19    20    1
    81    77    76    2
    82    20    21    2
    83    58    56   am
    84    93    92    2
    85    75    76    1
    86    75    74    1
    87    92    91    1
    88    21    22    1
    89    21    23    1
    90    94    91    1
    91    94    95    1
    92    96    95    1
    93    51    52    1
    94    56    57    2
    95    56    55    1
    96    91    90    1
    97    74    69   am
    98    95    97    1
    99    55    52    1
   100    90    81   am
   101    70    69    2
   102    54    53    2
   103    52    53    1
   104    69    68    1
   105    42    39    1
   106    82    81    2
   107    81    80    1
   108    53    59   am
   109    41    40    2
   110    79    80    1
   111    40    39    1
   112    71    68    1
   113    71    72    1
   114    80    83    1
   115    68    67    1
   116    39    38    1
   117    62    61    2
   118    59    60    1
   119    67    61   am
   120    67    73    1
   121    61    60    1
   122    45    46    2
   123    45    44    1
   124    73    72    1
   125    60    63    1
   126    83    84    1
   127    86    84   ar
   128    86    88   ar
   129    43    44    1
   130    44    47    1
   131    84    85   ar
   132    47    48    1
   133    88    89   ar
   134    63    64    1
   135    63    65    1
   136    85    87   ar
   137    50    48   ar
   138    64    66    1
   139    48    49   ar
   140    89    87   ar
