@<TRIPOS>MOLECULE
tmp/5ocmA00.pdb
 182 175 0 0 0
SMALL
GASTEIGER

@<TRIPOS>ATOM
      1  N         27.5300  -66.8700   53.3010 N.3     9  GLY9       -0.1210
      2  CA        26.3910  -66.6840   52.4240 C.3     9  GLY9        0.1956
      3  C         26.8590  -66.4830   51.0000 C.2     9  GLY9        0.2612
      4  O         27.5360  -65.4950   50.7040 O.2     9  GLY9       -0.2717
      5  N         26.5370  -67.4410   50.1400 N.am   10  LEU10      -0.1965
      6  CA        27.0000  -67.4650   48.7590 C.3    10  LEU10       0.1728
      7  C         25.8360  -67.5050   47.7940 C.2    10  LEU10       0.2617
      8  O         25.8380  -68.2840   46.8300 O.2    10  LEU10      -0.2715
      9  CB        27.9390  -68.6330   48.5200 C.3    10  LEU10       0.0311
     10  CG        29.1760  -68.6440   49.3560 C.3    10  LEU10       0.0022
     11  CD1       30.0090  -69.8980   49.0470 C.3    10  LEU10       0.0001
     12  CD2       30.0460  -67.3700   49.2520 C.3    10  LEU10       0.0001
     13  N         24.9080  -66.5870   48.0050 N.am   11  GLY11      -0.1940
     14  CA        23.8940  -66.2730   46.9800 C.3    11  GLY11       0.2014
     15  C         24.4900  -65.4670   45.8680 C.2    11  GLY11       0.2639
     16  O         25.7090  -65.3620   45.7340 O.2    11  GLY11      -0.2714
     17  N         23.6380  -64.8800   45.0180 N.am   12  LEU12      -0.1963
     18  CA        24.1360  -64.0490   43.9170 C.3    12  LEU12       0.1728
     19  C         25.0640  -62.9600   44.4600 C.2    12  LEU12       0.2616
     20  O         26.0950  -62.6650   43.8760 O.2    12  LEU12      -0.2715
     21  CB        22.9640  -63.3570   43.2040 C.3    12  LEU12       0.0311
     22  CG        22.0130  -64.2850   42.4750 C.3    12  LEU12       0.0022
     23  CD1       20.9910  -63.4300   41.7300 C.3    12  LEU12       0.0001
     24  CD2       22.7010  -65.1760   41.4400 C.3    12  LEU12       0.0001
     25  N         24.7020  -62.3590   45.5930 N.am   13  MET13      -0.1963
     26  CA        25.5030  -61.2670   46.1050 C.3    13  MET13       0.1736
     27  C         26.7350  -61.7460   46.8640 C.2    13  MET13       0.2617
     28  O         27.8480  -61.2470   46.6670 O.2    13  MET13      -0.2715
     29  CB        24.6520  -60.3100   46.9360 C.3    13  MET13       0.0427
     30  CG        25.4340  -59.1450   47.4850 C.3    13  MET13       0.0599
     31  SD        26.3960  -58.1240   46.3000 S.3    13  MET13      -0.1393
     32  CE        25.0080  -57.2190   45.5960 C.3    13  MET13       0.0692
     33  N         26.5490  -62.7180   47.7530 N.am   14  GLY14      -0.1955
     34  CA        27.7060  -63.2970   48.4430 C.3    14  GLY14       0.1869
     35  C         28.7830  -63.8000   47.5180 C.2    14  GLY14       0.2309
     36  O         29.9690  -63.6460   47.7950 O.2    14  GLY14      -0.2863
     37  N         31.7010  -69.9340   52.9700 N.3    31  TRP31      -0.1227
     38  CA        30.7750  -70.9540   53.4510 C.3    31  TRP31       0.1737
     39  C         29.3770  -70.5620   53.0340 C.2    31  TRP31       0.2595
     40  O         29.0220  -69.3700   52.9850 O.2    31  TRP31      -0.2718
     41  CB        30.8310  -71.0940   54.9760 C.3    31  TRP31       0.0564
     42  CG        29.7600  -72.0040   55.5210 C.ar   31  TRP31       0.0003
     43  CD1       29.7890  -73.3820   55.6310 C.ar   31  TRP31       0.0946
     44  CD2       28.4650  -71.6200   55.9880 C.ar   31  TRP31       0.0152
     45  NE1       28.6280  -73.8580   56.1360 N.ar   31  TRP31      -0.2442
     46  CE2       27.7790  -72.8070   56.3660 C.ar   31  TRP31       0.0810
     47  CE3       27.7980  -70.3980   56.0880 C.ar   31  TRP31       0.0012
     48  CZ2       26.4810  -72.7990   56.8850 C.ar   31  TRP31       0.0191
     49  CZ3       26.4800  -70.3950   56.6060 C.ar   31  TRP31       0.0001
     50  CH2       25.8640  -71.5760   57.0030 C.ar   31  TRP31       0.0015
     51  N         28.5610  -71.5690   52.7500 N.am   32  ASN32      -0.1960
     52  CA        27.1330  -71.4180   52.4340 C.3    32  ASN32       0.1819
     53  C         26.3840  -72.5720   53.0710 C.2    32  ASN32       0.2621
     54  O         26.9150  -73.6940   53.1260 O.2    32  ASN32      -0.2715
     55  CB        26.9210  -71.4670   50.9270 C.3    32  ASN32       0.1195
     56  CG        25.5170  -71.0120   50.5290 C.2    32  ASN32       0.2630
     57  OD1       25.1100  -69.8590   50.8750 O.2    32  ASN32      -0.2716
     58  ND2       24.7530  -71.9060   49.8460 N.am   32  ASN32      -0.0877
     59  N         25.1570  -72.3350   53.4990 N.am   33  ARG33      -0.1963
     60  CA        24.3190  -73.4210   54.0800 C.3    33  ARG33       0.1729
     61  C         24.2150  -74.6010   53.1590 C.2    33  ARG33       0.2616
     62  O         24.4270  -75.7100   53.5920 O.2    33  ARG33      -0.2715
     63  CB        22.9250  -72.8530   54.3950 C.3    33  ARG33       0.0348
     64  CG        21.8730  -73.9080   54.6820 C.3    33  ARG33       0.0492
     65  CD        20.5710  -73.2360   55.0320 C.3    33  ARG33       0.2205
     66  NE        19.9710  -72.5680   53.8900 N.pl3  33  ARG33      -0.0865
     67  CZ        18.7570  -72.0280   53.8950 C.cat  33  ARG33       0.5346
     68  NH1       18.2890  -71.4380   52.8090 N.pl3  33  ARG33       0.1354
     69  NH2       17.9830  -72.0790   54.9890 N.pl3  33  ARG33       0.1354
     70  N         23.8790  -74.3550   51.9070 N.am   34  SER34      -0.1950
     71  CA        23.7840  -75.4070   50.8870 C.3    34  SER34       0.1924
     72  C         25.0890  -75.6260   50.1720 C.2    34  SER34       0.2314
     73  O         25.7080  -74.6780   49.7180 O.2    34  SER34      -0.2863
     74  CB        22.7310  -75.0150   49.8360 C.3    34  SER34       0.2116
     75  OG        21.4790  -74.8760   50.4580 O.3    34  SER34      -0.2180
     76  N         27.5630  -74.3100   45.7840 N.3    37  LYS37      -0.1245
     77  CA        27.4630  -72.9510   45.2140 C.3    37  LYS37       0.1561
     78  C         28.8680  -72.3280   45.0310 C.2    37  LYS37       0.2260
     79  O         28.9520  -71.1790   44.6900 O.2    37  LYS37      -0.2867
     80  CB        26.5470  -72.0630   46.1430 C.3    37  LYS37       0.0271
     81  CG        25.0700  -72.1480   45.8340 C.3    37  LYS37       0.0035
     82  CD        24.4990  -73.4780   46.2480 C.3    37  LYS37       0.0206
     83  CE        23.1520  -73.7260   45.6050 C.3    37  LYS37       0.1093
     84  NZ        22.4860  -74.9200   46.2240 N.3    37  LYS37      -0.1314
     85  N         26.2770  -62.2100   54.3750 N.3    65  CYS65      -0.1221
     86  CA        25.3400  -61.6940   53.3500 C.3    65  CYS65       0.1808
     87  C         24.3610  -62.7900   53.0110 C.2    65  CYS65       0.2601
     88  O         24.5670  -63.5670   52.0990 O.2    65  CYS65      -0.2717
     89  CB        26.0820  -61.1830   52.1590 C.3    65  CYS65       0.0970
     90  SG        24.9740  -60.3600   50.9620 S.3    65  CYS65      -0.0800
     91  N         23.3270  -62.9030   53.8570 N.am   66  VAL66      -0.1965
     92  CA        22.2740  -63.9210   53.6940 C.3    66  VAL66       0.1727
     93  C         20.9520  -63.2210   53.3920 C.2    66  VAL66       0.2616
     94  O         20.9360  -62.0130   53.0800 O.2    66  VAL66      -0.2715
     95  CB        22.2240  -64.9180   54.8740 C.3    66  VAL66       0.0290
     96  CG1       23.5080  -65.7400   54.8890 C.3    66  VAL66       0.0023
     97  CG2       21.9800  -64.1930   56.2160 C.3    66  VAL66       0.0023
     98  N         19.8370  -63.9420   53.3920 N.am   67  SER67      -0.1950
     99  CA        18.5910  -63.3550   52.8870 C.3    67  SER67       0.1924
    100  C         18.0510  -62.2240   53.8100 C.2    67  SER67       0.2314
    101  O         17.8580  -61.1050   53.3640 O.2    67  SER67      -0.2863
    102  CB        17.5460  -64.4700   52.6940 C.3    67  SER67       0.2116
    103  OG        17.4290  -65.1440   53.9670 O.3    67  SER67      -0.2180
    104  N         16.3090  -62.9760   60.0720 N.3    70  ALA70      -0.1231
    105  CA        16.0780  -64.3180   60.6460 C.3    70  ALA70       0.1694
    106  C         17.2330  -65.2860   60.2730 C.2    70  ALA70       0.2591
    107  O         17.7180  -66.0250   61.1310 O.2    70  ALA70      -0.2718
    108  CB        14.7380  -64.9020   60.2170 C.3    70  ALA70       0.0304
    109  N         17.6600  -65.2370   59.0160 N.am   71  ALA71      -0.1980
    110  CA        18.8210  -65.9840   58.5840 C.3    71  ALA71       0.1597
    111  C         20.1100  -65.5760   59.2430 C.2    71  ALA71       0.2287
    112  O         20.9330  -66.4430   59.6550 O.2    71  ALA71      -0.2864
    113  CB        18.9470  -65.9220   57.0360 C.3    71  ALA71       0.0319
    114  N         20.0760  -67.0580   62.6850 N.3    74  ALA74      -0.1231
    115  CA        20.3250  -68.4900   62.5780 C.3    74  ALA74       0.1694
    116  C         21.8270  -68.7900   62.3890 C.2    74  ALA74       0.2591
    117  O         22.3420  -69.7280   63.0080 O.2    74  ALA74      -0.2718
    118  CB        19.5170  -69.1140   61.4370 C.3    74  ALA74       0.0304
    119  N         22.5170  -68.0150   61.5550 N.am   75  VAL75      -0.1980
    120  CA        23.9410  -68.2580   61.2950 C.3    75  VAL75       0.1595
    121  C         24.7820  -67.8280   62.4910 C.2    75  VAL75       0.2287
    122  O         25.7090  -68.5450   62.8990 O.2    75  VAL75      -0.2864
    123  CB        24.3870  -67.5670   60.0030 C.3    75  VAL75       0.0276
    124  CG1       25.8870  -67.6430   59.8570 C.3    75  VAL75       0.0022
    125  CG2       23.7270  -68.2200   58.7940 C.3    75  VAL75       0.0022
    126  N         26.0820  -57.3810   55.8880 N.3    91  LEU91      -0.1231
    127  CA        25.6230  -56.7360   54.6480 C.3    91  LEU91       0.1693
    128  C         24.2580  -57.2710   54.2060 C.2    91  LEU91       0.2593
    129  O         23.7930  -57.0500   53.0580 O.2    91  LEU91      -0.2718
    130  CB        26.6700  -56.9030   53.5380 C.3    91  LEU91       0.0284
    131  CG        28.0480  -56.2740   53.8140 C.3    91  LEU91       0.0019
    132  CD1       29.0050  -56.4770   52.6480 C.3    91  LEU91       0.0001
    133  CD2       27.9050  -54.8160   54.1970 C.3    91  LEU91       0.0001
    134  N         23.5820  -57.9970   55.1050 N.am   92  THR92      -0.1939
    135  CA        22.2340  -58.4970   54.8230 C.3    92  THR92       0.2028
    136  C         21.2110  -57.3440   54.8790 C.2    92  THR92       0.2642
    137  O         21.2880  -56.5280   55.7640 O.2    92  THR92      -0.2714
    138  CB        21.8760  -59.5730   55.8780 C.3    92  THR92       0.1808
    139  OG1       22.8990  -60.5960   55.8220 O.3    92  THR92      -0.2208
    140  CG2       20.5370  -60.1670   55.6390 C.3    92  THR92       0.0379
    141  N         20.2440  -57.3130   53.9700 N.am   93  SER93      -0.1949
    142  CA        19.1590  -56.3230   54.0200 C.3    93  SER93       0.1924
    143  C         18.3110  -56.4560   55.2870 C.2    93  SER93       0.2314
    144  O         18.1390  -57.5340   55.8290 O.2    93  SER93      -0.2863
    145  CB        18.2710  -56.4080   52.7890 C.3    93  SER93       0.2116
    146  OG        19.0260  -56.3530   51.6290 O.3    93  SER93      -0.2180
    147  N         24.6610  -52.6800   50.7820 N.3   118  ILE118     -0.1245
    148  CA        25.2890  -52.7820   49.4770 C.3   118  ILE118      0.1561
    149  C         24.4250  -52.0580   48.4750 C.2   118  ILE118      0.2260
    150  O         23.3460  -52.5800   48.1160 O.2   118  ILE118     -0.2867
    151  CB        25.4910  -54.2200   49.0120 C.3   118  ILE118      0.0252
    152  CG1       26.2820  -55.0280   50.0600 C.3   118  ILE118      0.0019
    153  CG2       26.2970  -54.2470   47.6910 C.3   118  ILE118      0.0019
    154  CD1       26.0660  -56.5470   49.8780 C.3   118  ILE118      0.0001
    155  N         24.5180  -51.5780   45.2880 N.3   120  ALA120     -0.1231
    156  CA        25.0700  -52.0870   44.0490 C.3   120  ALA120      0.1694
    157  C         24.5040  -53.4430   43.7410 C.2   120  ALA120      0.2592
    158  O         24.0760  -54.1690   44.6400 O.2   120  ALA120     -0.2718
    159  CB        26.6140  -52.2150   44.1800 C.3   120  ALA120      0.0304
    160  N         24.5360  -53.7830   42.4620 N.am  121  ILE121     -0.1966
    161  CA        24.2370  -55.1390   42.0160 C.3   121  ILE121      0.1712
    162  C         25.5420  -55.9970   41.9880 C.2   121  ILE121      0.2458
    163  O         26.6540  -55.4590   41.9800 O.2   121  ILE121     -0.2730
    164  CB        23.5620  -55.1710   40.6170 C.3   121  ILE121      0.0289
    165  CG1       24.4200  -54.4330   39.5740 C.3   121  ILE121      0.0022
    166  CG2       22.1610  -54.6140   40.7170 C.3   121  ILE121      0.0023
    167  CD1       23.9370  -54.6120   38.1240 C.3   121  ILE121      0.0001
    168  N         25.3830  -57.3170   41.9480 N.am  122  PRO122     -0.2727
    169  CA        26.5830  -58.1850   42.0640 C.3   122  PRO122      0.1402
    170  C         27.6410  -57.9230   41.0130 C.2   122  PRO122      0.2269
    171  O         28.8200  -57.9280   41.3160 O.2   122  PRO122     -0.2865
    172  CB        25.9900  -59.5900   41.9150 C.3   122  PRO122      0.0296
    173  CG        24.6310  -59.4810   42.4830 C.3   122  PRO122      0.0237
    174  CD        24.1420  -58.1390   41.9500 C.3   122  PRO122      0.0939
    175  N         16.4080  -47.6500   48.2450 N.3   173  LEU173     -0.1245
    176  CA        15.7480  -48.6800   47.4340 C.3   173  LEU173      0.1561
    177  C         14.3720  -48.2110   46.9710 C.2   173  LEU173      0.2260
    178  O         13.9650  -48.5150   45.8450 O.2   173  LEU173     -0.2867
    179  CB        15.6570  -50.0080   48.2020 C.3   173  LEU173      0.0270
    180  CG        17.0190  -50.6460   48.5550 C.3   173  LEU173      0.0019
    181  CD1       16.7810  -51.9530   49.3040 C.3   173  LEU173      0.0001
    182  CD2       17.8390  -50.8870   47.3380 C.3   173  LEU173      0.0001
@<TRIPOS>BOND
     1   167   165    1
     2   165   164    1
     3   164   166    1
     4   164   161    1
     5   170   171    2
     6   170   169    1
     7    24    22    1
     8    23    22    1
     9   172   169    1
    10   172   173    1
    11   168   174    1
    12   168   162   am
    13   168   169    1
    14   174   173    1
    15   163   162    2
    16   162   161    1
    17   161   160    1
    18   160   157   am
    19    22    21    1
    20    21    18    1
    21   157   156    1
    22   157   158    2
    23    20    19    2
    24    18    19    1
    25    18    17    1
    26   156   159    1
    27   156   155    1
    28    19    25   am
    29    79    78    2
    30    17    15   am
    31    78    77    1
    32    77    76    1
    33    77    80    1
    34    25    26    1
    35    32    31    1
    36    83    84    1
    37    83    82    1
    38    16    15    2
    39    81    80    1
    40    81    82    1
    41   178   177    2
    42    15    14    1
    43    26    27    1
    44    26    29    1
    45    31    30    1
    46    28    27    2
    47     8     7    2
    48    27    33   am
    49    29    30    1
    50   177   176    1
    51    14    13    1
    52   182   180    1
    53   176   179    1
    54   176   175    1
    55    35    36    2
    56    35    34    1
    57   153   151    1
    58    33    34    1
    59     7    13   am
    60     7     6    1
    61   150   149    2
    62   179   180    1
    63   149   148    1
    64     9     6    1
    65     9    10    1
    66   180   181    1
    67     6     5    1
    68   151   148    1
    69   151   152    1
    70    11    10    1
    71    12    10    1
    72   148   147    1
    73    73    72    2
    74    74    75    1
    75    74    71    1
    76    58    56   am
    77   154   152    1
    78     5     3   am
    79    72    71    1
    80    56    57    2
    81    56    55    1
    82     4     3    2
    83    71    70    1
    84    55    52    1
    85    90    89    1
    86     3     2    1
    87   146   145    1
    88    70    61   am
    89    88    87    2
    90    89    86    1
    91     2     1    1
    92    52    51    1
    93    52    53    1
    94   132   131    1
    95   102    99    1
    96   102   103    1
    97    51    39   am
    98   145   142    1
    99    68    67    1
   100    99    98    1
   101    99   100    1
   102    37    38    1
   103    40    39    2
   104    87    86    1
   105    87    91   am
   106    39    38    1
   107   129   128    2
   108    53    54    2
   109    53    59   am
   110    94    93    2
   111    61    62    2
   112    61    60    1
   113    86    85    1
   114   101   100    2
   115    93    98   am
   116    93    92    1
   117    38    41    1
   118    59    60    1
   119   130   131    1
   120   130   127    1
   121    92    91    1
   122    92    95    1
   123   131   133    1
   124    66    67    2
   125    66    65    1
   126    67    69    1
   127   141   142    1
   128   141   136   am
   129   142   143    1
   130    60    63    1
   131   128   127    1
   132   128   134   am
   133    63    64    1
   134   127   126    1
   135    64    65    1
   136   135   136    1
   137   135   134    1
   138   135   138    1
   139    95    96    1
   140    95    97    1
   141   136   137    2
   142    41    42    1
   143   143   144    2
   144    42    43   ar
   145    42    44   ar
   146    43    45   ar
   147   140   138    1
   148   139   138    1
   149    44    47   ar
   150    44    46   ar
   151    47    49   ar
   152    45    46   ar
   153    46    48   ar
   154    49    50   ar
   155    48    50   ar
   156   113   110    1
   157   110   109    1
   158   110   111    1
   159   125   123    1
   160   109   106   am
   161   111   112    2
   162   124   123    1
   163   123   120    1
   164   104   105    1
   165   108   105    1
   166   106   105    1
   167   106   107    2
   168   120   119    1
   169   120   121    1
   170   118   115    1
   171   119   116   am
   172   116   115    1
   173   116   117    2
   174   121   122    2
   175   115   114    1
