@<TRIPOS>MOLECULE
tmp/5ocoE01.pdb
 95 90 0 0 0
SMALL
GASTEIGER

@<TRIPOS>ATOM
      1  N         42.3450   92.0350   38.9720 N.3     9  LYS9       -0.1231
      2  CA        41.3020   92.2050   39.9560 C.3     9  LYS9        0.1693
      3  C         41.8870   91.8610   41.3360 C.2     9  LYS9        0.2592
      4  O         42.1930   90.6960   41.6280 O.2     9  LYS9       -0.2718
      5  CB        40.1460   91.2820   39.6030 C.3     9  LYS9        0.0285
      6  CG        39.4680   91.6710   38.2980 C.3     9  LYS9        0.0035
      7  CD        38.4260   90.6880   37.8130 C.3     9  LYS9        0.0206
      8  CE        37.8970   91.0950   36.4310 C.3     9  LYS9        0.1093
      9  NZ        37.3890   92.5100   36.3290 N.3     9  LYS9       -0.1314
     10  N         42.0710   92.8710   42.1700 N.am   10  LEU10      -0.1966
     11  CA        42.7190   92.7440   43.4570 C.3    10  LEU10       0.1728
     12  C         41.6530   92.9470   44.5230 C.2    10  LEU10       0.2616
     13  O         40.7650   93.7630   44.3580 O.2    10  LEU10      -0.2715
     14  CB        43.8070   93.7810   43.6550 C.3    10  LEU10       0.0311
     15  CG        44.7880   93.9390   42.4990 C.3    10  LEU10       0.0022
     16  CD1       45.8930   94.8960   42.8670 C.3    10  LEU10       0.0001
     17  CD2       45.4210   92.6260   42.0610 C.3    10  LEU10       0.0001
     18  N         41.7130   92.1430   45.5840 N.am   11  VAL11      -0.1977
     19  CA        40.8070   92.2620   46.7120 C.3    11  VAL11       0.1596
     20  C         41.6040   92.4680   47.9900 C.2    11  VAL11       0.2287
     21  O         42.5700   91.7310   48.2500 O.2    11  VAL11      -0.2864
     22  CB        39.9530   90.9630   46.8220 C.3    11  VAL11       0.0276
     23  CG1       38.9420   91.1280   47.9430 C.3    11  VAL11       0.0022
     24  CG2       39.2280   90.6620   45.5300 C.3    11  VAL11       0.0022
     25  N         31.2320   97.9840   50.8230 N.3    41  GLU41      -0.1231
     26  CA        31.9690   97.4940   49.6390 C.3    41  GLU41       0.1699
     27  C         32.2910   98.7160   48.7750 C.2    41  GLU41       0.2592
     28  O         31.3680   99.4820   48.4260 O.2    41  GLU41      -0.2718
     29  CB        31.1040   96.4900   48.8210 C.3    41  GLU41       0.0402
     30  CG        30.7900   95.0820   49.4020 C.3    41  GLU41       0.1161
     31  CD        32.0020   94.1400   49.5650 C.2    41  GLU41       0.3649
     32  OE1       32.3400   93.5060   48.5160 O.co2  41  GLU41      -0.2457
     33  OE2       32.5660   94.0100   50.7200 O.co2  41  GLU41      -0.2457
     34  N         33.5580   98.8990   48.3890 N.am   42  ASP42      -0.1960
     35  CA        33.9040   99.9710   47.4620 C.3    42  ASP42       0.1840
     36  C         34.8740   99.4190   46.4150 C.2    42  ASP42       0.2622
     37  O         35.7130   98.5710   46.7450 O.2    42  ASP42      -0.2715
     38  CB        34.5790  101.1350   48.2050 C.3    42  ASP42       0.1450
     39  CG        33.6100  101.9350   49.0510 C.2    42  ASP42       0.3671
     40  OD1       32.5510  102.3040   48.4960 O.co2  42  ASP42      -0.2456
     41  OD2       33.8740  102.1570   50.2760 O.co2  42  ASP42      -0.2456
     42  N         34.8080   99.9630   45.2150 N.am   43  SER43      -0.1950
     43  CA        35.7340   99.5500   44.1400 C.3    43  SER43       0.1924
     44  C         36.4750  100.7800   43.6120 C.2    43  SER43       0.2314
     45  O         35.9210  101.9040   43.5080 O.2    43  SER43      -0.2863
     46  CB        34.9870   98.8360   43.0240 C.3    43  SER43       0.2116
     47  OG        34.2250   99.7890   42.3140 O.3    43  SER43      -0.2180
     48  N         42.0000   96.9300   39.3470 N.3    57  ASP57      -0.1239
     49  CA        40.6320   97.0230   39.8080 C.3    57  ASP57       0.1674
     50  C         40.6720   96.5330   41.2460 C.2    57  ASP57       0.2266
     51  O         40.9910   95.3560   41.4480 O.2    57  ASP57      -0.2867
     52  CB        39.7370   96.0780   39.0450 C.3    57  ASP57       0.1410
     53  CG        38.8850   96.7410   38.1500 C.2    57  ASP57       0.3668
     54  OD1       39.4480   97.0510   37.0690 O.co2  57  ASP57      -0.2456
     55  OD2       37.6790   96.9890   38.4800 O.co2  57  ASP57      -0.2456
     56  N         39.0540   95.9430   45.0000 N.3    59  LEU59      -0.1245
     57  CA        37.8110   95.8100   45.7940 C.3    59  LEU59       0.1561
     58  C         38.1870   95.8740   47.2400 C.2    59  LEU59       0.2260
     59  O         38.9930   95.0450   47.7430 O.2    59  LEU59      -0.2867
     60  CB        37.1100   94.4770   45.4870 C.3    59  LEU59       0.0270
     61  CG        35.7590   94.3830   46.2230 C.3    59  LEU59       0.0019
     62  CD1       34.7470   95.3430   45.6310 C.3    59  LEU59       0.0001
     63  CD2       35.1940   93.0090   46.1440 C.3    59  LEU59       0.0001
     64  N         31.2540   85.6420   46.2300 N.3    73  GLN73      -0.1231
     65  CA        31.2930   86.1690   44.8790 C.3    73  GLN73       0.1698
     66  C         32.5850   86.9810   44.6390 C.2    73  GLN73       0.2592
     67  O         33.2440   86.8070   43.6090 O.2    73  GLN73      -0.2718
     68  CB        30.0570   87.0270   44.5770 C.3    73  GLN73       0.0381
     69  CG        30.0420   87.7410   43.2230 C.3    73  GLN73       0.0905
     70  CD        30.0990   86.7850   42.0250 C.2    73  GLN73       0.2608
     71  OE1       29.1350   86.7170   41.2410 O.2    73  GLN73      -0.2717
     72  NE2       31.2240   86.0890   41.8360 N.am   73  GLN73      -0.0878
     73  N         32.9590   87.8460   45.5800 N.am   74  TYR74      -0.1976
     74  CA        34.1890   88.6090   45.3430 C.3    74  TYR74       0.1639
     75  C         35.4410   87.7500   45.4650 C.2    74  TYR74       0.2290
     76  O         36.4360   87.9700   44.7580 O.2    74  TYR74      -0.2864
     77  CB        34.2610   89.8650   46.1640 C.3    74  TYR74       0.0560
     78  CG        34.4680   89.7760   47.6710 C.ar   74  TYR74      -0.0198
     79  CD1       35.6460   89.2750   48.2190 C.ar   74  TYR74      -0.0009
     80  CD2       33.5240   90.3480   48.5360 C.ar   74  TYR74      -0.0009
     81  CE1       35.8350   89.2480   49.5890 C.ar   74  TYR74       0.0417
     82  CE2       33.7150   90.3400   49.9010 C.ar   74  TYR74       0.0417
     83  CZ        34.8800   89.8050   50.4270 C.ar   74  TYR74       0.1957
     84  OH        35.0870   89.7660   51.7800 O.3    74  TYR74      -0.2866
     85  N         35.8070   86.1010   42.1000 N.3    77  THR77      -0.1203
     86  CA        36.1400   87.0560   41.0320 C.3    77  THR77       0.1994
     87  C         37.5720   87.5530   41.1820 C.2    77  THR77       0.2618
     88  O         38.2690   87.8010   40.1960 O.2    77  THR77      -0.2717
     89  CB        35.1880   88.2710   41.0440 C.3    77  THR77       0.1784
     90  OG1       33.8710   87.8510   40.7010 O.3    77  THR77      -0.2211
     91  CG2       35.6000   89.3310   40.0220 C.3    77  THR77       0.0376
     92  N         38.0140   87.7120   42.4310 N.am   78  GLY78      -0.1956
     93  CA        39.3740   88.2220   42.6920 C.3    78  GLY78       0.1869
     94  C         40.4580   87.3380   42.1620 C.2    78  GLY78       0.2309
     95  O         40.4340   86.1020   42.2940 O.2    78  GLY78      -0.2863
@<TRIPOS>BOND
     1     9     8    1
     2     8     7    1
     3    54    53   ar
     4     7     6    1
     5    53    55   ar
     6    53    52    1
     7     6     5    1
     8     1     2    1
     9    52    49    1
    10    48    49    1
    11     5     2    1
    12    49    50    1
    13     2     3    1
    14    91    89    1
    15    88    87    2
    16    90    89    1
    17    86    89    1
    18    86    87    1
    19    86    85    1
    20    87    92   am
    21    71    70    2
    22    50    51    2
    23     3     4    2
    24     3    10   am
    25    72    70   am
    26    70    69    1
    27    17    15    1
    28    94    95    2
    29    94    93    1
    30    10    11    1
    31    47    46    1
    32    92    93    1
    33    15    16    1
    34    15    14    1
    35    46    43    1
    36    69    68    1
    37    11    14    1
    38    11    12    1
    39    45    44    2
    40    67    66    2
    41    44    43    1
    42    43    42    1
    43    13    12    2
    44    12    18   am
    45    68    65    1
    46    66    65    1
    47    66    73   am
    48    76    75    2
    49    65    64    1
    50    56    57    1
    51    42    36   am
    52    74    75    1
    53    74    73    1
    54    74    77    1
    55    60    57    1
    56    60    61    1
    57    24    22    1
    58    18    19    1
    59    62    61    1
    60    57    58    1
    61    63    61    1
    62    77    78    1
    63    36    37    2
    64    36    35    1
    65    19    22    1
    66    19    20    1
    67    22    23    1
    68    58    59    2
    69    35    38    1
    70    35    34    1
    71    78    79   ar
    72    78    80   ar
    73    20    21    2
    74    38    39    1
    75    79    81   ar
    76    34    27   am
    77    28    27    2
    78    40    39   ar
    79    32    31   ar
    80    80    82   ar
    81    27    26    1
    82    29    30    1
    83    29    26    1
    84    39    41   ar
    85    30    31    1
    86    31    33   ar
    87    81    83   ar
    88    26    25    1
    89    82    83   ar
    90    83    84    1
