@<TRIPOS>MOLECULE
tmp/5ocpB01.pdb
 121 115 0 0 0
SMALL
GASTEIGER

@<TRIPOS>ATOM
      1  N         39.6620   -3.1570   26.7110 N.3    11  GLU11      -0.1231
      2  CA        40.0960   -2.7560   28.0330 C.3    11  GLU11       0.1699
      3  C         41.3940   -1.9110   28.0900 C.2    11  GLU11       0.2592
      4  O         41.6420   -1.2150   29.1270 O.2    11  GLU11      -0.2718
      5  CB        40.2800   -3.9730   28.9810 C.3    11  GLU11       0.0402
      6  CG        41.4420   -4.9590   28.6770 C.3    11  GLU11       0.1161
      7  CD        41.2960   -5.8340   27.4020 C.2    11  GLU11       0.3649
      8  OE1       40.2050   -5.8580   26.8070 O.co2  11  GLU11      -0.2457
      9  OE2       42.3060   -6.4780   26.9430 O.co2  11  GLU11      -0.2457
     10  N         42.1960   -1.9750   27.0420 N.am   12  SER12      -0.1952
     11  CA        43.4600   -1.2400   26.9590 C.3    12  SER12       0.1924
     12  C         43.6460   -0.6920   25.5980 C.2    12  SER12       0.2314
     13  O         43.0970   -1.2110   24.6030 O.2    12  SER12      -0.2863
     14  CB        44.6340   -2.1470   27.3120 C.3    12  SER12       0.2116
     15  OG        44.8030   -3.1490   26.3450 O.3    12  SER12      -0.2180
     16  N         46.3540   -1.2660   23.9770 N.3    14  TRP14      -0.1227
     17  CA        46.8880   -2.3420   23.1960 C.3    14  TRP14       0.1737
     18  C         45.7840   -3.1470   22.5240 C.2    14  TRP14       0.2595
     19  O         45.8840   -3.4270   21.3170 O.2    14  TRP14      -0.2718
     20  CB        47.8380   -3.2430   24.0210 C.3    14  TRP14       0.0564
     21  CG        48.3580   -4.2820   23.1570 C.ar   14  TRP14       0.0003
     22  CD1       49.4850   -4.1880   22.3760 C.ar   14  TRP14       0.0946
     23  CD2       47.8100   -5.5930   22.8810 C.ar   14  TRP14       0.0152
     24  NE1       49.6480   -5.2990   21.6550 N.ar   14  TRP14      -0.2442
     25  CE2       48.6460   -6.1790   21.8970 C.ar   14  TRP14       0.0810
     26  CE3       46.6610   -6.2990   23.3050 C.ar   14  TRP14       0.0012
     27  CZ2       48.4060   -7.4280   21.3360 C.ar   14  TRP14       0.0191
     28  CZ3       46.4010   -7.5880   22.7090 C.ar   14  TRP14       0.0001
     29  CH2       47.3080   -8.1460   21.7880 C.ar   14  TRP14       0.0015
     30  N         44.7800   -3.5080   23.3000 N.am   15  ARG15      -0.1980
     31  CA        43.6800   -4.2690   22.7780 C.3    15  ARG15       0.1597
     32  C         42.9990   -3.6340   21.5890 C.2    15  ARG15       0.2287
     33  O         42.7230   -4.2590   20.5580 O.2    15  ARG15      -0.2864
     34  CB        42.7410   -4.6230   23.9200 C.3    15  ARG15       0.0334
     35  CG        41.4240   -5.2620   23.5790 C.3    15  ARG15       0.0492
     36  CD        41.4810   -6.7440   23.3640 C.3    15  ARG15       0.2205
     37  NE        42.2770   -7.4340   24.3970 N.pl3  15  ARG15      -0.0865
     38  CZ        42.8760   -8.5860   24.1930 C.cat  15  ARG15       0.5346
     39  NH1       42.7430   -9.2580   23.0870 N.pl3  15  ARG15       0.1354
     40  NH2       43.6620   -9.1080   25.1300 N.pl3  15  ARG15       0.1354
     41  N         46.5900  -14.5460   20.8670 N.3    88  ASP88      -0.1225
     42  CA        46.8340  -13.6270   22.0110 C.3    88  ASP88       0.1805
     43  C         46.8560  -14.5300   23.2600 C.2    88  ASP88       0.2597
     44  O         47.9060  -15.1060   23.5780 O.2    88  ASP88      -0.2718
     45  CB        45.8700  -12.4280   21.9990 C.3    88  ASP88       0.1424
     46  CG        45.8250  -11.6720   23.3040 C.2    88  ASP88       0.3668
     47  OD1       46.8490  -11.6280   24.0370 O.co2  88  ASP88      -0.2456
     48  OD2       44.7090  -11.2010   23.6620 O.co2  88  ASP88      -0.2456
     49  N         45.7550  -14.7370   23.9330 N.am   89  ARG89      -0.1979
     50  CA        45.7600  -15.5920   25.1270 C.3    89  ARG89       0.1597
     51  C         45.6080  -17.0720   24.7490 C.2    89  ARG89       0.2287
     52  O         45.6800  -17.4050   23.5440 O.2    89  ARG89      -0.2864
     53  CB        44.7380  -15.1700   26.1450 C.3    89  ARG89       0.0334
     54  CG        45.0380  -13.7370   26.6160 C.3    89  ARG89       0.0492
     55  CD        43.9550  -13.1250   27.5020 C.3    89  ARG89       0.2205
     56  NE        44.1990  -11.7060   27.8170 N.pl3  89  ARG89      -0.0865
     57  CZ        43.3070  -10.8920   28.4020 C.cat  89  ARG89       0.5346
     58  NH1       42.1220  -11.3390   28.8610 N.pl3  89  ARG89       0.1354
     59  NH2       43.5600   -9.5810   28.5150 N.pl3  89  ARG89       0.1354
     60  N         54.2910  -15.1130   26.9380 N.3   107  PHE107     -0.1241
     61  CA        54.0810  -14.1810   28.0200 C.3   107  PHE107      0.1605
     62  C         55.0620  -14.4230   29.2100 C.2   107  PHE107      0.2264
     63  O         55.4270  -13.4950   29.8980 O.2   107  PHE107     -0.2867
     64  CB        52.6730  -14.3340   28.5960 C.3   107  PHE107      0.0534
     65  CG        51.5700  -14.0140   27.6250 C.ar  107  PHE107     -0.0203
     66  CD1       51.3940  -12.7080   27.1550 C.ar  107  PHE107     -0.0042
     67  CD2       50.6370  -14.9770   27.2700 C.ar  107  PHE107     -0.0042
     68  CE1       50.3120  -12.3890   26.3020 C.ar  107  PHE107     -0.0003
     69  CE2       49.5550  -14.6440   26.4120 C.ar  107  PHE107     -0.0003
     70  CZ        49.4250  -13.3600   25.9200 C.ar  107  PHE107     -0.0000
     71  N         47.8630  -13.9570   29.9360 N.3   139  ALA139     -0.1245
     72  CA        48.8440  -12.9000   29.9930 C.3   139  ALA139      0.1562
     73  C         49.2710  -12.5790   31.4290 C.2   139  ALA139      0.2260
     74  O         50.4900  -12.4630   31.6860 O.2   139  ALA139     -0.2867
     75  CB        48.3770  -11.6440   29.2370 C.3   139  ALA139      0.0290
     76  N         52.9340  -13.9510   32.7670 N.3   143  ARG143     -0.1245
     77  CA        53.8960  -12.8960   33.0260 C.3   143  ARG143      0.1563
     78  C         54.3960  -12.9870   34.4540 C.2   143  ARG143      0.2260
     79  O         55.6000  -12.7870   34.7120 O.2   143  ARG143     -0.2867
     80  CB        53.3340  -11.4950   32.8010 C.3   143  ARG143      0.0307
     81  CG        53.2280  -11.2090   31.2990 C.3   143  ARG143      0.0489
     82  CD        52.5160   -9.9260   30.9600 C.3   143  ARG143      0.2205
     83  NE        52.3640   -9.7960   29.4800 N.pl3 143  ARG143     -0.0865
     84  CZ        51.3730   -9.1390   28.8670 C.cat 143  ARG143      0.5346
     85  NH1       50.5270   -8.4000   29.5720 N.pl3 143  ARG143      0.1354
     86  NH2       51.3290   -9.1570   27.5750 N.pl3 143  ARG143      0.1354
     87  N         43.9350   -4.7710   34.1690 N.3   167  PHE167     -0.1241
     88  CA        44.4370   -4.2970   32.8900 C.3   167  PHE167      0.1605
     89  C         43.9740   -2.8790   32.4780 C.2   167  PHE167      0.2264
     90  O         44.1340   -2.4860   31.3110 O.2   167  PHE167     -0.2867
     91  CB        44.1960   -5.3430   31.7330 C.3   167  PHE167      0.0534
     92  CG        45.1140   -6.5080   31.7280 C.ar  167  PHE167     -0.0203
     93  CD1       46.4910   -6.3680   31.9800 C.ar  167  PHE167     -0.0042
     94  CD2       44.6500   -7.8020   31.3290 C.ar  167  PHE167     -0.0042
     95  CE1       47.3420   -7.4620   31.8720 C.ar  167  PHE167     -0.0003
     96  CE2       45.5210   -8.8570   31.2850 C.ar  167  PHE167     -0.0003
     97  CZ        46.8710   -8.6840   31.5230 C.ar  167  PHE167     -0.0000
     98  N         50.4720   -4.6000   32.4580 N.3   195  ASN195     -0.1240
     99  CA        50.3570   -3.9200   31.2140 C.3   195  ASN195      0.1653
    100  C         50.5810   -2.4240   31.3430 C.2   195  ASN195      0.2266
    101  O         50.5450   -1.8390   32.4270 O.2   195  ASN195     -0.2867
    102  CB        49.0640   -4.2160   30.4320 C.3   195  ASN195      0.1155
    103  CG        47.8340   -3.4440   30.9250 C.2   195  ASN195      0.2627
    104  OD1       47.7800   -2.9340   32.0460 O.2   195  ASN195     -0.2716
    105  ND2       46.7930   -3.4120   30.0560 N.am  195  ASN195     -0.0877
    106  N         53.7490   -3.9770   26.8980 N.3   223  ASP223     -0.1239
    107  CA        52.8240   -3.7730   25.7680 C.3   223  ASP223      0.1674
    108  C         53.5250   -2.9310   24.6670 C.2   223  ASP223      0.2266
    109  O         53.4060   -3.1760   23.4490 O.2   223  ASP223     -0.2867
    110  CB        51.4590   -3.1050   26.0830 C.3   223  ASP223      0.1410
    111  CG        50.4170   -4.0710   26.6320 C.2   223  ASP223      0.3668
    112  OD1       50.6480   -5.3230   26.5480 O.co2 223  ASP223     -0.2456
    113  OD2       49.3370   -3.6420   27.0570 O.co2 223  ASP223     -0.2456
    114  N         54.6620   -5.6610   22.6990 N.3   243  LEU243     -0.1245
    115  CA        53.7340   -6.7580   22.3360 C.3   243  LEU243      0.1561
    116  C         53.2110   -6.4570   20.9350 C.2   243  LEU243      0.2260
    117  O         52.4210   -5.5090   20.8370 O.2   243  LEU243     -0.2867
    118  CB        52.6290   -6.8110   23.3500 C.3   243  LEU243      0.0270
    119  CG        51.5770   -7.9180   23.1190 C.3   243  LEU243      0.0019
    120  CD1       52.2590   -9.2890   23.0570 C.3   243  LEU243      0.0001
    121  CD2       50.4750   -7.7980   24.1590 C.3   243  LEU243      0.0001
@<TRIPOS>BOND
     1    33    32    2
     2   117   116    2
     3    41    42    1
     4   116   115    1
     5    19    18    2
     6    27    29   ar
     7    27    25   ar
     8    32    31    1
     9    24    25   ar
    10    24    22   ar
    11    29    28   ar
    12    25    23   ar
    13    45    42    1
    14    45    46    1
    15    42    43    1
    16   115   114    1
    17   115   118    1
    18    22    21   ar
    19    18    17    1
    20    18    30   am
    21    28    26   ar
    22    31    30    1
    23    31    34    1
    24    23    21   ar
    25    23    26   ar
    26   120   119    1
    27    39    38    1
    28   119   118    1
    29   119   121    1
    30    21    20    1
    31    17    16    1
    32    17    20    1
    33    43    44    2
    34    43    49   am
    35    46    48   ar
    36    46    47   ar
    37    36    35    1
    38    36    37    1
    39   109   108    2
    40    52    51    2
    41    35    34    1
    42    49    50    1
    43    38    37    2
    44    38    40    1
    45    13    12    2
    46   108   107    1
    47    51    50    1
    48    50    53    1
    49    12    11    1
    50   107   110    1
    51   107   106    1
    52    70    68   ar
    53    70    69   ar
    54   110   111    1
    55    53    54    1
    56    68    66   ar
    57    15    14    1
    58    69    67   ar
    59   112   111   ar
    60    54    55    1
    61   111   113   ar
    62     1     2    1
    63     8     7   ar
    64    60    61    1
    65     9     7   ar
    66    11    10    1
    67    11    14    1
    68    10     3   am
    69    66    65   ar
    70    67    65   ar
    71     7     6    1
    72    55    56    1
    73    86    84    1
    74    65    64    1
    75    56    57    2
    76    61    64    1
    77    61    62    1
    78     2     3    1
    79     2     5    1
    80     3     4    2
    81    57    59    1
    82    57    58    1
    83     6     5    1
    84    84    83    2
    85    84    85    1
    86    62    63    2
    87    75    72    1
    88    83    82    1
    89    71    72    1
    90    72    73    1
    91   105   103   am
    92   102   103    1
    93   102    99    1
    94   103   104    2
    95    82    81    1
    96    99   100    1
    97    99    98    1
    98    96    94   ar
    99    96    97   ar
   100    81    80    1
   101    90    89    2
   102    94    92   ar
   103   100   101    2
   104    73    74    2
   105    97    95   ar
   106    92    91    1
   107    92    93   ar
   108    91    88    1
   109    95    93   ar
   110    89    88    1
   111    76    77    1
   112    80    77    1
   113    88    87    1
   114    77    78    1
   115    78    79    2
