@<TRIPOS>MOLECULE
tmp/5ocqB02.pdb
 181 178 0 0 0
SMALL
GASTEIGER

@<TRIPOS>ATOM
      1  N         28.8960   48.4980   31.7170 N.3    37  TYR37      -0.1227
      2  CA        28.5940   49.7230   32.4420 C.3    37  TYR37       0.1736
      3  C         28.9550   49.4760   33.9050 C.2    37  TYR37       0.2596
      4  O         29.4280   48.3630   34.2960 O.2    37  TYR37      -0.2718
      5  CB        27.0800   50.0910   32.2560 C.3    37  TYR37       0.0548
      6  CG        26.0710   48.9080   32.3940 C.ar   37  TYR37      -0.0200
      7  CD1       25.7060   48.3680   33.6410 C.ar   37  TYR37      -0.0009
      8  CD2       25.6210   48.2220   31.2630 C.ar   37  TYR37      -0.0009
      9  CE1       24.8300   47.3230   33.7640 C.ar   37  TYR37       0.0417
     10  CE2       24.7120   47.1580   31.3520 C.ar   37  TYR37       0.0417
     11  CZ        24.3050   46.7130   32.6030 C.ar   37  TYR37       0.1957
     12  OH        23.4760   45.6210   32.7340 O.3    37  TYR37      -0.2866
     13  N         28.7080   50.4640   34.7500 N.am   38  GLY38      -0.1957
     14  CA        29.1150   50.2680   36.1530 C.3    38  GLY38       0.1869
     15  C         30.6390   50.1960   36.2800 C.2    38  GLY38       0.2309
     16  O         31.3590   50.7210   35.4200 O.2    38  GLY38      -0.2863
     17  N         32.2800   47.2020   36.7320 N.3    40  TRP40      -0.1241
     18  CA        32.6090   45.7480   36.5220 C.3    40  TRP40       0.1605
     19  C         32.5200   45.4590   35.0590 C.2    40  TRP40       0.2264
     20  O         32.0050   46.2900   34.3120 O.2    40  TRP40      -0.2867
     21  CB        31.7320   44.8430   37.3790 C.3    40  TRP40       0.0550
     22  CG        30.2850   45.0650   37.1100 C.ar   40  TRP40       0.0003
     23  CD1       29.5230   44.5150   36.0430 C.ar   40  TRP40       0.0946
     24  CD2       29.4160   46.0510   37.7400 C.ar   40  TRP40       0.0152
     25  NE1       28.2860   45.0830   36.0610 N.ar   40  TRP40      -0.2442
     26  CE2       28.1680   46.0080   37.0670 C.ar   40  TRP40       0.0810
     27  CE3       29.5690   46.9270   38.8270 C.ar   40  TRP40       0.0012
     28  CZ2       27.1080   46.7880   37.4640 C.ar   40  TRP40       0.0191
     29  CZ3       28.5360   47.7020   39.2250 C.ar   40  TRP40       0.0001
     30  CH2       27.2990   47.6690   38.5260 C.ar   40  TRP40       0.0015
     31  N         31.2490   42.3050   32.2010 N.3    42  TRP42      -0.1241
     32  CA        30.4830   41.0530   32.0320 C.3    42  TRP42       0.1605
     33  C         31.3330   39.9790   31.3630 C.2    42  TRP42       0.2264
     34  O         32.0110   40.2360   30.3500 O.2    42  TRP42      -0.2867
     35  CB        29.2170   41.2650   31.2100 C.3    42  TRP42       0.0550
     36  CG        28.3110   42.3290   31.7140 C.ar   42  TRP42       0.0003
     37  CD1       27.8310   43.4190   30.9870 C.ar   42  TRP42       0.0946
     38  CD2       27.6010   42.3660   33.0000 C.ar   42  TRP42       0.0152
     39  NE1       26.9460   44.0830   31.7590 N.ar   42  TRP42      -0.2442
     40  CE2       26.7470   43.4600   32.9680 C.ar   42  TRP42       0.0810
     41  CE3       27.5950   41.5740   34.1610 C.ar   42  TRP42       0.0012
     42  CZ2       25.9610   43.7990   34.0490 C.ar   42  TRP42       0.0191
     43  CZ3       26.7930   41.8860   35.2200 C.ar   42  TRP42       0.0001
     44  CH2       25.9430   43.0080   35.1730 C.ar   42  TRP42       0.0015
     45  N         19.7360   41.5210   40.8440 N.3   115  ALA115     -0.1245
     46  CA        18.6860   42.3120   40.2460 C.3   115  ALA115      0.1562
     47  C         17.9280   41.5940   39.1370 C.2   115  ALA115      0.2260
     48  O         18.4490   40.7550   38.3740 O.2   115  ALA115     -0.2867
     49  CB        19.2240   43.6230   39.7420 C.3   115  ALA115      0.0290
     50  N         15.2180   43.0200   36.2070 N.3   117  TRP117     -0.1241
     51  CA        14.8480   44.3600   35.6970 C.3   117  TRP117      0.1605
     52  C         14.7340   44.3550   34.2260 C.2   117  TRP117      0.2264
     53  O         15.0160   43.3300   33.5700 O.2   117  TRP117     -0.2867
     54  CB        15.8890   45.3990   36.1640 C.3   117  TRP117      0.0550
     55  CG        17.3430   45.1470   35.7260 C.ar  117  TRP117      0.0003
     56  CD1       18.1720   44.0910   36.1270 C.ar  117  TRP117      0.0946
     57  CD2       18.1750   46.0110   34.9130 C.ar  117  TRP117      0.0152
     58  NE1       19.4280   44.2440   35.5950 N.ar  117  TRP117     -0.2442
     59  CE2       19.4690   45.3760   34.7930 C.ar  117  TRP117      0.0810
     60  CE3       17.9660   47.2070   34.2510 C.ar  117  TRP117      0.0012
     61  CZ2       20.5090   45.9570   34.1150 C.ar  117  TRP117      0.0191
     62  CZ3       19.0190   47.7790   33.5040 C.ar  117  TRP117      0.0001
     63  CH2       20.2960   47.1130   33.4600 C.ar  117  TRP117      0.0015
     64  N         14.2820   57.0300   27.4060 N.3   134  TYR134     -0.1241
     65  CA        14.7550   55.8290   28.1250 C.3   134  TYR134      0.1605
     66  C         13.7400   55.3930   29.0800 C.2   134  TYR134      0.2264
     67  O         13.2570   56.2420   29.8340 O.2   134  TYR134     -0.2867
     68  CB        16.0990   56.0930   28.8160 C.3   134  TYR134      0.0534
     69  CG        16.6440   54.9720   29.6890 C.ar  134  TYR134     -0.0201
     70  CD1       17.0520   53.8050   29.0670 C.ar  134  TYR134     -0.0009
     71  CD2       16.7020   55.0280   31.0830 C.ar  134  TYR134     -0.0009
     72  CE1       17.5420   52.7300   29.8060 C.ar  134  TYR134      0.0417
     73  CE2       17.2160   54.0060   31.8410 C.ar  134  TYR134      0.0417
     74  CZ        17.6180   52.8160   31.1930 C.ar  134  TYR134      0.1957
     75  OH        18.1010   51.7840   31.9870 O.3   134  TYR134     -0.2866
     76  N         13.0980   52.1510   32.1160 N.3   136  GLU136     -0.1245
     77  CA        13.5950   51.0610   32.9220 C.3   136  GLU136      0.1567
     78  C         12.6740   50.7140   34.0440 C.2   136  GLU136      0.2260
     79  O         12.3020   51.6060   34.8560 O.2   136  GLU136     -0.2867
     80  CB        15.0480   51.3830   33.4160 C.3   136  GLU136      0.0388
     81  CG        15.6070   50.3670   34.4270 C.3   136  GLU136      0.1160
     82  CD        16.9030   50.7160   35.0990 C.2   136  GLU136      0.3649
     83  OE1       17.5800   51.6140   34.6230 O.co2 136  GLU136     -0.2457
     84  OE2       17.2600   50.0300   36.0840 O.co2 136  GLU136     -0.2457
     85  N         12.6050   48.1970   37.3830 N.3   138  ASP138     -0.1239
     86  CA        13.3600   47.2720   38.2240 C.3   138  ASP138      0.1674
     87  C         12.3720   46.4520   38.9930 C.2   138  ASP138      0.2266
     88  O         11.6070   47.0260   39.8360 O.2   138  ASP138     -0.2867
     89  CB        14.2770   47.9940   39.1950 C.3   138  ASP138      0.1410
     90  CG        15.3870   48.7650   38.4990 C.2   138  ASP138      0.3668
     91  OD1       15.5640   48.6210   37.2450 O.co2 138  ASP138     -0.2456
     92  OD2       16.0960   49.5380   39.2260 O.co2 138  ASP138     -0.2456
     93  N         15.7300   44.9930   43.2950 N.3   141  ASP141     -0.1239
     94  CA        17.1860   44.9960   43.6010 C.3   141  ASP141      0.1674
     95  C         17.3280   44.5060   45.0320 C.2   141  ASP141      0.2266
     96  O         16.7600   45.0800   45.9850 O.2   141  ASP141     -0.2867
     97  CB        17.7570   46.3660   43.5710 C.3   141  ASP141      0.1410
     98  CG        18.0830   46.8470   42.1120 C.2   141  ASP141      0.3668
     99  OD1       19.2950   46.5700   41.6950 O.co2 141  ASP141     -0.2456
    100  OD2       17.2790   47.6320   41.5840 O.co2 141  ASP141     -0.2456
    101  N         13.1480   54.0130   36.5070 N.3   156  HIS156     -0.1241
    102  CA        14.1420   55.0020   35.9740 C.3   156  HIS156      0.1621
    103  C         13.6820   55.4340   34.6050 C.2   156  HIS156      0.2264
    104  O         13.1660   54.6010   33.8200 O.2   156  HIS156     -0.2867
    105  CB        15.5630   54.4210   35.9720 C.3   156  HIS156      0.0745
    106  CG        16.0280   53.8780   37.2750 C.ar  156  HIS156      0.0817
    107  ND1       15.6880   52.6530   37.8140 N.ar  156  HIS156     -0.2268
    108  CD2       16.9570   54.3760   38.0880 C.ar  156  HIS156      0.1154
    109  CE1       16.3210   52.4740   38.9580 C.ar  156  HIS156      0.1986
    110  NE2       17.0160   53.5610   39.1760 N.ar  156  HIS156     -0.2212
    111  N         17.0770   63.0160   33.5830 N.3   167  TRP167     -0.1241
    112  CA        16.9290   61.7580   34.3600 C.3   167  TRP167      0.1605
    113  C         15.9710   61.8600   35.4960 C.2   167  TRP167      0.2264
    114  O         16.0350   62.8010   36.3030 O.2   167  TRP167     -0.2867
    115  CB        18.2810   61.2710   34.8870 C.3   167  TRP167      0.0550
    116  CG        19.1420   60.5360   33.9410 C.ar  167  TRP167      0.0003
    117  CD1       20.0430   61.0220   33.1100 C.ar  167  TRP167      0.0946
    118  CD2       19.2050   59.1040   33.8030 C.ar  167  TRP167      0.0152
    119  NE1       20.7180   60.0170   32.4310 N.ar  167  TRP167     -0.2442
    120  CE2       20.1880   58.8130   32.8470 C.ar  167  TRP167      0.0810
    121  CE3       18.4980   58.0680   34.3950 C.ar  167  TRP167      0.0012
    122  CZ2       20.4990   57.5290   32.4710 C.ar  167  TRP167      0.0191
    123  CZ3       18.8330   56.7550   34.0130 C.ar  167  TRP167      0.0001
    124  CH2       19.8210   56.5090   33.1270 C.ar  167  TRP167      0.0015
    125  N         15.0530   59.3300   38.7470 N.3   169  ARG169     -0.1245
    126  CA        15.5360   58.1970   39.4940 C.3   169  ARG169      0.1563
    127  C         14.7180   58.0780   40.8000 C.2   169  ARG169      0.2260
    128  O         14.0570   59.0430   41.2340 O.2   169  ARG169     -0.2867
    129  CB        16.9750   58.3840   39.8900 C.3   169  ARG169      0.0307
    130  CG        17.9600   58.5780   38.7200 C.3   169  ARG169      0.0489
    131  CD        18.6820   57.3410   38.4450 C.3   169  ARG169      0.2205
    132  NE        19.9190   57.3990   37.7620 N.pl3 169  ARG169     -0.0865
    133  CZ        20.4250   56.2950   37.1780 C.cat 169  ARG169      0.5346
    134  NH1       19.8010   55.1320   37.2690 N.pl3 169  ARG169      0.1354
    135  NH2       21.5730   56.3400   36.6190 N.pl3 169  ARG169      0.1354
    136  N         20.8210   40.0730   36.5600 N.3   229  SER229     -0.1217
    137  CA        22.2520   40.4440   36.6640 C.3   229  SER229      0.1889
    138  C         22.6910   40.6840   38.0860 C.2   229  SER229      0.2288
    139  O         21.8060   40.8150   38.9660 O.2   229  SER229     -0.2866
    140  CB        22.4940   41.7440   35.8350 C.3   229  SER229      0.2089
    141  OG        21.8530   42.8920   36.4280 O.3   229  SER229     -0.2183
    142  N         25.1520   43.1490   40.3060 N.3   231  GLY231     -0.1225
    143  CA        26.0350   44.3370   40.3040 C.3   231  GLY231      0.1811
    144  C         26.8330   44.4950   41.5600 C.2   231  GLY231      0.2280
    145  O         26.5830   43.8580   42.5820 O.2   231  GLY231     -0.2866
    146  N         28.2170   46.9740   44.7760 N.3   233  ARG233     -0.1245
    147  CA        27.7230   48.0580   45.6180 C.3   233  ARG233      0.1563
    148  C         28.7540   48.4480   46.7650 C.2   233  ARG233      0.2260
    149  O         29.8080   47.8540   46.8710 O.2   233  ARG233     -0.2867
    150  CB        26.4080   47.6910   46.2890 C.3   233  ARG233      0.0307
    151  CG        25.2410   47.3250   45.3490 C.3   233  ARG233      0.0489
    152  CD        24.7890   48.5470   44.5940 C.3   233  ARG233      0.2205
    153  NE        23.6000   48.2890   43.7690 N.pl3 233  ARG233     -0.0865
    154  CZ        23.6010   47.8710   42.5060 C.cat 233  ARG233      0.5346
    155  NH1       24.7360   47.6760   41.7980 N.pl3 233  ARG233      0.1354
    156  NH2       22.4060   47.5640   41.9130 N.pl3 233  ARG233      0.1354
    157  N         28.9520   56.6050   44.5560 N.3   239  TRP239     -0.1241
    158  CA        28.0400   57.2070   43.5650 C.3   239  TRP239      0.1605
    159  C         28.3150   58.6610   43.3580 C.2   239  TRP239      0.2264
    160  O         28.1830   59.4710   44.3330 O.2   239  TRP239     -0.2867
    161  CB        26.5620   56.9810   43.9830 C.3   239  TRP239      0.0550
    162  CG        25.5610   57.3720   42.9800 C.ar  239  TRP239      0.0003
    163  CD1       25.0220   58.5840   42.8150 C.ar  239  TRP239      0.0946
    164  CD2       25.0580   56.5550   41.9040 C.ar  239  TRP239      0.0152
    165  NE1       24.1190   58.5670   41.7190 N.ar  239  TRP239     -0.2442
    166  CE2       24.1250   57.3250   41.1690 C.ar  239  TRP239      0.0810
    167  CE3       25.2580   55.2320   41.5450 C.ar  239  TRP239      0.0012
    168  CZ2       23.4340   56.8330   40.0870 C.ar  239  TRP239      0.0191
    169  CZ3       24.5500   54.7340   40.4770 C.ar  239  TRP239      0.0001
    170  CH2       23.6290   55.5370   39.7680 C.ar  239  TRP239      0.0015
    171  N         28.2130   54.8320   39.2230 N.3   244  PHE244     -0.1241
    172  CA        29.1970   54.3110   40.0870 C.3   244  PHE244      0.1605
    173  C         30.6390   54.6560   39.6230 C.2   244  PHE244      0.2264
    174  O         30.9740   54.6960   38.4550 O.2   244  PHE244     -0.2867
    175  CB        29.1290   52.7700   40.1410 C.3   244  PHE244      0.0534
    176  CG        27.8910   52.2070   40.7720 C.ar  244  PHE244     -0.0203
    177  CD1       27.5490   52.5280   42.0950 C.ar  244  PHE244     -0.0042
    178  CD2       27.0230   51.3900   40.0390 C.ar  244  PHE244     -0.0042
    179  CE1       26.3520   52.0180   42.6820 C.ar  244  PHE244     -0.0003
    180  CE2       25.8610   50.8780   40.6300 C.ar  244  PHE244     -0.0003
    181  CZ        25.5600   51.1720   41.9530 C.ar  244  PHE244     -0.0000
@<TRIPOS>BOND
     1    64    65    1
     2    65    68    1
     3    65    66    1
     4    68    69    1
     5    70    69   ar
     6    70    72   ar
     7    66    67    2
     8    69    71   ar
     9    72    74   ar
    10    34    33    2
    11    37    36   ar
    12    37    39   ar
    13    71    73   ar
    14    74    73   ar
    15    74    75    1
    16    35    36    1
    17    35    32    1
    18     8    10   ar
    19     8     6   ar
    20    10    11   ar
    21    33    32    1
    22    36    38   ar
    23     1     2    1
    24    39    40   ar
    25    32    31    1
    26    76    77    1
    27     5     6    1
    28     5     2    1
    29     6     7   ar
    30   119   120   ar
    31   119   117   ar
    32     2     3    1
    33   122   120   ar
    34   122   124   ar
    35    11    12    1
    36    11     9   ar
    37   120   118   ar
    38    77    80    1
    39    77    78    1
    40    40    38   ar
    41    40    42   ar
    42    38    41   ar
    43   117   116   ar
    44   124   123   ar
    45    80    81    1
    46    63    62   ar
    47    63    61   ar
    48    62    60   ar
    49    53    52    2
    50   111   112    1
    51     7     9   ar
    52   118   116   ar
    53   118   121   ar
    54   104   103    2
    55     3     4    2
    56     3    13   am
    57   116   115    1
    58   123   121   ar
    59    78    79    2
    60    42    44   ar
    61    61    59   ar
    62    41    43   ar
    63    52    51    1
    64    60    57   ar
    65    20    19    2
    66   112   115    1
    67   112   113    1
    68    81    82    1
    69   103   102    1
    70    83    82   ar
    71    13    14    1
    72    59    57   ar
    73    59    58   ar
    74    57    55   ar
    75    19    18    1
    76    82    84   ar
    77    44    43   ar
    78    16    15    2
    79   113   114    2
    80    58    56   ar
    81    51    54    1
    82    51    50    1
    83    55    56   ar
    84    55    54    1
    85   140   141    1
    86   140   137    1
    87   105   102    1
    88   105   106    1
    89   102   101    1
    90    23    25   ar
    91    23    22   ar
    92    25    26   ar
    93    14    15    1
    94    18    17    1
    95    18    21    1
    96   136   137    1
    97   135   133    1
    98   137   138    1
    99    26    28   ar
   100    26    24   ar
   101    22    21    1
   102    22    24   ar
   103   133   134    1
   104   133   132    2
   105    91    90   ar
   106   106   107   ar
   107   106   108   ar
   108    85    86    1
   109    28    30   ar
   110    24    27   ar
   111   132   131    1
   112   107   109   ar
   113   138   139    2
   114   108   110   ar
   115    86    87    1
   116    86    89    1
   117    48    47    2
   118   131   130    1
   119   174   173    2
   120    90    89    1
   121    90    92   ar
   122    30    29   ar
   123   130   129    1
   124   125   126    1
   125    27    29   ar
   126   109   110   ar
   127    87    88    2
   128    47    46    1
   129   171   172    1
   130   126   129    1
   131   126   127    1
   132   173   172    1
   133    49    46    1
   134   170   168   ar
   135   170   169   ar
   136   178   180   ar
   137   178   176   ar
   138   172   175    1
   139   168   166   ar
   140   175   176    1
   141    46    45    1
   142   143   142    1
   143   143   144    1
   144   169   167   ar
   145   180   181   ar
   146   176   177   ar
   147   127   128    2
   148   166   165   ar
   149   166   164   ar
   150   167   164   ar
   151   144   145    2
   152   100    98   ar
   153    99    98   ar
   154   165   163   ar
   155   155   154    1
   156   164   162   ar
   157   156   154    1
   158   181   179   ar
   159   177   179   ar
   160    98    97    1
   161   154   153    2
   162   163   162   ar
   163   162   161    1
   164    93    94    1
   165   159   158    1
   166   159   160    2
   167   158   161    1
   168   158   157    1
   169    97    94    1
   170    94    95    1
   171   153   152    1
   172   152   151    1
   173   146   147    1
   174    95    96    2
   175   151   150    1
   176   147   150    1
   177   147   148    1
   178   148   149    2
