@<TRIPOS>MOLECULE
tmp/5ocqB00.pdb
 127 125 0 0 0
SMALL
GASTEIGER

@<TRIPOS>ATOM
      1  N         28.8960   48.4980   31.7170 N.3    37  TYR37      -0.1241
      2  CA        28.5940   49.7230   32.4420 C.3    37  TYR37       0.1605
      3  C         28.9550   49.4760   33.9050 C.2    37  TYR37       0.2264
      4  O         29.4280   48.3630   34.2960 O.2    37  TYR37      -0.2867
      5  CB        27.0800   50.0910   32.2560 C.3    37  TYR37       0.0534
      6  CG        26.0710   48.9080   32.3940 C.ar   37  TYR37      -0.0201
      7  CD1       25.7060   48.3680   33.6410 C.ar   37  TYR37      -0.0009
      8  CD2       25.6210   48.2220   31.2630 C.ar   37  TYR37      -0.0009
      9  CE1       24.8300   47.3230   33.7640 C.ar   37  TYR37       0.0417
     10  CE2       24.7120   47.1580   31.3520 C.ar   37  TYR37       0.0417
     11  CZ        24.3050   46.7130   32.6030 C.ar   37  TYR37       0.1957
     12  OH        23.4760   45.6210   32.7340 O.3    37  TYR37      -0.2866
     13  N         33.0350   54.7830   30.8890 N.3    68  TRP68      -0.1241
     14  CA        32.3270   56.0990   30.7770 C.3    68  TRP68       0.1605
     15  C         32.4790   56.8630   32.1050 C.2    68  TRP68       0.2264
     16  O         32.0750   56.3900   33.1430 O.2    68  TRP68      -0.2867
     17  CB        30.8690   55.8710   30.4650 C.3    68  TRP68       0.0550
     18  CG        30.0770   57.1810   30.5220 C.ar   68  TRP68       0.0003
     19  CD1       29.1820   57.5300   31.4600 C.ar   68  TRP68       0.0946
     20  CD2       30.1980   58.2610   29.6220 C.ar   68  TRP68       0.0152
     21  NE1       28.6770   58.8040   31.1380 N.ar   68  TRP68      -0.2442
     22  CE2       29.2870   59.2660   30.0390 C.ar   68  TRP68       0.0810
     23  CE3       30.9340   58.4710   28.4790 C.ar   68  TRP68       0.0012
     24  CZ2       29.1280   60.4570   29.2970 C.ar   68  TRP68       0.0191
     25  CZ3       30.7590   59.7020   27.7320 C.ar   68  TRP68       0.0001
     26  CH2       29.8480   60.6360   28.1900 C.ar   68  TRP68       0.0015
     27  N         18.7310   53.9810   24.7550 N.3   122  ILE122     -0.1245
     28  CA        18.5220   55.3870   24.9750 C.3   122  ILE122      0.1561
     29  C         18.4670   56.1010   23.6250 C.2   122  ILE122      0.2260
     30  O         19.4060   55.9510   22.8640 O.2   122  ILE122     -0.2867
     31  CB        19.6500   55.9870   25.8610 C.3   122  ILE122      0.0252
     32  CG1       19.7470   55.2150   27.2180 C.3   122  ILE122      0.0019
     33  CG2       19.3850   57.4450   26.1200 C.3   122  ILE122      0.0019
     34  CD1       20.9210   55.5760   28.1380 C.3   122  ILE122      0.0001
     35  N         18.5590   59.4880   22.0440 N.3   124  ARG124     -0.1245
     36  CA        18.8620   60.9060   22.2740 C.3   124  ARG124      0.1563
     37  C         18.4150   61.8790   21.1230 C.2   124  ARG124      0.2260
     38  O         18.5360   63.1000   21.2740 O.2   124  ARG124     -0.2867
     39  CB        20.3930   61.0000   22.5250 C.3   124  ARG124      0.0307
     40  CG        20.7760   60.2280   23.8340 C.3   124  ARG124      0.0489
     41  CD        22.0790   60.6080   24.4540 C.3   124  ARG124      0.2205
     42  NE        22.6580   59.5080   25.2470 N.pl3 124  ARG124     -0.0865
     43  CZ        22.6380   59.4250   26.5800 C.cat 124  ARG124      0.5346
     44  NH1       22.0140   60.3150   27.3520 N.pl3 124  ARG124      0.1354
     45  NH2       23.2580   58.3780   27.1350 N.pl3 124  ARG124      0.1354
     46  N         14.2820   57.0300   27.4060 N.3   134  TYR134     -0.1241
     47  CA        14.7550   55.8290   28.1250 C.3   134  TYR134      0.1605
     48  C         13.7400   55.3930   29.0800 C.2   134  TYR134      0.2264
     49  O         13.2570   56.2420   29.8340 O.2   134  TYR134     -0.2867
     50  CB        16.0990   56.0930   28.8160 C.3   134  TYR134      0.0534
     51  CG        16.6440   54.9720   29.6890 C.ar  134  TYR134     -0.0201
     52  CD1       17.0520   53.8050   29.0670 C.ar  134  TYR134     -0.0009
     53  CD2       16.7020   55.0280   31.0830 C.ar  134  TYR134     -0.0009
     54  CE1       17.5420   52.7300   29.8060 C.ar  134  TYR134      0.0417
     55  CE2       17.2160   54.0060   31.8410 C.ar  134  TYR134      0.0417
     56  CZ        17.6180   52.8160   31.1930 C.ar  134  TYR134      0.1957
     57  OH        18.1010   51.7840   31.9870 O.3   134  TYR134     -0.2866
     58  N         14.4590   58.7230   31.2350 N.3   158  ILE158     -0.1245
     59  CA        14.9180   60.0580   30.7920 C.3   158  ILE158      0.1561
     60  C         13.7110   60.6240   30.0130 C.2   158  ILE158      0.2260
     61  O         13.1830   59.9970   29.1010 O.2   158  ILE158     -0.2867
     62  CB        16.1570   59.9750   29.9080 C.3   158  ILE158      0.0252
     63  CG1       17.3620   59.3500   30.6070 C.3   158  ILE158      0.0019
     64  CG2       16.5130   61.3470   29.3250 C.3   158  ILE158      0.0019
     65  CD1       18.4830   58.9640   29.6920 C.3   158  ILE158      0.0001
     66  N         17.0770   63.0160   33.5830 N.3   167  TRP167     -0.1241
     67  CA        16.9290   61.7580   34.3600 C.3   167  TRP167      0.1605
     68  C         15.9710   61.8600   35.4960 C.2   167  TRP167      0.2264
     69  O         16.0350   62.8010   36.3030 O.2   167  TRP167     -0.2867
     70  CB        18.2810   61.2710   34.8870 C.3   167  TRP167      0.0550
     71  CG        19.1420   60.5360   33.9410 C.ar  167  TRP167      0.0003
     72  CD1       20.0430   61.0220   33.1100 C.ar  167  TRP167      0.0946
     73  CD2       19.2050   59.1040   33.8030 C.ar  167  TRP167      0.0152
     74  NE1       20.7180   60.0170   32.4310 N.ar  167  TRP167     -0.2442
     75  CE2       20.1880   58.8130   32.8470 C.ar  167  TRP167      0.0810
     76  CE3       18.4980   58.0680   34.3950 C.ar  167  TRP167      0.0012
     77  CZ2       20.4990   57.5290   32.4710 C.ar  167  TRP167      0.0191
     78  CZ3       18.8330   56.7550   34.0130 C.ar  167  TRP167      0.0001
     79  CH2       19.8210   56.5090   33.1270 C.ar  167  TRP167      0.0015
     80  N         15.0530   59.3300   38.7470 N.3   169  ARG169     -0.1245
     81  CA        15.5360   58.1970   39.4940 C.3   169  ARG169      0.1563
     82  C         14.7180   58.0780   40.8000 C.2   169  ARG169      0.2260
     83  O         14.0570   59.0430   41.2340 O.2   169  ARG169     -0.2867
     84  CB        16.9750   58.3840   39.8900 C.3   169  ARG169      0.0307
     85  CG        17.9600   58.5780   38.7200 C.3   169  ARG169      0.0489
     86  CD        18.6820   57.3410   38.4450 C.3   169  ARG169      0.2205
     87  NE        19.9190   57.3990   37.7620 N.pl3 169  ARG169     -0.0865
     88  CZ        20.4250   56.2950   37.1780 C.cat 169  ARG169      0.5346
     89  NH1       19.8010   55.1320   37.2690 N.pl3 169  ARG169      0.1354
     90  NH2       21.5730   56.3400   36.6190 N.pl3 169  ARG169      0.1354
     91  N         28.9520   56.6050   44.5560 N.3   239  TRP239     -0.1241
     92  CA        28.0400   57.2070   43.5650 C.3   239  TRP239      0.1605
     93  C         28.3150   58.6610   43.3580 C.2   239  TRP239      0.2264
     94  O         28.1830   59.4710   44.3330 O.2   239  TRP239     -0.2867
     95  CB        26.5620   56.9810   43.9830 C.3   239  TRP239      0.0550
     96  CG        25.5610   57.3720   42.9800 C.ar  239  TRP239      0.0003
     97  CD1       25.0220   58.5840   42.8150 C.ar  239  TRP239      0.0946
     98  CD2       25.0580   56.5550   41.9040 C.ar  239  TRP239      0.0152
     99  NE1       24.1190   58.5670   41.7190 N.ar  239  TRP239     -0.2442
    100  CE2       24.1250   57.3250   41.1690 C.ar  239  TRP239      0.0810
    101  CE3       25.2580   55.2320   41.5450 C.ar  239  TRP239      0.0012
    102  CZ2       23.4340   56.8330   40.0870 C.ar  239  TRP239      0.0191
    103  CZ3       24.5500   54.7340   40.4770 C.ar  239  TRP239      0.0001
    104  CH2       23.6290   55.5370   39.7680 C.ar  239  TRP239      0.0015
    105  N         27.8690   61.8800   40.1840 N.3   241  CYS241     -0.1221
    106  CA        27.4350   62.2100   38.8470 C.3   241  CYS241      0.1808
    107  C         26.5960   61.1120   38.1040 C.2   241  CYS241      0.2601
    108  O         26.8720   60.8650   36.9290 O.2   241  CYS241     -0.2717
    109  CB        28.5000   62.7250   37.9140 C.3   241  CYS241      0.0970
    110  SG        29.3880   64.2630   38.5960 S.3   241  CYS241     -0.0800
    111  N         25.6760   60.5420   38.8090 N.am  242  ASN242     -0.1960
    112  CA        24.6600   59.6640   38.1920 C.3   242  ASN242      0.1819
    113  C         25.2160   58.2920   37.7680 C.2   242  ASN242      0.2621
    114  O         24.6330   57.6550   36.8820 O.2   242  ASN242     -0.2715
    115  CB        24.0180   60.3580   36.9520 C.3   242  ASN242      0.1195
    116  CG        22.6110   59.7990   36.6120 C.2   242  ASN242      0.2630
    117  OD1       22.2550   59.6790   35.3510 O.2   242  ASN242     -0.2716
    118  ND2       21.9200   59.4110   37.6120 N.am  242  ASN242     -0.0877
    119  N         26.3160   57.8730   38.4060 N.am  243  GLN243     -0.1977
    120  CA        26.9230   56.5750   38.0740 C.3   243  GLN243      0.1601
    121  C         27.7770   56.0870   39.2680 C.2   243  GLN243      0.2287
    122  O         28.1560   56.8430   40.1540 O.2   243  GLN243     -0.2864
    123  CB        27.7870   56.5950   36.8270 C.3   243  GLN243      0.0394
    124  CG        29.0790   57.4070   37.0220 C.3   243  GLN243      0.0908
    125  CD        29.9580   57.3880   35.8230 C.2   243  GLN243      0.2608
    126  OE1       29.6280   58.0230   34.7960 O.2   243  GLN243     -0.2717
    127  NE2       31.0520   56.7250   35.9150 N.am  243  GLN243     -0.0878
@<TRIPOS>BOND
     1    37    38    2
     2    37    36    1
     3    35    36    1
     4    36    39    1
     5    39    40    1
     6    30    29    2
     7    29    28    1
     8    40    41    1
     9    41    42    1
    10    27    28    1
    11    28    31    1
    12    42    43    2
    13    31    33    1
    14    31    32    1
    15    43    45    1
    16    43    44    1
    17    32    34    1
    18    46    47    1
    19    25    26   ar
    20    25    23   ar
    21    47    50    1
    22    47    48    1
    23    26    24   ar
    24    23    20   ar
    25    50    51    1
    26    52    51   ar
    27    52    54   ar
    28    48    49    2
    29    61    60    2
    30    24    22   ar
    31    64    62    1
    32    20    22   ar
    33    20    18   ar
    34    51    53   ar
    35    65    63    1
    36    54    56   ar
    37    62    63    1
    38    62    59    1
    39    60    59    1
    40    22    21   ar
    41    17    18    1
    42    17    14    1
    43    18    19   ar
    44    14    13    1
    45    14    15    1
    46    59    58    1
    47    53    55   ar
    48    21    19   ar
    49    56    55   ar
    50    56    57    1
    51     8    10   ar
    52     8     6   ar
    53    10    11   ar
    54     1     2    1
    55    15    16    2
    56     5     6    1
    57     5     2    1
    58     6     7   ar
    59    74    75   ar
    60    74    72   ar
    61     2     3    1
    62    77    75   ar
    63    77    79   ar
    64    11    12    1
    65    11     9   ar
    66    75    73   ar
    67    72    71   ar
    68    79    78   ar
    69    66    67    1
    70     7     9   ar
    71    73    71   ar
    72    73    76   ar
    73     3     4    2
    74    71    70    1
    75    78    76   ar
    76    67    70    1
    77    67    68    1
    78   126   125    2
    79   117   116    2
    80    68    69    2
    81   125   127   am
    82   125   124    1
    83   116   115    1
    84   116   118   am
    85    90    88    1
    86   123   124    1
    87   123   120    1
    88   114   113    2
    89   108   107    2
    90   115   112    1
    91    88    89    1
    92    88    87    2
    93    87    86    1
    94   113   112    1
    95   113   119   am
    96   109   110    1
    97   109   106    1
    98   120   119    1
    99   120   121    1
   100   107   111   am
   101   107   106    1
   102   112   111    1
   103    86    85    1
   104    85    84    1
   105    80    81    1
   106   106   105    1
   107   121   122    2
   108    81    84    1
   109    81    82    1
   110   104   102   ar
   111   104   103   ar
   112   102   100   ar
   113   103   101   ar
   114    82    83    2
   115   100    99   ar
   116   100    98   ar
   117   101    98   ar
   118    99    97   ar
   119    98    96   ar
   120    97    96   ar
   121    96    95    1
   122    93    92    1
   123    93    94    2
   124    92    95    1
   125    92    91    1
