@<TRIPOS>MOLECULE
tmp/5ocqB01.pdb
 105 103 0 0 0
SMALL
GASTEIGER

@<TRIPOS>ATOM
      1  N         26.7520   44.9060   26.4370 N.3    35  GLU35      -0.1245
      2  CA        27.5380   46.0970   26.6460 C.3    35  GLU35       0.1567
      3  C         27.8710   46.2640   28.1360 C.2    35  GLU35       0.2260
      4  O         27.1060   45.8220   29.0010 O.2    35  GLU35      -0.2867
      5  CB        26.7860   47.3370   26.1080 C.3    35  GLU35       0.0388
      6  CG        25.6740   47.9310   26.9240 C.3    35  GLU35       0.1160
      7  CD        24.3250   47.1830   27.0210 C.2    35  GLU35       0.3649
      8  OE1       24.1390   46.0230   26.4640 O.co2  35  GLU35      -0.2457
      9  OE2       23.4230   47.7330   27.7670 O.co2  35  GLU35      -0.2457
     10  N         28.8960   48.4980   31.7170 N.3    37  TYR37      -0.1227
     11  CA        28.5940   49.7230   32.4420 C.3    37  TYR37       0.1736
     12  C         28.9550   49.4760   33.9050 C.2    37  TYR37       0.2596
     13  O         29.4280   48.3630   34.2960 O.2    37  TYR37      -0.2718
     14  CB        27.0800   50.0910   32.2560 C.3    37  TYR37       0.0548
     15  CG        26.0710   48.9080   32.3940 C.ar   37  TYR37      -0.0200
     16  CD1       25.7060   48.3680   33.6410 C.ar   37  TYR37      -0.0009
     17  CD2       25.6210   48.2220   31.2630 C.ar   37  TYR37      -0.0009
     18  CE1       24.8300   47.3230   33.7640 C.ar   37  TYR37       0.0417
     19  CE2       24.7120   47.1580   31.3520 C.ar   37  TYR37       0.0417
     20  CZ        24.3050   46.7130   32.6030 C.ar   37  TYR37       0.1957
     21  OH        23.4760   45.6210   32.7340 O.3    37  TYR37      -0.2866
     22  N         28.7080   50.4640   34.7500 N.am   38  GLY38      -0.1957
     23  CA        29.1150   50.2680   36.1530 C.3    38  GLY38       0.1869
     24  C         30.6390   50.1960   36.2800 C.2    38  GLY38       0.2309
     25  O         31.3590   50.7210   35.4200 O.2    38  GLY38      -0.2863
     26  N         15.2180   43.0200   36.2070 N.3   117  TRP117     -0.1241
     27  CA        14.8480   44.3600   35.6970 C.3   117  TRP117      0.1605
     28  C         14.7340   44.3550   34.2260 C.2   117  TRP117      0.2264
     29  O         15.0160   43.3300   33.5700 O.2   117  TRP117     -0.2867
     30  CB        15.8890   45.3990   36.1640 C.3   117  TRP117      0.0550
     31  CG        17.3430   45.1470   35.7260 C.ar  117  TRP117      0.0003
     32  CD1       18.1720   44.0910   36.1270 C.ar  117  TRP117      0.0946
     33  CD2       18.1750   46.0110   34.9130 C.ar  117  TRP117      0.0152
     34  NE1       19.4280   44.2440   35.5950 N.ar  117  TRP117     -0.2442
     35  CE2       19.4690   45.3760   34.7930 C.ar  117  TRP117      0.0810
     36  CE3       17.9660   47.2070   34.2510 C.ar  117  TRP117      0.0012
     37  CZ2       20.5090   45.9570   34.1150 C.ar  117  TRP117      0.0191
     38  CZ3       19.0190   47.7790   33.5040 C.ar  117  TRP117      0.0001
     39  CH2       20.2960   47.1130   33.4600 C.ar  117  TRP117      0.0015
     40  N         15.0270   47.0750   30.5100 N.3   119  TYR119     -0.1241
     41  CA        15.4840   48.4200   30.0700 C.3   119  TYR119      0.1605
     42  C         15.5590   48.5500   28.5920 C.2   119  TYR119      0.2264
     43  O         15.7360   47.5430   27.8510 O.2   119  TYR119     -0.2867
     44  CB        16.8180   48.8090   30.7120 C.3   119  TYR119      0.0534
     45  CG        18.0740   48.1010   30.1380 C.ar  119  TYR119     -0.0201
     46  CD1       18.2550   46.7650   30.3740 C.ar  119  TYR119     -0.0009
     47  CD2       19.0820   48.8000   29.4420 C.ar  119  TYR119     -0.0009
     48  CE1       19.4120   46.0920   29.9630 C.ar  119  TYR119      0.0417
     49  CE2       20.2470   48.1290   28.9530 C.ar  119  TYR119      0.0417
     50  CZ        20.3770   46.7670   29.2100 C.ar  119  TYR119      0.1957
     51  OH        21.5780   46.1750   28.7490 O.3   119  TYR119     -0.2866
     52  N         18.7310   53.9810   24.7550 N.3   122  ILE122     -0.1245
     53  CA        18.5220   55.3870   24.9750 C.3   122  ILE122      0.1561
     54  C         18.4670   56.1010   23.6250 C.2   122  ILE122      0.2260
     55  O         19.4060   55.9510   22.8640 O.2   122  ILE122     -0.2867
     56  CB        19.6500   55.9870   25.8610 C.3   122  ILE122      0.0252
     57  CG1       19.7470   55.2150   27.2180 C.3   122  ILE122      0.0019
     58  CG2       19.3850   57.4450   26.1200 C.3   122  ILE122      0.0019
     59  CD1       20.9210   55.5760   28.1380 C.3   122  ILE122      0.0001
     60  N         14.2820   57.0300   27.4060 N.3   134  TYR134     -0.1241
     61  CA        14.7550   55.8290   28.1250 C.3   134  TYR134      0.1605
     62  C         13.7400   55.3930   29.0800 C.2   134  TYR134      0.2264
     63  O         13.2570   56.2420   29.8340 O.2   134  TYR134     -0.2867
     64  CB        16.0990   56.0930   28.8160 C.3   134  TYR134      0.0534
     65  CG        16.6440   54.9720   29.6890 C.ar  134  TYR134     -0.0201
     66  CD1       17.0520   53.8050   29.0670 C.ar  134  TYR134     -0.0009
     67  CD2       16.7020   55.0280   31.0830 C.ar  134  TYR134     -0.0009
     68  CE1       17.5420   52.7300   29.8060 C.ar  134  TYR134      0.0417
     69  CE2       17.2160   54.0060   31.8410 C.ar  134  TYR134      0.0417
     70  CZ        17.6180   52.8160   31.1930 C.ar  134  TYR134      0.1957
     71  OH        18.1010   51.7840   31.9870 O.3   134  TYR134     -0.2866
     72  N         13.0980   52.1510   32.1160 N.3   136  GLU136     -0.1245
     73  CA        13.5950   51.0610   32.9220 C.3   136  GLU136      0.1567
     74  C         12.6740   50.7140   34.0440 C.2   136  GLU136      0.2260
     75  O         12.3020   51.6060   34.8560 O.2   136  GLU136     -0.2867
     76  CB        15.0480   51.3830   33.4160 C.3   136  GLU136      0.0388
     77  CG        15.6070   50.3670   34.4270 C.3   136  GLU136      0.1160
     78  CD        16.9030   50.7160   35.0990 C.2   136  GLU136      0.3649
     79  OE1       17.5800   51.6140   34.6230 O.co2 136  GLU136     -0.2457
     80  OE2       17.2600   50.0300   36.0840 O.co2 136  GLU136     -0.2457
     81  N         17.0770   63.0160   33.5830 N.3   167  TRP167     -0.1241
     82  CA        16.9290   61.7580   34.3600 C.3   167  TRP167      0.1605
     83  C         15.9710   61.8600   35.4960 C.2   167  TRP167      0.2264
     84  O         16.0350   62.8010   36.3030 O.2   167  TRP167     -0.2867
     85  CB        18.2810   61.2710   34.8870 C.3   167  TRP167      0.0550
     86  CG        19.1420   60.5360   33.9410 C.ar  167  TRP167      0.0003
     87  CD1       20.0430   61.0220   33.1100 C.ar  167  TRP167      0.0946
     88  CD2       19.2050   59.1040   33.8030 C.ar  167  TRP167      0.0152
     89  NE1       20.7180   60.0170   32.4310 N.ar  167  TRP167     -0.2442
     90  CE2       20.1880   58.8130   32.8470 C.ar  167  TRP167      0.0810
     91  CE3       18.4980   58.0680   34.3950 C.ar  167  TRP167      0.0012
     92  CZ2       20.4990   57.5290   32.4710 C.ar  167  TRP167      0.0191
     93  CZ3       18.8330   56.7550   34.0130 C.ar  167  TRP167      0.0001
     94  CH2       19.8210   56.5090   33.1270 C.ar  167  TRP167      0.0015
     95  N         15.0530   59.3300   38.7470 N.3   169  ARG169     -0.1245
     96  CA        15.5360   58.1970   39.4940 C.3   169  ARG169      0.1563
     97  C         14.7180   58.0780   40.8000 C.2   169  ARG169      0.2260
     98  O         14.0570   59.0430   41.2340 O.2   169  ARG169     -0.2867
     99  CB        16.9750   58.3840   39.8900 C.3   169  ARG169      0.0307
    100  CG        17.9600   58.5780   38.7200 C.3   169  ARG169      0.0489
    101  CD        18.6820   57.3410   38.4450 C.3   169  ARG169      0.2205
    102  NE        19.9190   57.3990   37.7620 N.pl3 169  ARG169     -0.0865
    103  CZ        20.4250   56.2950   37.1780 C.cat 169  ARG169      0.5346
    104  NH1       19.8010   55.1320   37.2690 N.pl3 169  ARG169      0.1354
    105  NH2       21.5730   56.3400   36.6190 N.pl3 169  ARG169      0.1354
@<TRIPOS>BOND
     1    55    54    2
     2    54    53    1
     3    52    53    1
     4    53    56    1
     5    56    58    1
     6    56    57    1
     7     5     2    1
     8     5     6    1
     9     1     2    1
    10     8     7   ar
    11     2     3    1
    12     6     7    1
    13     7     9   ar
    14    57    59    1
    15    60    61    1
    16    43    42    2
    17    61    64    1
    18    61    62    1
    19     3     4    2
    20    42    41    1
    21    51    50    1
    22    64    65    1
    23    49    50   ar
    24    49    47   ar
    25    66    65   ar
    26    66    68   ar
    27    62    63    2
    28    50    48   ar
    29    47    45   ar
    30    65    67   ar
    31    68    70   ar
    32    48    46   ar
    33    41    40    1
    34    41    44    1
    35    45    46   ar
    36    45    44    1
    37    67    69   ar
    38    70    69   ar
    39    70    71    1
    40    17    19   ar
    41    17    15   ar
    42    19    20   ar
    43    10    11    1
    44    72    73    1
    45    14    15    1
    46    14    11    1
    47    15    16   ar
    48    89    90   ar
    49    89    87   ar
    50    11    12    1
    51    92    90   ar
    52    92    94   ar
    53    20    21    1
    54    20    18   ar
    55    90    88   ar
    56    73    76    1
    57    73    74    1
    58    87    86   ar
    59    94    93   ar
    60    76    77    1
    61    39    38   ar
    62    39    37   ar
    63    38    36   ar
    64    29    28    2
    65    81    82    1
    66    16    18   ar
    67    88    86   ar
    68    88    91   ar
    69    12    13    2
    70    12    22   am
    71    86    85    1
    72    93    91   ar
    73    74    75    2
    74    37    35   ar
    75    28    27    1
    76    36    33   ar
    77    82    85    1
    78    82    83    1
    79    77    78    1
    80    79    78   ar
    81    22    23    1
    82    35    33   ar
    83    35    34   ar
    84    33    31   ar
    85    78    80   ar
    86    25    24    2
    87    83    84    2
    88    34    32   ar
    89    27    30    1
    90    27    26    1
    91    31    32   ar
    92    31    30    1
    93    23    24    1
    94   105   103    1
    95   103   104    1
    96   103   102    2
    97   102   101    1
    98   101   100    1
    99   100    99    1
   100    95    96    1
   101    96    99    1
   102    96    97    1
   103    97    98    2
