@<TRIPOS>MOLECULE
tmp/5ocsD00.pdb
 85 80 0 0 0
SMALL
GASTEIGER

@<TRIPOS>ATOM
      1  N         36.2130    5.5660    4.5160 N.3    23  PRO23      -0.2116
      2  CA        35.7370    4.1950    4.6900 C.3    23  PRO23       0.1372
      3  C         36.3680    3.3650    3.5930 C.2    23  PRO23       0.2244
      4  O         36.3030    3.7620    2.3760 O.2    23  PRO23      -0.2868
      5  CB        34.2220    4.3120    4.5030 C.3    23  PRO23       0.0268
      6  CG        34.0420    5.5390    3.6540 C.3    23  PRO23       0.0207
      7  CD        35.1670    6.4630    3.9860 C.3    23  PRO23       0.0892
      8  N         25.6750    5.7620    2.2510 N.3   178  HIS178     -0.1241
      9  CA        26.4490    5.6000    1.0320 C.3   178  HIS178      0.1621
     10  C         25.5640    5.7930   -0.1970 C.2   178  HIS178      0.2264
     11  O         24.8270    4.9010   -0.5550 O.2   178  HIS178     -0.2867
     12  CB        27.1120    4.2280    1.0070 C.3   178  HIS178      0.0745
     13  CG        28.2800    4.1220    0.0690 C.ar  178  HIS178      0.0817
     14  ND1       28.5480    5.0470   -0.9200 N.ar  178  HIS178     -0.2268
     15  CD2       29.2610    3.1910   -0.0210 C.ar  178  HIS178      0.1154
     16  CE1       29.6360    4.6880   -1.5780 C.ar  178  HIS178      0.1986
     17  NE2       30.0930    3.5700   -1.0440 N.ar  178  HIS178     -0.2212
     18  N         27.0650    6.7330   -3.2790 N.3   180  ALA180     -0.1231
     19  CA        28.0520    6.8740   -4.3420 C.3   180  ALA180      0.1694
     20  C         28.5700    5.5090   -4.8260 C.2   180  ALA180      0.2592
     21  O         27.9760    4.4830   -4.5460 O.2   180  ALA180     -0.2718
     22  CB        29.1770    7.7640   -3.8480 C.3   180  ALA180      0.0304
     23  N         29.6520    5.5470   -5.6030 N.am  181  HIS181     -0.1976
     24  CA        30.3820    4.3570   -6.1020 C.3   181  HIS181      0.1656
     25  C         29.5080    3.3700   -6.8790 C.2   181  HIS181      0.2291
     26  O         29.7620    2.1650   -6.9180 O.2   181  HIS181     -0.2864
     27  CB        31.1770    3.6400   -4.9860 C.3   181  HIS181      0.0771
     28  CG        32.3730    2.8860   -5.5110 C.ar  181  HIS181      0.0820
     29  ND1       33.5380    3.5170   -5.8980 N.ar  181  HIS181     -0.2267
     30  CD2       32.5620    1.5700   -5.7700 C.ar  181  HIS181      0.1154
     31  CE1       34.3980    2.6220   -6.3550 C.ar  181  HIS181      0.1986
     32  NE2       33.8300    1.4310   -6.2890 N.ar  181  HIS181     -0.2212
     33  N         27.2360   10.3160    1.3990 N.3   231  ARG231     -0.1245
     34  CA        28.3450   10.2740    0.4730 C.3   231  ARG231      0.1563
     35  C         27.7710   10.3510   -0.9220 C.2   231  ARG231      0.2260
     36  O         26.8960    9.5650   -1.2390 O.2   231  ARG231     -0.2867
     37  CB        29.0880    8.9380    0.6350 C.3   231  ARG231      0.0307
     38  CG        30.2710    8.7210   -0.2930 C.3   231  ARG231      0.0489
     39  CD        31.4140    9.6830   -0.0290 C.3   231  ARG231      0.2205
     40  NE        32.6750    9.1390   -0.5580 N.pl3 231  ARG231     -0.0865
     41  CZ        33.4770    8.2660    0.0530 C.cat 231  ARG231      0.5346
     42  NH1       33.2530    7.8850    1.2970 N.pl3 231  ARG231      0.1354
     43  NH2       34.5490    7.8250   -0.5910 N.pl3 231  ARG231      0.1354
     44  N         28.6140   10.9510   -5.2560 N.3   233  SER233     -0.1217
     45  CA        29.5710   11.0910   -6.3470 C.3   233  SER233      0.1889
     46  C         29.4000   12.4250   -7.0330 C.2   233  SER233      0.2288
     47  O         28.2890   12.7360   -7.4000 O.2   233  SER233     -0.2866
     48  CB        29.3360   10.0000   -7.3890 C.3   233  SER233      0.2089
     49  OG        30.2440   10.2060   -8.4570 O.3   233  SER233     -0.2183
     50  N         32.6460   12.6530   -3.4780 N.3   265  SER265     -0.1202
     51  CA        33.6840   11.9040   -4.1710 C.3   265  SER265      0.2020
     52  C         34.2000   12.6950   -5.3720 C.2   265  SER265      0.2619
     53  O         33.6460   13.7300   -5.7110 O.2   265  SER265     -0.2717
     54  CB        33.1830   10.5200   -4.5550 C.3   265  SER265      0.2103
     55  OG        33.2030    9.6980   -3.3570 O.3   265  SER265     -0.2182
     56  N         35.2850   12.2450   -6.0000 N.am  266  THR266     -0.1938
     57  CA        36.0050   13.1330   -6.9230 C.3   266  THR266      0.2028
     58  C         35.3490   13.2590   -8.2720 C.2   266  THR266      0.2643
     59  O         35.8290   14.0210   -9.0870 O.2   266  THR266     -0.2714
     60  CB        37.4510   12.6640   -7.2140 C.3   266  THR266      0.1808
     61  OG1       37.4120   11.4140   -7.9100 O.3   266  THR266     -0.2208
     62  CG2       38.2560   12.5050   -5.9180 C.3   266  THR266      0.0379
     63  N         34.3370   12.4560   -8.5540 N.am  267  GLY267     -0.1939
     64  CA        33.7460   12.3970   -9.8820 C.3   267  GLY267      0.2014
     65  C         34.6950   11.8660  -10.9470 C.2   267  GLY267      0.2639
     66  O         34.4800   12.0890  -12.1450 O.2   267  GLY267     -0.2714
     67  N         35.7660   11.1810  -10.5490 N.am  268  GLY268     -0.1954
     68  CA        36.7310   10.6500  -11.5260 C.3   268  GLY268      0.1869
     69  C         37.8300   11.5890  -11.9650 C.2   268  GLY268      0.2309
     70  O         38.6270   11.2100  -12.8170 O.2   268  GLY268     -0.2863
     71  N         36.7830   13.8320   -0.7600 N.3   300  VAL300     -0.1245
     72  CA        37.7630   12.7690   -1.0210 C.3   300  VAL300      0.1561
     73  C         38.9840   13.4250   -1.5960 C.2   300  VAL300      0.2260
     74  O         38.8890   14.1730   -2.6130 O.2   300  VAL300     -0.2867
     75  CB        37.2440   11.7550   -2.0230 C.3   300  VAL300      0.0252
     76  CG1       38.3600   10.7760   -2.4020 C.3   300  VAL300      0.0019
     77  CG2       36.0740   10.9910   -1.4330 C.3   300  VAL300      0.0019
     78  N         42.4940   12.5190   -3.1130 N.3   302  LEU302     -0.1245
     79  CA        43.4030   11.4980   -3.6600 C.3   302  LEU302      0.1561
     80  C         44.7980   12.0710   -3.6400 C.2   302  LEU302      0.2260
     81  O         45.3740   12.3580   -4.6740 O.2   302  LEU302     -0.2867
     82  CB        42.9680   11.0780   -5.0790 C.3   302  LEU302      0.0270
     83  CG        41.5560   10.5140   -5.1730 C.3   302  LEU302      0.0019
     84  CD1       41.2910   10.1870   -6.6490 C.3   302  LEU302      0.0001
     85  CD2       41.2940    9.2970   -4.3020 C.3   302  LEU302      0.0001
@<TRIPOS>BOND
     1    70    69    2
     2    66    65    2
     3    69    68    1
     4    68    67    1
     5    65    67   am
     6    65    64    1
     7    64    63    1
     8    59    58    2
     9    63    58   am
    10    49    48    1
    11    58    57    1
    12    61    60    1
    13    47    46    2
    14    48    45    1
    15    60    57    1
    16    60    62    1
    17    46    45    1
    18    57    56    1
    19    26    25    2
    20    25    24    1
    21    84    83    1
    22    31    32   ar
    23    31    29   ar
    24    45    44    1
    25    32    30   ar
    26    24    23    1
    27    24    27    1
    28    56    52   am
    29    29    28   ar
    30    30    28   ar
    31    53    52    2
    32    23    20   am
    33    28    27    1
    34    52    51    1
    35    83    82    1
    36    83    85    1
    37    82    79    1
    38    20    21    2
    39    20    19    1
    40    81    80    2
    41    54    51    1
    42    54    55    1
    43    19    22    1
    44    19    18    1
    45    51    50    1
    46    79    80    1
    47    79    78    1
    48    74    73    2
    49    76    75    1
    50    75    77    1
    51    75    72    1
    52    73    72    1
    53    16    17   ar
    54    16    14   ar
    55    36    35    2
    56    17    15   ar
    57    72    71    1
    58    35    34    1
    59    14    13   ar
    60    43    41    1
    61    40    39    1
    62    40    41    2
    63    11    10    2
    64    38    39    1
    65    38    37    1
    66    10     9    1
    67    15    13   ar
    68    41    42    1
    69    13    12    1
    70    34    37    1
    71    34    33    1
    72    12     9    1
    73     9     8    1
    74     4     3    2
    75     3     2    1
    76     6     7    1
    77     6     5    1
    78     7     1    1
    79     5     2    1
    80     1     2    1
