@<TRIPOS>MOLECULE
tmp/5ocsC00.pdb
 223 216 0 0 0
SMALL
GASTEIGER

@<TRIPOS>ATOM
      1  N         23.8950  -43.0990  -17.0660 N.3    22  ALA22      -0.1231
      2  CA        24.4970  -42.9630  -18.3810 C.3    22  ALA22       0.1679
      3  C         23.4210  -42.8460  -19.4730 C.2    22  ALA22       0.2434
      4  O         22.3060  -43.4040  -19.3210 O.2    22  ALA22      -0.2733
      5  CB        25.3800  -44.1790  -18.6470 C.3    22  ALA22       0.0304
      6  N         23.7450  -42.1580  -20.5940 N.am   23  PRO23      -0.2718
      7  CA        22.7860  -42.0640  -21.6800 C.3    23  PRO23       0.1535
      8  C         22.4160  -43.4510  -22.2240 C.2    23  PRO23       0.2598
      9  O         23.3050  -44.3260  -22.4150 O.2    23  PRO23      -0.2715
     10  CB        23.5160  -41.2140  -22.7280 C.3    23  PRO23       0.0310
     11  CG        24.9720  -41.4950  -22.4710 C.3    23  PRO23       0.0237
     12  CD        25.0600  -41.5710  -20.9500 C.3    23  PRO23       0.0939
     13  N         21.1200  -43.6730  -22.3940 N.am   24  MET24      -0.1964
     14  CA        20.6290  -44.9890  -22.8730 C.3    24  MET24       0.1736
     15  C         19.5040  -44.8340  -23.8660 C.2    24  MET24       0.2617
     16  O         18.3780  -44.5900  -23.4880 O.2    24  MET24      -0.2715
     17  CB        20.1790  -45.9260  -21.7480 C.3    24  MET24       0.0427
     18  CG        21.2990  -46.4150  -20.8900 C.3    24  MET24       0.0599
     19  SD        20.7190  -47.4430  -19.5000 S.3    24  MET24      -0.1393
     20  CE        20.1110  -46.1620  -18.3800 C.3    24  MET24       0.0692
     21  N         19.8320  -44.9870  -25.1430 N.am   25  CYS25      -0.1954
     22  CA        18.8350  -45.0190  -26.2150 C.3    25  CYS25       0.1843
     23  C         17.7150  -45.9800  -25.9260 C.2    25  CYS25       0.2625
     24  O         17.9490  -47.1440  -25.5600 O.2    25  CYS25      -0.2714
     25  CB        19.4680  -45.4590  -27.5220 C.3    25  CYS25       0.0997
     26  SG        20.4240  -44.1500  -28.3340 S.3    25  CYS25      -0.0797
     27  N         16.5010  -45.4750  -26.1070 N.am   26  GLN26      -0.1963
     28  CA        15.2810  -46.2490  -25.9570 C.3    26  GLN26       0.1733
     29  C         14.6300  -46.6390  -27.2670 C.2    26  GLN26       0.2616
     30  O         13.7260  -47.4810  -27.2870 O.2    26  GLN26      -0.2715
     31  CB        14.2920  -45.4360  -25.1110 C.3    26  GLN26       0.0408
     32  CG        14.8360  -45.0350  -23.7520 C.3    26  GLN26       0.0908
     33  CD        15.1400  -46.2890  -22.9230 C.2    26  GLN26       0.2608
     34  OE1       14.2290  -47.0400  -22.6110 O.2    26  GLN26      -0.2717
     35  NE2       16.4140  -46.5880  -22.7190 N.am   26  GLN26      -0.0878
     36  N         15.0520  -46.0330  -28.3760 N.am   27  TYR27      -0.1974
     37  CA        14.5220  -46.3080  -29.6970 C.3    27  TYR27       0.1639
     38  C         12.9660  -46.3050  -29.6940 C.2    27  TYR27       0.2290
     39  O         12.3240  -47.1250  -30.3370 O.2    27  TYR27      -0.2864
     40  CB        15.0720  -47.6250  -30.2650 C.3    27  TYR27       0.0560
     41  CG        16.5400  -47.8020  -30.0320 C.ar   27  TYR27      -0.0198
     42  CD1       16.9950  -48.4110  -28.8790 C.ar   27  TYR27      -0.0009
     43  CD2       17.4600  -47.3850  -30.9780 C.ar   27  TYR27      -0.0009
     44  CE1       18.3340  -48.5700  -28.6440 C.ar   27  TYR27       0.0417
     45  CE2       18.8180  -47.5230  -30.7550 C.ar   27  TYR27       0.0417
     46  CZ        19.2390  -48.0820  -29.5740 C.ar   27  TYR27       0.1957
     47  OH        20.5930  -48.2770  -29.3560 O.3    27  TYR27      -0.2866
     48  N         21.2390  -40.4840  -26.4170 N.3    57  ALA57      -0.1245
     49  CA        21.6510  -39.9160  -27.7270 C.3    57  ALA57       0.1562
     50  C         20.4620  -39.2840  -28.4130 C.2    57  ALA57       0.2260
     51  O         19.5440  -39.9310  -28.8440 O.2    57  ALA57      -0.2867
     52  CB        22.3110  -40.9520  -28.6130 C.3    57  ALA57       0.0290
     53  N         20.5430  -42.6280  -35.1000 N.3    66  ILE66      -0.1245
     54  CA        20.9890  -44.0430  -35.2460 C.3    66  ILE66       0.1561
     55  C         19.9420  -44.8690  -36.0010 C.2    66  ILE66       0.2260
     56  O         20.2780  -45.5720  -36.9410 O.2    66  ILE66      -0.2867
     57  CB        21.3330  -44.6860  -33.8840 C.3    66  ILE66       0.0252
     58  CG1       22.3710  -43.8510  -33.1460 C.3    66  ILE66       0.0019
     59  CG2       21.8700  -46.1170  -34.1030 C.3    66  ILE66       0.0019
     60  CD1       22.4070  -44.0940  -31.6620 C.3    66  ILE66       0.0001
     61  N         22.5560  -35.8270  -24.0140 N.3   100  GLN100     -0.1245
     62  CA        23.6160  -36.1910  -24.9310 C.3   100  GLN100      0.1566
     63  C         23.1390  -35.8160  -26.3250 C.2   100  GLN100      0.2260
     64  O         22.1230  -36.3260  -26.7980 O.2   100  GLN100     -0.2867
     65  CB        23.9440  -37.6920  -24.8390 C.3   100  GLN100      0.0367
     66  CG        25.1400  -38.0750  -25.7040 C.3   100  GLN100      0.0905
     67  CD        25.3710  -39.5500  -25.7380 C.2   100  GLN100      0.2608
     68  OE1       24.5490  -40.3130  -26.2900 O.2   100  GLN100     -0.2717
     69  NE2       26.5090  -39.9730  -25.2090 N.am  100  GLN100     -0.0878
     70  N         17.9510  -52.3710  -31.8350 N.3   113  PRO113     -0.2116
     71  CA        18.6320  -53.5850  -31.4360 C.3   113  PRO113      0.1372
     72  C         17.7590  -54.7880  -31.3870 C.2   113  PRO113      0.2244
     73  O         18.2230  -55.8580  -31.7390 O.2   113  PRO113     -0.2868
     74  CB        19.1340  -53.2630  -30.0470 C.3   113  PRO113      0.0268
     75  CG        19.4240  -51.7650  -30.1480 C.3   113  PRO113      0.0207
     76  CD        18.2460  -51.2730  -30.9060 C.3   113  PRO113      0.0892
     77  N         28.2870  -36.1450  -27.9700 N.3   178  HIS178     -0.1241
     78  CA        28.6000  -37.5650  -28.1810 C.3   178  HIS178      0.1621
     79  C         29.7700  -37.6560  -29.1360 C.2   178  HIS178      0.2264
     80  O         29.6210  -37.4600  -30.3380 O.2   178  HIS178     -0.2867
     81  CB        27.3780  -38.2970  -28.7320 C.3   178  HIS178      0.0745
     82  CG        27.4230  -39.7860  -28.5650 C.ar  178  HIS178      0.0817
     83  ND1       28.5780  -40.4680  -28.3050 N.ar  178  HIS178     -0.2268
     84  CD2       26.4460  -40.7250  -28.6440 C.ar  178  HIS178      0.1154
     85  CE1       28.3230  -41.7570  -28.1980 C.ar  178  HIS178      0.1986
     86  NE2       27.0250  -41.9400  -28.3850 N.ar  178  HIS178     -0.2212
     87  N         31.6250  -44.2320  -29.4500 N.3   181  HIS181     -0.1241
     88  CA        30.7970  -45.3540  -29.9480 C.3   181  HIS181      0.1621
     89  C         30.6680  -45.4830  -31.4490 C.2   181  HIS181      0.2264
     90  O         29.6890  -45.9670  -31.9740 O.2   181  HIS181     -0.2867
     91  CB        29.4410  -45.3890  -29.2200 C.3   181  HIS181      0.0745
     92  CG        29.5970  -45.5410  -27.7480 C.ar  181  HIS181      0.0817
     93  ND1       28.5590  -45.3870  -26.8650 N.ar  181  HIS181     -0.2268
     94  CD2       30.6870  -45.8690  -26.9990 C.ar  181  HIS181      0.1154
     95  CE1       29.0000  -45.5890  -25.6320 C.ar  181  HIS181      0.1986
     96  NE2       30.2900  -45.8900  -25.6880 N.ar  181  HIS181     -0.2212
     97  N         30.2640  -43.2670  -33.7410 N.3   183  TYR183     -0.1241
     98  CA        29.3300  -42.3320  -34.3780 C.3   183  TYR183      0.1605
     99  C         30.1300  -41.2040  -35.0350 C.2   183  TYR183      0.2264
    100  O         31.3390  -41.3450  -35.2370 O.2   183  TYR183     -0.2867
    101  CB        28.2480  -41.8800  -33.3640 C.3   183  TYR183      0.0534
    102  CG        27.4010  -43.0430  -32.9190 C.ar  183  TYR183     -0.0201
    103  CD1       26.7640  -43.8610  -33.8600 C.ar  183  TYR183     -0.0009
    104  CD2       27.2410  -43.3340  -31.5670 C.ar  183  TYR183     -0.0009
    105  CE1       26.0150  -44.9470  -33.4670 C.ar  183  TYR183      0.0417
    106  CE2       26.4850  -44.4050  -31.1600 C.ar  183  TYR183      0.0417
    107  CZ        25.8850  -45.2170  -32.1010 C.ar  183  TYR183      0.1957
    108  OH        25.1760  -46.2900  -31.6670 O.3   183  TYR183     -0.2866
    109  N         31.6140  -37.1040  -24.3660 N.3   231  ARG231     -0.1245
    110  CA        31.8380  -38.5090  -24.1300 C.3   231  ARG231      0.1563
    111  C         32.7740  -38.9900  -25.2490 C.2   231  ARG231      0.2260
    112  O         32.5430  -38.7140  -26.4340 O.2   231  ARG231     -0.2867
    113  CB        30.5160  -39.2730  -24.1530 C.3   231  ARG231      0.0307
    114  CG        30.6530  -40.6910  -23.6360 C.3   231  ARG231      0.0489
    115  CD        29.3400  -41.4420  -23.4150 C.3   231  ARG231      0.2205
    116  NE        29.4140  -42.3590  -22.2630 N.pl3 231  ARG231     -0.0865
    117  CZ        28.6280  -43.4350  -22.0540 C.cat 231  ARG231      0.5346
    118  NH1       27.7350  -43.8070  -22.9500 N.pl3 231  ARG231      0.1354
    119  NH2       28.7460  -44.1750  -20.9320 N.pl3 231  ARG231      0.1354
    120  N         34.2400  -43.8290  -22.2630 N.3   265  SER265     -0.1217
    121  CA        33.7890  -45.1590  -22.6900 C.3   265  SER265      0.1889
    122  C         34.8690  -45.7190  -23.6790 C.2   265  SER265      0.2288
    123  O         36.0260  -45.2590  -23.7080 O.2   265  SER265     -0.2866
    124  CB        32.3900  -45.0270  -23.3630 C.3   265  SER265      0.2089
    125  OG        31.9290  -46.3340  -23.7410 O.3   265  SER265     -0.2183
    126  N         36.1130  -52.8770  -16.7450 N.3   281  TYR281     -0.1227
    127  CA        37.0920  -53.0040  -17.8110 C.3   281  TYR281      0.1736
    128  C         37.5340  -51.7100  -18.4680 C.2   281  TYR281      0.2595
    129  O         38.5860  -51.6970  -19.1350 O.2   281  TYR281     -0.2718
    130  CB        36.5950  -53.9510  -18.8930 C.3   281  TYR281      0.0548
    131  CG        35.4870  -53.4670  -19.8410 C.ar  281  TYR281     -0.0200
    132  CD1       34.1560  -53.3560  -19.4320 C.ar  281  TYR281     -0.0009
    133  CD2       35.7710  -53.2310  -21.1640 C.ar  281  TYR281     -0.0009
    134  CE1       33.1620  -52.9730  -20.3320 C.ar  281  TYR281      0.0417
    135  CE2       34.8020  -52.8480  -22.0510 C.ar  281  TYR281      0.0417
    136  CZ        33.5020  -52.7230  -21.6290 C.ar  281  TYR281      0.1957
    137  OH        32.5380  -52.3380  -22.5330 O.3   281  TYR281     -0.2866
    138  N         36.7350  -50.6490  -18.3360 N.am  282  GLN282     -0.1979
    139  CA        37.0730  -49.3560  -18.9340 C.3   282  GLN282      0.1601
    140  C         37.5660  -48.3390  -17.9080 C.2   282  GLN282      0.2287
    141  O         37.9130  -47.1690  -18.2680 O.2   282  GLN282     -0.2864
    142  CB        35.8940  -48.8010  -19.7730 C.3   282  GLN282      0.0394
    143  CG        35.2760  -49.7860  -20.7470 C.3   282  GLN282      0.0908
    144  CD        34.0480  -49.2330  -21.4940 C.2   282  GLN282      0.2608
    145  OE1       33.0990  -48.6440  -20.8930 O.2   282  GLN282     -0.2717
    146  NE2       34.0330  -49.4400  -22.7670 N.am  282  GLN282     -0.0878
    147  N         32.6600  -45.6350  -16.6970 N.3   300  VAL300     -0.1231
    148  CA        31.5130  -46.4720  -16.9870 C.3   300  VAL300      0.1692
    149  C         31.9790  -47.8600  -17.4300 C.2   300  VAL300      0.2593
    150  O         33.1000  -47.9840  -17.9670 O.2   300  VAL300     -0.2718
    151  CB        30.6580  -45.8100  -18.0860 C.3   300  VAL300      0.0266
    152  CG1       31.3440  -45.7980  -19.4480 C.3   300  VAL300      0.0020
    153  CG2       29.2670  -46.4220  -18.1980 C.3   300  VAL300      0.0020
    154  N         31.1110  -48.8660  -17.2710 N.am  301  GLY301     -0.1942
    155  CA        31.2730  -50.1820  -17.9210 C.3   301  GLY301      0.2014
    156  C         31.2760  -51.3480  -16.9530 C.2   301  GLY301      0.2639
    157  O         32.2800  -51.6420  -16.3190 O.2   301  GLY301     -0.2714
    158  N         30.1290  -51.9740  -16.7840 N.am  302  LEU302     -0.1963
    159  CA        29.9790  -53.1480  -15.9260 C.3   302  LEU302      0.1728
    160  C         30.3450  -52.7770  -14.4850 C.2   302  LEU302      0.2616
    161  O         31.0080  -53.5260  -13.7770 O.2   302  LEU302     -0.2715
    162  CB        30.7710  -54.3590  -16.4930 C.3   302  LEU302      0.0311
    163  CG        30.2130  -54.9590  -17.7830 C.3   302  LEU302      0.0022
    164  CD1       31.1870  -55.9580  -18.4030 C.3   302  LEU302      0.0001
    165  CD2       28.8980  -55.7150  -17.5540 C.3   302  LEU302      0.0001
    166  N         29.8820  -51.5980  -14.0840 N.am  303  ILE303     -0.1963
    167  CA        29.8810  -51.1800  -12.6940 C.3   303  ILE303      0.1727
    168  C         28.4710  -51.4410  -12.1980 C.2   303  ILE303      0.2616
    169  O         27.5480  -50.7550  -12.6260 O.2   303  ILE303     -0.2715
    170  CB        30.2880  -49.7140  -12.5410 C.3   303  ILE303      0.0290
    171  CG1       31.6940  -49.5420  -13.1280 C.3   303  ILE303      0.0022
    172  CG2       30.2730  -49.3050  -11.0560 C.3   303  ILE303      0.0023
    173  CD1       32.1000  -48.1010  -13.3540 C.3   303  ILE303      0.0001
    174  N         28.3250  -52.4750  -11.3580 N.am  304  THR304     -0.1951
    175  CA        27.0360  -52.9980  -10.9210 C.3   304  THR304      0.1897
    176  C         26.7990  -53.0820   -9.4080 C.2   304  THR304      0.2313
    177  O         25.6500  -53.2550   -8.9890 O.2   304  THR304     -0.2863
    178  CB        26.8050  -54.4080  -11.4630 C.3   304  THR304      0.1794
    179  OG1       27.8950  -55.2330  -11.0380 O.3   304  THR304     -0.2208
    180  CG2       26.7790  -54.3890  -12.9890 C.3   304  THR304      0.0378
    181  N         29.3170  -43.6160  -13.8060 N.3   322  SER322     -0.1202
    182  CA        28.1720  -43.7110  -14.7410 C.3   322  SER322      0.2020
    183  C         27.6840  -45.1480  -14.7850 C.2   322  SER322      0.2619
    184  O         28.5160  -46.0800  -14.8730 O.2   322  SER322     -0.2717
    185  CB        28.6010  -43.3010  -16.1410 C.3   322  SER322      0.2103
    186  OG        28.8840  -41.9170  -16.2170 O.3   322  SER322     -0.2182
    187  N         26.3720  -45.3460  -14.7000 N.am  323  ILE323     -0.1965
    188  CA        25.7680  -46.6660  -14.6880 C.3   323  ILE323      0.1727
    189  C         24.6360  -46.6820  -15.7200 C.2   323  ILE323      0.2616
    190  O         23.8180  -45.7670  -15.7470 O.2   323  ILE323     -0.2715
    191  CB        25.1940  -46.9440  -13.3260 C.3   323  ILE323      0.0290
    192  CG1       26.2990  -46.9210  -12.2740 C.3   323  ILE323      0.0022
    193  CG2       24.5090  -48.2990  -13.2900 C.3   323  ILE323      0.0023
    194  CD1       25.7580  -46.7780  -10.8670 C.3   323  ILE323      0.0001
    195  N         24.5930  -47.7070  -16.5440 N.am  324  ALA324     -0.1963
    196  CA        23.5260  -47.8920  -17.5220 C.3   324  ALA324      0.1728
    197  C         22.7180  -49.1430  -17.2300 C.2   324  ALA324      0.2616
    198  O         21.6640  -49.0990  -16.6230 O.2   324  ALA324     -0.2715
    199  CB        24.1100  -47.8970  -18.9320 C.3   324  ALA324      0.0334
    200  N         23.2120  -50.2930  -17.6240 N.am  325  ARG325     -0.1963
    201  CA        22.4110  -51.4950  -17.4670 C.3   325  ARG325      0.1729
    202  C         21.9760  -51.7680  -16.0310 C.2   325  ARG325      0.2616
    203  O         20.8360  -52.2230  -15.8270 O.2   325  ARG325     -0.2715
    204  CB        23.1440  -52.6960  -18.0180 C.3   325  ARG325      0.0348
    205  CG        23.1600  -52.7010  -19.5380 C.3   325  ARG325      0.0492
    206  CD        24.1010  -53.7360  -20.1240 C.3   325  ARG325      0.2205
    207  NE        25.4830  -53.3360  -19.9060 N.pl3 325  ARG325     -0.0865
    208  CZ        26.5410  -53.9650  -20.4120 C.cat 325  ARG325      0.5346
    209  NH1       26.3710  -55.0430  -21.1620 N.pl3 325  ARG325      0.1354
    210  NH2       27.7710  -53.5010  -20.1860 N.pl3 325  ARG325      0.1354
    211  N         22.8530  -51.5730  -15.0450 N.am  326  ALA326     -0.1977
    212  CA        22.4340  -51.7740  -13.6440 C.3   326  ALA326      0.1597
    213  C         21.2710  -50.8590  -13.2150 C.2   326  ALA326      0.2287
    214  O         20.4810  -51.2580  -12.3420 O.2   326  ALA326     -0.2864
    215  CB        23.5770  -51.6730  -12.6780 C.3   326  ALA326      0.0319
    216  N         18.7930  -49.9180  -15.4230 N.3   328  LEU328     -0.1245
    217  CA        17.6350  -50.5490  -16.0530 C.3   328  LEU328      0.1561
    218  C         17.2080  -51.7530  -15.2260 C.2   328  LEU328      0.2260
    219  O         16.0380  -51.9500  -15.0300 O.2   328  LEU328     -0.2867
    220  CB        17.9590  -50.9540  -17.4910 C.3   328  LEU328      0.0270
    221  CG        18.4050  -49.8320  -18.4070 C.3   328  LEU328      0.0019
    222  CD1       18.5470  -50.3770  -19.8180 C.3   328  LEU328      0.0001
    223  CD2       17.4360  -48.6650  -18.3530 C.3   328  LEU328      0.0001
@<TRIPOS>BOND
     1    56    55    2
     2    55    54    1
     3    54    53    1
     4    54    57    1
     5   100    99    2
     6    99    98    1
     7    98    97    1
     8    98   101    1
     9    59    57    1
    10    57    58    1
    11   103   105   ar
    12   103   102   ar
    13   105   107   ar
    14   101   102    1
    15    58    60    1
    16   102   104   ar
    17   107   108    1
    18   107   106   ar
    19    90    89    2
    20    70    71    1
    21    70    76    1
    22    73    72    2
    23   104   106   ar
    24    89    88    1
    25    71    72    1
    26    71    74    1
    27    43    45   ar
    28    43    41   ar
    29    76    75    1
    30    45    46   ar
    31    80    79    2
    32    39    38    2
    33    40    41    1
    34    40    37    1
    35    75    74    1
    36    41    42   ar
    37    88    87    1
    38    88    91    1
    39    37    38    1
    40    37    36    1
    41    46    47    1
    42    46    44   ar
    43    91    92    1
    44    79    78    1
    45    42    44   ar
    46    51    50    2
    47    81    82    1
    48    81    78    1
    49    84    82   ar
    50    84    86   ar
    51    52    49    1
    52    82    83   ar
    53    50    49    1
    54    86    85   ar
    55    36    29   am
    56    26    25    1
    57    83    85   ar
    58    78    77    1
    59    92    94   ar
    60    92    93   ar
    61    49    48    1
    62    25    22    1
    63    30    29    2
    64    29    28    1
    65    94    96   ar
    66    93    95   ar
    67    64    63    2
    68   112   111    2
    69    63    62    1
    70    68    67    2
    71    22    23    1
    72    22    21    1
    73    27    28    1
    74    27    23   am
    75    28    31    1
    76    23    24    2
    77    67    66    1
    78    67    69   am
    79    66    65    1
    80    96    95   ar
    81   111   110    1
    82    21    15   am
    83    31    32    1
    84    62    65    1
    85    62    61    1
    86   109   110    1
    87   113   110    1
    88   113   114    1
    89    15    16    2
    90    15    14    1
    91    32    33    1
    92   125   124    1
    93   123   122    2
    94   122   121    1
    95   114   115    1
    96   115   116    1
    97   124   121    1
    98   118   117    1
    99    33    35   am
   100    33    34    2
   101    14    13    1
   102    14    17    1
   103   146   144   am
   104    10    11    1
   105    10     7    1
   106   121   120    1
   107   137   136    1
   108    11    12    1
   109     9     8    2
   110    13     8   am
   111   116   117    2
   112     8     7    1
   113   117   119    1
   114   135   136   ar
   115   135   133   ar
   116    17    18    1
   117     7     6    1
   118   136   134   ar
   119   144   145    2
   120   144   143    1
   121   133   131   ar
   122   209   208    1
   123    12     6    1
   124    18    19    1
   125   143   142    1
   126     6     3   am
   127   208   210    1
   128   208   207    2
   129   134   132   ar
   130   206   207    1
   131   206   205    1
   132   131   132   ar
   133   131   130    1
   134   222   221    1
   135   142   139    1
   136   205   204    1
   137    19    20    1
   138     3     4    2
   139     3     2    1
   140   152   151    1
   141   129   128    2
   142   139   138    1
   143   139   140    1
   144   199   196    1
   145   130   127    1
   146     5     2    1
   147   128   138   am
   148   128   127    1
   149   221   223    1
   150   221   220    1
   151   164   163    1
   152     2     1    1
   153   141   140    2
   154   153   151    1
   155   151   148    1
   156   204   201    1
   157   150   149    2
   158   155   154    1
   159   155   156    1
   160   127   126    1
   161   163   165    1
   162   163   162    1
   163   200   201    1
   164   200   197   am
   165   196   197    1
   166   196   195    1
   167   220   217    1
   168   201   202    1
   169   149   154   am
   170   149   148    1
   171   197   198    2
   172   148   147    1
   173   156   158   am
   174   156   157    2
   175   158   159    1
   176   195   189   am
   177   162   159    1
   178   186   185    1
   179   185   182    1
   180   217   216    1
   181   217   218    1
   182   202   203    2
   183   202   211   am
   184   159   160    1
   185   190   189    2
   186   189   188    1
   187   218   219    2
   188   211   212    1
   189   184   183    2
   190   183   182    1
   191   183   187   am
   192   182   181    1
   193   187   188    1
   194   188   191    1
   195   160   166   am
   196   160   161    2
   197   166   167    1
   198   212   213    1
   199   212   215    1
   200   173   171    1
   201   191   193    1
   202   191   192    1
   203   213   214    2
   204   171   170    1
   205   180   178    1
   206   167   170    1
   207   167   168    1
   208   169   168    2
   209   170   172    1
   210   192   194    1
   211   168   174   am
   212   178   179    1
   213   178   175    1
   214   174   175    1
   215   175   176    1
   216   176   177    2
