@<TRIPOS>MOLECULE
tmp/5octE01.pdb
 88 83 0 0 0
SMALL
GASTEIGER

@<TRIPOS>ATOM
      1  N         42.2890   91.9420   38.9040 N.3     9  LYS9       -0.1231
      2  CA        41.2280   92.1230   39.8940 C.3     9  LYS9        0.1693
      3  C         41.7720   91.7930   41.2770 C.2     9  LYS9        0.2592
      4  O         42.0930   90.6490   41.5580 O.2     9  LYS9       -0.2718
      5  CB        40.0480   91.2100   39.5460 C.3     9  LYS9        0.0285
      6  CG        39.2950   91.6370   38.3020 C.3     9  LYS9        0.0035
      7  CD        37.9970   92.4270   38.5730 C.3     9  LYS9        0.0206
      8  CE        36.8590   92.2060   37.5820 C.3     9  LYS9        0.1093
      9  NZ        37.2540   92.1410   36.1440 N.3     9  LYS9       -0.1314
     10  N         41.9320   92.8090   42.1040 N.am   10  LEU10      -0.1966
     11  CA        42.5470   92.6840   43.4100 C.3    10  LEU10       0.1728
     12  C         41.5250   92.9140   44.4790 C.2    10  LEU10       0.2616
     13  O         40.6290   93.7380   44.3200 O.2    10  LEU10      -0.2715
     14  CB        43.6730   93.6990   43.5700 C.3    10  LEU10       0.0311
     15  CG        44.6640   93.8270   42.4290 C.3    10  LEU10       0.0022
     16  CD1       45.7540   94.7810   42.9000 C.3    10  LEU10       0.0001
     17  CD2       45.2570   92.5090   42.0830 C.3    10  LEU10       0.0001
     18  N         41.6350   92.1590   45.5590 N.am   11  VAL11      -0.1977
     19  CA        40.7000   92.2540   46.6820 C.3    11  VAL11       0.1596
     20  C         41.5030   92.4610   47.9650 C.2    11  VAL11       0.2287
     21  O         42.4530   91.7400   48.2530 O.2    11  VAL11      -0.2864
     22  CB        39.8550   90.9750   46.8020 C.3    11  VAL11       0.0276
     23  CG1       38.8000   91.1580   47.8810 C.3    11  VAL11       0.0022
     24  CG2       39.1950   90.6580   45.4440 C.3    11  VAL11       0.0022
     25  N         34.8690   99.9860   45.0970 N.3    43  SER43      -0.1217
     26  CA        35.8400   99.5640   44.1140 C.3    43  SER43       0.1889
     27  C         36.5410  100.7570   43.4910 C.2    43  SER43       0.2288
     28  O         36.0180  101.8670   43.4210 O.2    43  SER43      -0.2866
     29  CB        35.1940   98.6690   43.1020 C.3    43  SER43       0.2089
     30  OG        34.4400   99.4720   42.2560 O.3    43  SER43      -0.2183
     31  N         39.8790  101.9510   40.6150 N.3    45  ARG45      -0.1245
     32  CA        40.7020  101.5900   39.4570 C.3    45  ARG45       0.1563
     33  C         41.8960  102.4940   39.3940 C.2    45  ARG45       0.2260
     34  O         41.8030  103.6810   39.6840 O.2    45  ARG45      -0.2867
     35  CB        39.9510  101.8060   38.1690 C.3    45  ARG45       0.0307
     36  CG        39.0720  100.6810   37.7770 C.3    45  ARG45       0.0489
     37  CD        38.7940  100.7800   36.3000 C.3    45  ARG45       0.2205
     38  NE        38.3140   99.4920   35.8170 N.pl3  45  ARG45      -0.0865
     39  CZ        37.0540   99.2240   35.4780 C.cat  45  ARG45       0.5346
     40  NH1       36.1060  100.1660   35.5490 N.pl3  45  ARG45       0.1354
     41  NH2       36.7490   98.0060   35.0570 N.pl3  45  ARG45       0.1354
     42  N         41.9480   96.8090   39.1770 N.3    57  ASP57      -0.1225
     43  CA        40.6030   96.9630   39.6860 C.3    57  ASP57       0.1805
     44  C         40.6160   96.4190   41.1160 C.2    57  ASP57       0.2598
     45  O         40.8450   95.2310   41.3340 O.2    57  ASP57      -0.2718
     46  CB        39.6420   96.1710   38.8110 C.3    57  ASP57       0.1424
     47  CG        38.2430   96.7790   38.7730 C.2    57  ASP57       0.3668
     48  OD1       37.8860   97.6890   39.5820 O.co2  57  ASP57      -0.2456
     49  OD2       37.4490   96.3040   37.9250 O.co2  57  ASP57      -0.2456
     50  N         40.4230   97.2920   42.0820 N.am   58  ILE58      -0.1966
     51  CA        40.6580   96.9650   43.4830 C.3    58  ILE58       0.1727
     52  C         39.3280   97.0020   44.2160 C.2    58  ILE58       0.2616
     53  O         38.6460   98.0230   44.2220 O.2    58  ILE58      -0.2715
     54  CB        41.6010   97.9530   44.1270 C.3    58  ILE58       0.0290
     55  CG1       42.9650   97.8700   43.4310 C.3    58  ILE58       0.0022
     56  CG2       41.7380   97.7080   45.6310 C.3    58  ILE58       0.0023
     57  CD1       43.7680   99.1250   43.6210 C.3    58  ILE58       0.0001
     58  N         38.9650   95.8810   44.8200 N.am   59  LEU59      -0.1977
     59  CA        37.7940   95.8130   45.6800 C.3    59  LEU59       0.1596
     60  C         38.1890   95.9430   47.1460 C.2    59  LEU59       0.2287
     61  O         38.9350   95.1250   47.6600 O.2    59  LEU59      -0.2864
     62  CB        37.0530   94.5110   45.4380 C.3    59  LEU59       0.0297
     63  CG        35.7210   94.4620   46.2080 C.3    59  LEU59       0.0022
     64  CD1       34.6810   95.3450   45.5080 C.3    59  LEU59       0.0001
     65  CD2       35.2620   93.0250   46.2280 C.3    59  LEU59       0.0001
     66  N         32.7280   88.2910   45.4840 N.3    67  TYR67      -0.1241
     67  CA        33.9900   89.0060   45.3150 C.3    67  TYR67       0.1605
     68  C         35.1950   88.0680   45.4160 C.2    67  TYR67       0.2264
     69  O         36.1110   88.1200   44.6150 O.2    67  TYR67      -0.2867
     70  CB        34.1200   90.2270   46.2370 C.3    67  TYR67       0.0534
     71  CG        34.2870   90.0720   47.7590 C.ar   67  TYR67      -0.0201
     72  CD1       35.4150   89.4300   48.3320 C.ar   67  TYR67      -0.0009
     73  CD2       33.3720   90.6930   48.6330 C.ar   67  TYR67      -0.0009
     74  CE1       35.5710   89.3380   49.7200 C.ar   67  TYR67       0.0417
     75  CE2       33.5290   90.6020   50.0190 C.ar   67  TYR67       0.0417
     76  CZ        34.6090   89.9240   50.5650 C.ar   67  TYR67       0.1957
     77  OH        34.7540   89.8310   51.9350 O.3    67  TYR67      -0.2866
     78  N         35.5160   86.2740   41.9940 N.3    70  THR70      -0.1203
     79  CA        36.0210   87.0330   40.8410 C.3    70  THR70       0.1994
     80  C         37.4550   87.5780   41.0350 C.2    70  THR70       0.2618
     81  O         38.1340   87.8660   40.0620 O.2    70  THR70      -0.2717
     82  CB        35.0770   88.1680   40.3780 C.3    70  THR70       0.1784
     83  OG1       34.9450   89.1400   41.3960 O.3    70  THR70      -0.2211
     84  CG2       33.7000   87.6370   40.0590 C.3    70  THR70       0.0376
     85  N         37.9130   87.7010   42.2790 N.am   71  GLY71      -0.1956
     86  CA        39.2270   88.2450   42.5700 C.3    71  GLY71       0.1869
     87  C         40.3290   87.3320   42.1220 C.2    71  GLY71       0.2309
     88  O         40.2490   86.1140   42.2880 O.2    71  GLY71      -0.2863
@<TRIPOS>BOND
     1    41    39    1
     2    39    40    1
     3    39    38    2
     4    38    37    1
     5     9     8    1
     6    37    36    1
     7     8     7    1
     8    36    35    1
     9    49    47   ar
    10    35    32    1
    11     6     7    1
    12     6     5    1
    13    47    46    1
    14    47    48   ar
    15    46    43    1
    16     1     2    1
    17    42    43    1
    18    33    32    1
    19    33    34    2
    20    32    31    1
    21     5     2    1
    22    43    44    1
    23     2     3    1
    24    84    82    1
    25    81    80    2
    26    82    79    1
    27    82    83    1
    28    79    80    1
    29    79    78    1
    30    80    85   am
    31    44    45    2
    32    44    50   am
    33     3     4    2
    34     3    10   am
    35    50    51    1
    36    17    15    1
    37    10    11    1
    38    87    88    2
    39    87    86    1
    40    30    29    1
    41    85    86    1
    42    15    16    1
    43    15    14    1
    44    29    26    1
    45    11    14    1
    46    11    12    1
    47    28    27    2
    48    55    57    1
    49    55    54    1
    50    51    54    1
    51    51    52    1
    52    27    26    1
    53    26    25    1
    54    54    56    1
    55    52    53    2
    56    52    58   am
    57    13    12    2
    58    12    18   am
    59    69    68    2
    60    58    59    1
    61    67    68    1
    62    67    66    1
    63    67    70    1
    64    62    59    1
    65    62    63    1
    66    24    22    1
    67    64    63    1
    68    18    19    1
    69    59    60    1
    70    63    65    1
    71    70    71    1
    72    19    22    1
    73    19    20    1
    74    22    23    1
    75    60    61    2
    76    71    72   ar
    77    71    73   ar
    78    20    21    2
    79    72    74   ar
    80    73    75   ar
    81    74    76   ar
    82    75    76   ar
    83    76    77    1
