@<TRIPOS>MOLECULE
tmp/5od1A00.pdb
 142 136 0 0 0
SMALL
GASTEIGER

@<TRIPOS>ATOM
      1  N         40.8060   18.2270   10.5500 N.3    28  ARG28      -0.1241
      2  CA        41.1290   18.3360   11.9490 C.3    28  ARG28       0.1606
      3  C         40.2320   19.3650   12.6480 C.2    28  ARG28       0.2264
      4  O         39.6960   19.1160   13.7160 O.2    28  ARG28      -0.2867
      5  CB        42.5900   18.7640   12.1000 C.3    28  ARG28       0.0562
      6  CG        43.0490   18.8640   13.5380 C.2    28  ARG28       0.0159
      7  CD        44.5640   19.1670   13.7360 C.2    28  ARG28       0.1886
      8  NE        45.3260   19.6290   12.5510 N.pl3  28  ARG28      -0.0578
      9  CZ        45.5020   20.8920   12.1500 C.cat  28  ARG28       0.5393
     10  NH1       44.9780   21.9260   12.8100 N.pl3  28  ARG28       0.1358
     11  NH2       46.2100   21.1280   11.0520 N.pl3  28  ARG28       0.1358
     12  N         36.7120   17.9070   12.9050 N.3    31  GLN31      -0.1231
     13  CA        36.6460   16.8960   13.9990 C.3    31  GLN31       0.1698
     14  C         36.5950   17.5380   15.3430 C.2    31  GLN31       0.2592
     15  O         35.8560   17.0880   16.2140 O.2    31  GLN31      -0.2718
     16  CB        37.8330   15.9350   13.9020 C.3    31  GLN31       0.0381
     17  CG        37.7350   14.9870   12.7180 C.3    31  GLN31       0.0905
     18  CD        38.9440   14.0610   12.5610 C.2    31  GLN31       0.2608
     19  OE1       38.9190   13.1230   11.6940 O.2    31  GLN31      -0.2717
     20  NE2       39.9470   14.2600   13.3190 N.am   31  GLN31      -0.0878
     21  N         37.3760   18.5900   15.5460 N.am   32  GLN32      -0.1979
     22  CA        37.3210   19.3280   16.7970 C.3    32  GLN32       0.1601
     23  C         35.9910   20.0210   17.0370 C.2    32  GLN32       0.2287
     24  O         35.5510   20.1660   18.1550 O.2    32  GLN32      -0.2864
     25  CB        38.5090   20.2650   16.8570 C.3    32  GLN32       0.0394
     26  CG        39.8160   19.5010   16.9860 C.3    32  GLN32       0.0908
     27  CD        41.0020   20.4040   16.9380 C.2    32  GLN32       0.2608
     28  OE1       41.3160   20.9790   15.8910 O.2    32  GLN32      -0.2717
     29  NE2       41.6090   20.5830   18.0700 N.am   32  GLN32      -0.0878
     30  N         33.1500   18.7010   15.9530 N.3    34  LEU34      -0.1231
     31  CA        32.2660   17.5780   16.2680 C.3    34  LEU34       0.1693
     32  C         32.3450   17.1760   17.7430 C.2    34  LEU34       0.2592
     33  O         31.3300   16.8410   18.3240 O.2    34  LEU34      -0.2718
     34  CB        32.6430   16.4160   15.3710 C.3    34  LEU34       0.0284
     35  CG        31.7610   15.1860   15.4990 C.3    34  LEU34       0.0019
     36  CD1       30.3380   15.4820   15.1230 C.3    34  LEU34       0.0001
     37  CD2       32.3420   14.0720   14.6150 C.3    34  LEU34       0.0001
     38  N         33.5720   17.1950   18.2750 N.am   35  HIS35      -0.1976
     39  CA        33.8070   16.8220   19.6660 C.3    35  HIS35       0.1656
     40  C         32.7750   17.2680   20.7090 C.2    35  HIS35       0.2291
     41  O         32.0890   16.4470   21.3110 O.2    35  HIS35      -0.2864
     42  CB        35.2560   17.1430   20.0430 C.3    35  HIS35       0.0771
     43  CG        35.5630   16.9830   21.4710 C.ar   35  HIS35       0.0820
     44  ND1       35.9410   15.7850   22.0070 N.ar   35  HIS35      -0.2267
     45  CD2       35.5660   17.8890   22.4810 C.ar   35  HIS35       0.1154
     46  CE1       36.1180   15.9520   23.3130 C.ar   35  HIS35       0.1986
     47  NE2       35.9240   17.2220   23.6150 N.ar   35  HIS35      -0.2212
     48  N         28.9720   16.1410   19.8670 N.3    38  TRP38      -0.1241
     49  CA        28.7100   14.6850   20.1470 C.3    38  TRP38       0.1605
     50  C         28.6690   14.5120   21.6650 C.2    38  TRP38       0.2264
     51  O         27.8260   13.7880   22.1770 O.2    38  TRP38      -0.2867
     52  CB        29.7580   13.8240   19.4830 C.3    38  TRP38       0.0550
     53  CG        29.5370   12.4160   19.9630 C.ar   38  TRP38       0.0003
     54  CD1       30.2300   11.8050   20.9400 C.ar   38  TRP38       0.0946
     55  CD2       28.4560   11.5390   19.6140 C.ar   38  TRP38       0.0152
     56  NE1       29.6860   10.5580   21.1890 N.ar   38  TRP38      -0.2442
     57  CE2       28.6050   10.3690   20.3770 C.ar   38  TRP38       0.0810
     58  CE3       27.3960   11.6400   18.7110 C.ar   38  TRP38       0.0012
     59  CZ2       27.6910    9.3420   20.3150 C.ar   38  TRP38       0.0191
     60  CZ3       26.5120   10.5740   18.5960 C.ar   38  TRP38       0.0001
     61  CH2       26.6560    9.4440   19.4400 C.ar   38  TRP38       0.0015
     62  N         29.2470    4.3040   19.4870 N.3    57  ILE57      -0.1245
     63  CA        30.0060    5.4860   18.9940 C.3    57  ILE57       0.1561
     64  C         30.8380    6.1010   20.1310 C.2    57  ILE57       0.2260
     65  O         32.0470    6.3900   19.9600 O.2    57  ILE57      -0.2867
     66  CB        29.0400    6.4960   18.3790 C.3    57  ILE57       0.0252
     67  CG1       28.4970    5.9540   17.0140 C.3    57  ILE57       0.0019
     68  CG2       29.7990    7.8230   18.0700 C.3    57  ILE57       0.0019
     69  CD1       27.1820    6.5550   16.5580 C.3    57  ILE57       0.0001
     70  N         34.7860    6.8280   20.6250 N.3    61  HIS61      -0.1241
     71  CA        35.2700    8.1930   20.8840 C.3    61  HIS61       0.1621
     72  C         36.2640    8.2280   22.0600 C.2    61  HIS61       0.2264
     73  O         37.3080    8.8880   21.9690 O.2    61  HIS61      -0.2867
     74  CB        34.0450    9.0690   21.1660 C.3    61  HIS61       0.0745
     75  CG        34.3310   10.5150   21.3790 C.ar   61  HIS61       0.0817
     76  ND1       33.5870   11.2880   22.2320 N.ar   61  HIS61      -0.2268
     77  CD2       35.2930   11.3000   20.8640 C.ar   61  HIS61       0.1154
     78  CE1       34.0990   12.5170   22.2030 C.ar   61  HIS61       0.1986
     79  NE2       35.1060   12.5450   21.3590 N.ar   61  HIS61      -0.2212
     80  N         39.5250    6.6630   21.0110 N.3    64  ILE64      -0.1231
     81  CA        40.2580    7.5930   20.1660 C.3    64  ILE64       0.1692
     82  C         41.0400    8.6130   21.0070 C.2    64  ILE64       0.2592
     83  O         42.2360    8.8410   20.7490 O.2    64  ILE64      -0.2718
     84  CB        39.2780    8.3460   19.2140 C.3    64  ILE64       0.0266
     85  CG1       38.7660    7.4280   18.1050 C.3    64  ILE64       0.0019
     86  CG2       39.9530    9.5680   18.5410 C.3    64  ILE64       0.0020
     87  CD1       37.5230    7.8530   17.3980 C.3    64  ILE64       0.0001
     88  N         40.3880    9.1970   22.0350 N.am   65  HIS65      -0.1976
     89  CA        41.1220   10.1760   22.8500 C.3    65  HIS65       0.1656
     90  C         42.2960    9.5160   23.5640 C.2    65  HIS65       0.2291
     91  O         43.4020   10.0730   23.6240 O.2    65  HIS65      -0.2864
     92  CB        40.2040   10.8640   23.8510 C.3    65  HIS65       0.0771
     93  CG        39.4300   11.9740   23.2360 C.ar   65  HIS65       0.0820
     94  ND1       39.8950   13.2760   23.2940 N.ar   65  HIS65      -0.2267
     95  CD2       38.3130   11.9880   22.4920 C.ar   65  HIS65       0.1154
     96  CE1       39.0650   14.0400   22.5970 C.ar   65  HIS65       0.1986
     97  NE2       38.0650   13.3010   22.1550 N.ar   65  HIS65      -0.2212
     98  N         45.0470    8.8350   20.8950 N.3    68  ARG68      -0.1231
     99  CA        45.6820   10.0530   20.3880 C.3    68  ARG68       0.1694
    100  C         46.6590   10.6200   21.4240 C.2    68  ARG68       0.2591
    101  O         47.8000   10.9410   21.1020 O.2    68  ARG68      -0.2718
    102  CB        44.6100   11.0910   20.0270 C.3    68  ARG68       0.0321
    103  CG        45.1870   12.3010   19.3130 C.3    68  ARG68       0.0489
    104  CD        44.1630   13.3770   19.0260 C.3    68  ARG68       0.2205
    105  NE        43.1460   12.9760   18.1140 N.pl3  68  ARG68      -0.0865
    106  CZ        41.8430   12.7980   18.3830 C.cat  68  ARG68       0.5346
    107  NH1       41.2820   12.9310   19.6170 N.pl3  68  ARG68       0.1354
    108  NH2       41.0970   12.4210   17.3860 N.pl3  68  ARG68       0.1354
    109  N         46.2170   10.6730   22.6750 N.am   69  ALA69      -0.1980
    110  CA        47.0590   11.2590   23.7170 C.3    69  ALA69       0.1597
    111  C         48.3480   10.4280   23.9430 C.2    69  ALA69       0.2287
    112  O         49.4080   10.9630   24.2480 O.2    69  ALA69      -0.2864
    113  CB        46.2890   11.4040   25.0060 C.3    69  ALA69       0.0319
    114  N         39.2720    6.2890   14.4130 N.3    80  SER80      -0.1217
    115  CA        38.5590    7.4600   13.8770 C.3    80  SER80       0.1889
    116  C         37.7550    7.0710   12.6480 C.2    80  SER80       0.2288
    117  O         36.5630    7.3540   12.5580 O.2    80  SER80      -0.2866
    118  CB        39.5220    8.5950   13.5270 C.3    80  SER80       0.2089
    119  OG        40.1600    9.0630   14.6870 O.3    80  SER80      -0.2183
    120  N         34.7070    4.8740   13.6860 N.3    83  THR83      -0.1203
    121  CA        33.7520    5.5320   14.5300 C.3    83  THR83       0.1994
    122  C         33.0200    6.6310   13.7450 C.2    83  THR83       0.2617
    123  O         31.8000    6.7680   13.8680 O.2    83  THR83      -0.2717
    124  CB        34.4220    6.0200   15.8310 C.3    83  THR83       0.1784
    125  OG1       35.0230    4.9120   16.5230 O.3    83  THR83      -0.2211
    126  CG2       33.3950    6.7240   16.7390 C.3    83  THR83       0.0376
    127  N         33.7210    7.3620   12.8980 N.am   84  LEU84      -0.1979
    128  CA        33.0000    8.3730   12.1000 C.3    84  LEU84       0.1596
    129  C         32.0450    7.7480   11.0870 C.2    84  LEU84       0.2287
    130  O         30.9330    8.2740   10.8140 O.2    84  LEU84      -0.2864
    131  CB        33.9510    9.3400   11.4510 C.3    84  LEU84       0.0297
    132  CG        34.7210   10.2590   12.3870 C.3    84  LEU84       0.0022
    133  CD1       35.8600   10.9530   11.6540 C.3    84  LEU84       0.0001
    134  CD2       33.7820   11.2480   13.0470 C.3    84  LEU84       0.0001
    135  N         28.9690    6.8540   12.9900 N.3    87  MET87      -0.1245
    136  CA        28.1330    8.0400   13.2980 C.3    87  MET87       0.1570
    137  C         27.3550    8.4970   12.0640 C.2    87  MET87       0.2261
    138  O         26.1530    8.8640   12.1520 O.2    87  MET87      -0.2867
    139  CB        29.0150    9.1460   13.8980 C.3    87  MET87       0.0387
    140  CG        28.2170   10.1840   14.7090 C.3    87  MET87       0.0595
    141  SD        29.1130   11.7030   15.0430 S.3    87  MET87      -0.1393
    142  CE        30.3550   11.1120   16.2220 C.3    87  MET87       0.0692
@<TRIPOS>BOND
     1     1     2    1
     2   130   129    2
     3    11     9    1
     4   129   128    1
     5   131   128    1
     6   131   132    1
     7   133   132    1
     8    19    18    2
     9     2     5    1
    10     2     3    1
    11   137   138    2
    12   137   136    1
    13     5     6    1
    14   128   127    1
    15     9     8    2
    16     9    10    1
    17   132   134    1
    18     8     7    1
    19   117   116    2
    20    18    17    1
    21    18    20   am
    22     3     4    2
    23   116   115    1
    24    17    16    1
    25   127   122   am
    26    12    13    1
    27   135   136    1
    28   136   139    1
    29   118   115    1
    30   118   119    1
    31     6     7    2
    32   120   121    1
    33   122   123    2
    34   122   121    1
    35   115   114    1
    36   139   140    1
    37    16    13    1
    38    13    14    1
    39   121   124    1
    40    37    35    1
    41   140   141    1
    42   141   142    1
    43    36    35    1
    44    14    21   am
    45    14    15    2
    46    34    35    1
    47    34    31    1
    48    21    22    1
    49   124   125    1
    50   124   126    1
    51    28    27    2
    52    30    31    1
    53    31    32    1
    54    69    67    1
    55    22    25    1
    56    22    23    1
    57    25    26    1
    58    27    26    1
    59    27    29   am
    60    67    66    1
    61    23    24    2
    62   108   106    1
    63    87    85    1
    64    32    38   am
    65    32    33    2
    66    68    66    1
    67    85    84    1
    68   105   106    2
    69   105   104    1
    70    38    39    1
    71    66    63    1
    72   106   107    1
    73    86    84    1
    74    60    58   ar
    75    60    61   ar
    76    58    55   ar
    77    63    62    1
    78    63    64    1
    79   104   103    1
    80    84    81    1
    81   103   102    1
    82    61    59   ar
    83    52    53    1
    84    52    49    1
    85    55    53   ar
    86    55    57   ar
    87    39    42    1
    88    39    40    1
    89    48    49    1
    90    65    64    2
    91    53    54   ar
    92   102    99    1
    93    42    43    1
    94    49    50    1
    95    81    82    1
    96    81    80    1
    97    59    57   ar
    98    57    56   ar
    99    99    98    1
   100    99   100    1
   101    70    71    1
   102    40    41    2
   103    83    82    2
   104    77    79   ar
   105    77    75   ar
   106    71    74    1
   107    71    72    1
   108    54    56   ar
   109    82    88   am
   110   101   100    2
   111    74    75    1
   112    79    78   ar
   113    75    76   ar
   114   100   109   am
   115    43    44   ar
   116    43    45   ar
   117    50    51    2
   118    73    72    2
   119    44    46   ar
   120    88    89    1
   121    97    95   ar
   122    97    96   ar
   123    78    76   ar
   124    45    47   ar
   125    95    93   ar
   126    96    94   ar
   127   109   110    1
   128    89    90    1
   129    89    92    1
   130    93    94   ar
   131    93    92    1
   132    46    47   ar
   133    90    91    2
   134   110   111    1
   135   110   113    1
   136   111   112    2
