@<TRIPOS>MOLECULE
tmp/5od2B00.pdb
 135 120 0 0 0
SMALL
GASTEIGER

@<TRIPOS>ATOM
      1  N         19.2700   18.7470   17.3760 N.3    21  ASN21      -0.1240
      2  CA        19.1770   17.6970   18.3780 C.3    21  ASN21       0.1653
      3  C         20.3780   17.5570   19.2430 C.2    21  ASN21       0.2266
      4  O         21.5170   17.3420   18.7490 O.2    21  ASN21      -0.2867
      5  CB        18.7940   16.3380   17.7740 C.3    21  ASN21       0.1155
      6  CG        19.7230   15.8500   16.6510 C.2    21  ASN21       0.2627
      7  OD1       20.2810   16.6340   15.8780 O.2    21  ASN21      -0.2716
      8  ND2       19.7960   14.5430   16.5040 N.am   21  ASN21      -0.0877
      9  N         21.1310   15.6600   23.2520 N.3    23  ASN23      -0.1240
     10  CA        20.6140   14.8610   24.3280 C.3    23  ASN23       0.1653
     11  C         21.7710   14.2500   25.1190 C.2    23  ASN23       0.2266
     12  O         22.9240   14.5010   24.8250 O.2    23  ASN23      -0.2867
     13  CB        19.6120   13.8050   23.8130 C.3    23  ASN23       0.1155
     14  CG        20.1870   12.9710   22.6900 C.2    23  ASN23       0.2627
     15  OD1       20.0440   13.3520   21.5330 O.2    23  ASN23      -0.2716
     16  ND2       20.8130   11.8470   23.0130 N.am   23  ASN23      -0.0877
     17  N         23.4230   10.7550   25.8340 N.3    25  ASP25      -0.1239
     18  CA        23.5300    9.3510   25.4380 C.3    25  ASP25       0.1674
     19  C         24.0320    8.5850   26.6580 C.2    25  ASP25       0.2266
     20  O         25.1680    8.7840   27.0820 O.2    25  ASP25      -0.2867
     21  CB        24.4800    9.1340   24.2720 C.3    25  ASP25       0.1410
     22  CG        23.8310    9.3710   22.8970 C.2    25  ASP25       0.3668
     23  OD1       22.6330    9.7130   22.7380 O.co2  25  ASP25      -0.2456
     24  OD2       24.5900    9.2850   21.9500 O.co2  25  ASP25      -0.2456
     25  N         17.9500    2.5070   15.2110 N.3    79  GLU79      -0.1245
     26  CA        17.4330    3.4540   16.1820 C.3    79  GLU79       0.1567
     27  C         15.9150    3.2750   16.2270 C.2    79  GLU79       0.2260
     28  O         15.2210    3.4680   15.1880 O.2    79  GLU79      -0.2867
     29  CB        17.8610    4.8970   15.8220 C.3    79  GLU79       0.0388
     30  CG        17.3400    5.9750   16.7970 C.3    79  GLU79       0.1160
     31  CD        18.0750    7.3080   16.7260 C.2    79  GLU79       0.3649
     32  OE1       19.0990    7.4350   15.9630 O.co2  79  GLU79      -0.2457
     33  OE2       17.6510    8.2340   17.4750 O.co2  79  GLU79      -0.2457
     34  N         25.0270   13.4380   23.2760 N.3   103  GLY103     -0.1210
     35  CA        24.4120   12.7640   22.1410 C.3   103  GLY103      0.1956
     36  C         23.6370   13.7200   21.2610 C.2   103  GLY103      0.2612
     37  O         23.4370   14.8830   21.6260 O.2   103  GLY103     -0.2717
     38  N         23.2580   13.2060   20.0640 N.am  104  GLY104     -0.1942
     39  CA        22.5390   13.9990   19.0600 C.3   104  GLY104      0.2014
     40  C         23.5180   14.6540   18.1280 C.2   104  GLY104      0.2638
     41  O         24.5700   15.1090   18.5530 O.2   104  GLY104     -0.2714
     42  N         23.1860   14.6420   16.8620 N.am  105  GLN105     -0.1977
     43  CA        24.0370   15.1920   15.8250 C.3   105  GLN105      0.1601
     44  C         24.5260   16.5960   16.1520 C.2   105  GLN105      0.2287
     45  O         25.7180   16.8740   16.1050 O.2   105  GLN105     -0.2864
     46  CB        23.3320   15.2450   14.4480 C.3   105  GLN105      0.0394
     47  CG        23.3860   13.9560   13.6480 C.3   105  GLN105      0.0908
     48  CD        22.5480   12.8350   14.2370 C.2   105  GLN105      0.2608
     49  OE1       21.5250   13.0760   14.8990 O.2   105  GLN105     -0.2717
     50  NE2       22.9590   11.6210   13.9990 N.am  105  GLN105     -0.0878
     51  N         27.0450   16.4650   19.1760 N.3   108  ILE108     -0.1245
     52  CA        28.2840   15.7690   18.8690 C.3   108  ILE108      0.1561
     53  C         29.1350   16.6530   17.9250 C.2   108  ILE108      0.2260
     54  O         30.3000   16.8430   18.1440 O.2   108  ILE108     -0.2867
     55  CB        28.0130   14.3820   18.2580 C.3   108  ILE108      0.0252
     56  CG1       27.4600   13.4310   19.3350 C.3   108  ILE108      0.0019
     57  CG2       29.2730   13.7690   17.6520 C.3   108  ILE108      0.0019
     58  CD1       26.8410   12.1820   18.7590 C.3   108  ILE108      0.0001
     59  N         16.5490   15.2610   27.9160 N.3   167  LYS167     -0.1245
     60  CA        16.2530   14.1300   27.0390 C.3   167  LYS167      0.1561
     61  C         17.4200   13.1140   27.1480 C.2   167  LYS167      0.2260
     62  O         18.5880   13.5070   27.0460 O.2   167  LYS167     -0.2867
     63  CB        16.0920   14.5730   25.5640 C.3   167  LYS167      0.0271
     64  CG        15.9830   13.3900   24.6160 C.3   167  LYS167      0.0035
     65  CD        15.7060   13.8340   23.2070 C.3   167  LYS167      0.0206
     66  CE        15.9600   12.7200   22.2140 C.3   167  LYS167      0.1093
     67  NZ        15.6580   13.1480   20.8180 N.3   167  LYS167     -0.1314
     68  N         18.7590    9.4120   25.6230 N.3   169  ASN169     -0.1240
     69  CA        18.7220    8.2060   24.7890 C.3   169  ASN169      0.1653
     70  C         19.6420    7.1380   25.3510 C.2   169  ASN169      0.2266
     71  O         20.6950    7.4330   25.9470 O.2   169  ASN169     -0.2867
     72  CB        19.0880    8.5220   23.3210 C.3   169  ASN169      0.1155
     73  CG        17.9970    9.2390   22.5970 C.2   169  ASN169      0.2627
     74  OD1       16.8950    9.4930   23.1430 O.2   169  ASN169     -0.2716
     75  ND2       18.2800    9.6370   21.3600 N.am  169  ASN169     -0.0877
     76  N         22.0160    3.9040   24.5790 N.3   171  ILE171     -0.1245
     77  CA        22.8410    3.3610   23.5340 C.3   171  ILE171      0.1561
     78  C         23.4030    2.0200   23.9660 C.2   171  ILE171      0.2260
     79  O         24.0870    1.9320   25.0020 O.2   171  ILE171     -0.2867
     80  CB        24.0480    4.2960   23.2520 C.3   171  ILE171      0.0252
     81  CG1       23.6400    5.7600   23.1350 C.3   171  ILE171      0.0019
     82  CG2       24.7990    3.8120   22.0230 C.3   171  ILE171      0.0019
     83  CD1       22.4990    6.1380   22.2100 C.3   171  ILE171      0.0001
     84  N         25.9580   -0.4360   17.3050 N.3   194  ARG194     -0.1245
     85  CA        25.1510   -0.0100   18.4440 C.3   194  ARG194      0.1563
     86  C         23.6960    0.0740   18.0830 C.2   194  ARG194      0.2260
     87  O         23.3430    0.3480   16.8970 O.2   194  ARG194     -0.2867
     88  CB        25.6430    1.3290   19.0370 C.3   194  ARG194      0.0307
     89  CG        25.1900    2.5820   18.3270 C.3   194  ARG194      0.0489
     90  CD        25.7030    2.7150   16.8810 C.3   194  ARG194      0.2205
     91  NE        25.2210    3.9400   16.2250 N.pl3 194  ARG194     -0.0865
     92  CZ        23.9820    4.1230   15.7620 C.cat 194  ARG194      0.5346
     93  NH1       23.0750    3.1470   15.8570 N.pl3 194  ARG194      0.1354
     94  NH2       23.6370    5.2780   15.1810 N.pl3 194  ARG194      0.1354
     95  N         20.1510    1.9120   19.2920 N.3   196  ILE196     -0.1245
     96  CA        19.7060    3.1010   19.9720 C.3   196  ILE196      0.1561
     97  C         18.2640    3.0350   20.3100 C.2   196  ILE196      0.2260
     98  O         17.4130    2.8530   19.4470 O.2   196  ILE196     -0.2867
     99  CB        19.9930    4.3800   19.1570 C.3   196  ILE196      0.0252
    100  CG1       21.5180    4.5270   18.8960 C.3   196  ILE196      0.0019
    101  CG2       19.4190    5.5900   19.8490 C.3   196  ILE196      0.0019
    102  CD1       21.9370    5.8280   18.2570 C.3   196  ILE196      0.0001
    103  N         14.7570   12.7360   12.4370 N.3   232  GLN232     -0.1245
    104  CA        14.4320   11.4010   12.8590 C.3   232  GLN232      0.1566
    105  C         13.5050   11.2610   14.0810 C.2   232  GLN232      0.2260
    106  O         12.8670   10.2050   14.2610 O.2   232  GLN232     -0.2867
    107  CB        15.6960   10.5290   13.0100 C.3   232  GLN232      0.0367
    108  CG        16.7500   10.9100   14.0640 C.3   232  GLN232      0.0905
    109  CD        17.7540   11.9510   13.6050 C.2   232  GLN232      0.2608
    110  OE1       17.4620   12.7990   12.7640 O.2   232  GLN232     -0.2717
    111  NE2       18.9470   11.9070   14.1790 N.am  232  GLN232     -0.0878
    112  N         19.7580    9.4240    9.1940 N.3   271  ALA271     -0.1245
    113  CA        19.8270    8.5570   10.3590 C.3   271  ALA271      0.1562
    114  C         18.9340    7.3600   10.1360 C.2   271  ALA271      0.2260
    115  O         18.2470    7.2830    9.1410 O.2   271  ALA271     -0.2867
    116  CB        19.4090    9.3270   11.6030 C.3   271  ALA271      0.0290
    117  N         28.8770    4.7850   18.5550 N.3   435  VAL435     -0.1231
    118  CA        27.8580    5.8540   18.4150 C.3   435  VAL435      0.1692
    119  C         28.5560    7.1630   18.0590 C.2   435  VAL435      0.2592
    120  O         29.5370    7.5250   18.6820 O.2   435  VAL435     -0.2718
    121  CB        26.9840    6.0090   19.6950 C.3   435  VAL435      0.0266
    122  CG1       27.8010    6.4490   20.8960 C.3   435  VAL435      0.0020
    123  CG2       25.8080    6.9380   19.4670 C.3   435  VAL435      0.0020
    124  N         28.0140    7.8770   17.0750 N.am  436  GLY436     -0.1957
    125  CA        28.5440    9.1950   16.6750 C.3   436  GLY436      0.1869
    126  C         29.7000    9.1690   15.6950 C.2   436  GLY436      0.2309
    127  O         30.2050   10.2370   15.2860 O.2   436  GLY436     -0.2863
    128  N         28.5850   10.8500   12.5330 N.3   439  ASP439     -0.1239
    129  CA        28.4490   12.3150   12.6740 C.3   439  ASP439      0.1674
    130  C         29.8110   12.9890   12.6030 C.2   439  ASP439      0.2266
    131  O         29.9680   14.0830   12.0340 O.2   439  ASP439     -0.2867
    132  CB        27.8100   12.6870   13.9880 C.3   439  ASP439      0.1410
    133  CG        26.3550   12.2000   14.1350 C.2   439  ASP439      0.3668
    134  OD1       25.7340   11.7090   13.1570 O.co2 439  ASP439     -0.2456
    135  OD2       25.8020   12.4120   15.2620 O.co2 439  ASP439     -0.2456
@<TRIPOS>BOND
     1   115   114    2
     2   112   113    1
     3   114   113    1
     4   113   116    1
     5   131   130    2
     6   103   104    1
     7   128   129    1
     8   130   129    1
     9   129   132    1
    10   110   109    2
    11   104   107    1
    12   104   105    1
    13   107   108    1
    14   134   133   ar
    15   109   108    1
    16   109   111   am
    17    47    48    1
    18    47    46    1
    19   132   133    1
    20    50    48   am
    21   105   106    2
    22   133   135   ar
    23    48    49    2
    24    46    43    1
    25    94    92    1
    26    28    27    2
    27    25    26    1
    28   127   126    2
    29   126   125    1
    30    92    93    1
    31    92    91    2
    32    29    26    1
    33    29    30    1
    34    43    44    1
    35    43    42    1
    36     7     6    2
    37    32    31   ar
    38    45    44    2
    39    26    27    1
    40    91    90    1
    41     8     6   am
    42     6     5    1
    43   125   124    1
    44    31    30    1
    45    31    33   ar
    46    42    40   am
    47    90    89    1
    48    87    86    2
    49   124   119   am
    50    84    85    1
    51     1     2    1
    52    57    55    1
    53     5     2    1
    54    53    54    2
    55    53    52    1
    56   119   118    1
    57   119   120    2
    58    86    85    1
    59    40    41    2
    60    40    39    1
    61   102   100    1
    62    55    52    1
    63    55    56    1
    64    89    88    1
    65     2     3    1
    66   118   117    1
    67   118   121    1
    68    85    88    1
    69     4     3    2
    70    58    56    1
    71    52    51    1
    72   100    99    1
    73    39    38    1
    74    99   101    1
    75    99    96    1
    76    95    96    1
    77    98    97    2
    78   123   121    1
    79   121   122    1
    80    96    97    1
    81    38    36   am
    82    67    66    1
    83    36    37    2
    84    36    35    1
    85    75    73   am
    86    15    14    2
    87    24    22   ar
    88    82    80    1
    89    35    34    1
    90    83    81    1
    91    66    65    1
    92    73    74    2
    93    73    72    1
    94    14    16   am
    95    14    13    1
    96    23    22   ar
    97    22    21    1
    98    81    80    1
    99    65    64    1
   100     9    10    1
   101    80    77    1
   102    72    69    1
   103    77    78    1
   104    77    76    1
   105    13    10    1
   106    78    79    2
   107    21    18    1
   108    10    11    1
   109    64    63    1
   110    69    70    1
   111    69    68    1
   112    12    11    2
   113    70    71    2
   114    18    17    1
   115    18    19    1
   116    63    60    1
   117    19    20    2
   118    60    61    1
   119    60    59    1
   120    62    61    2
