@<TRIPOS>MOLECULE
tmp/5od2B01.pdb
 136 129 0 0 0
SMALL
GASTEIGER

@<TRIPOS>ATOM
      1  N         30.9100   -4.7190   15.0570 N.3   192  SER192     -0.1217
      2  CA        30.7930   -3.8680   16.2290 C.3   192  SER192      0.1889
      3  C         29.8890   -2.7220   15.8070 C.2   192  SER192      0.2288
      4  O         30.1980   -2.0110   14.8700 O.2   192  SER192     -0.2866
      5  CB        32.1880   -3.3130   16.5920 C.3   192  SER192      0.2089
      6  OG        33.0800   -4.3710   16.9040 O.3   192  SER192     -0.2183
      7  N         29.1680    6.7930    3.9380 N.3   345  HIS345     -0.1226
      8  CA        30.1700    6.2180    4.7810 C.3   345  HIS345      0.1752
      9  C         29.7610    4.8120    5.1670 C.2   345  HIS345      0.2597
     10  O         28.6450    4.5820    5.5400 O.2   345  HIS345     -0.2718
     11  CB        30.4440    7.0890    6.0270 C.3   345  HIS345      0.0759
     12  CG        29.2140    7.4700    6.8230 C.ar  345  HIS345      0.0818
     13  ND1       28.5100    8.6430    6.6180 N.ar  345  HIS345     -0.2268
     14  CD2       28.5930    6.8500    7.8570 C.ar  345  HIS345      0.1154
     15  CE1       27.4850    8.7030    7.4500 C.ar  345  HIS345      0.1986
     16  NE2       27.5100    7.6300    8.2140 N.ar  345  HIS345     -0.2212
     17  N         30.6900    3.8670    5.1080 N.am  346  THR346     -0.1939
     18  CA        30.4880    2.5160    5.6300 C.3   346  THR346      0.2028
     19  C         31.6730    2.2040    6.5100 C.2   346  THR346      0.2642
     20  O         32.6080    2.9850    6.6080 O.2   346  THR346     -0.2714
     21  CB        30.4830    1.4500    4.4880 C.3   346  THR346      0.1808
     22  OG1       31.8020    1.3260    3.9280 O.3   346  THR346     -0.2208
     23  CG2       29.5020    1.8040    3.4210 C.3   346  THR346      0.0379
     24  N         31.6850    1.0240    7.0850 N.am  347  ILE347     -0.1977
     25  CA        32.8030    0.5840    7.8800 C.3   347  ILE347      0.1596
     26  C         34.1030    0.4000    7.0780 C.2   347  ILE347      0.2287
     27  O         35.1930    0.4530    7.6760 O.2   347  ILE347     -0.2864
     28  CB        32.5140   -0.7040    8.6980 C.3   347  ILE347      0.0276
     29  CG1       32.3340   -1.9310    7.8210 C.3   347  ILE347      0.0022
     30  CG2       31.3420   -0.5050    9.6480 C.3   347  ILE347      0.0022
     31  CD1       32.4600   -3.2320    8.6290 C.3   347  ILE347      0.0001
     32  N         34.8610    2.5020    4.1160 N.3   349  TYR349     -0.1241
     33  CA        35.2460    3.6790    3.3920 C.3   349  TYR349      0.1605
     34  C         34.3430    4.8500    3.6690 C.2   349  TYR349      0.2264
     35  O         33.2120    4.6900    4.1500 O.2   349  TYR349     -0.2867
     36  CB        35.2170    3.3560    1.8740 C.3   349  TYR349      0.0534
     37  CG        33.8250    3.0160    1.3190 C.ar  349  TYR349     -0.0201
     38  CD1       32.9280    4.0530    0.9870 C.ar  349  TYR349     -0.0009
     39  CD2       33.4180    1.6920    1.1110 C.ar  349  TYR349     -0.0009
     40  CE1       31.6620    3.7830    0.5000 C.ar  349  TYR349      0.0417
     41  CE2       32.1460    1.3940    0.5590 C.ar  349  TYR349      0.0417
     42  CZ        31.2740    2.4480    0.2730 C.ar  349  TYR349      0.1957
     43  OH        30.0100    2.2550   -0.2100 O.3   349  TYR349     -0.2866
     44  N         38.5490   10.6510    7.7980 N.3   373  THR373     -0.1218
     45  CA        38.9400    9.3200    8.2450 C.3   373  THR373      0.1862
     46  C         39.8550    9.3500    9.4990 C.2   373  THR373      0.2287
     47  O         39.6750    8.5440   10.4110 O.2   373  THR373     -0.2866
     48  CB        39.5500    8.5320    7.0620 C.3   373  THR373      0.1770
     49  OG1       38.4850    8.2890    6.0760 O.3   373  THR373     -0.2211
     50  CG2       40.0620    7.2170    7.5140 C.3   373  THR373      0.0375
     51  N         37.5000    9.9640   12.4170 N.3   376  ALA376     -0.1231
     52  CA        36.6640    8.8080   12.7320 C.3   376  ALA376      0.1694
     53  C         37.4950    7.7100   13.4070 C.2   376  ALA376      0.2592
     54  O         37.0430    7.1150   14.3790 O.2   376  ALA376     -0.2718
     55  CB        35.9850    8.2610   11.4690 C.3   376  ALA376      0.0304
     56  N         38.6760    7.4010   12.8770 N.am  377  SER377     -0.1952
     57  CA        39.4730    6.3180   13.4760 C.3   377  SER377      0.1924
     58  C         39.9690    6.6800   14.8430 C.2   377  SER377      0.2314
     59  O         39.9980    5.8140   15.6760 O.2   377  SER377     -0.2863
     60  CB        40.6840    5.8630   12.6310 C.3   377  SER377      0.2116
     61  OG        41.4740    6.9830   12.2930 O.3   377  SER377     -0.2180
     62  N         36.9600    6.0440   17.0020 N.3   380  ALA380     -0.1245
     63  CA        36.7410    4.6070   17.1740 C.3   380  ALA380      0.1562
     64  C         37.7150    4.0020   18.2310 C.2   380  ALA380      0.2260
     65  O         37.3340    3.1410   19.0460 O.2   380  ALA380     -0.2867
     66  CB        36.8680    3.8850   15.8480 C.3   380  ALA380      0.0290
     67  N         38.6230    3.3500    5.1520 N.3   425  SER425     -0.1202
     68  CA        38.6630    3.5500    6.5970 C.3   425  SER425      0.2020
     69  C         39.9890    3.0610    7.1650 C.2   425  SER425      0.2619
     70  O         40.6270    2.1510    6.6100 O.2   425  SER425     -0.2717
     71  CB        37.5070    2.8260    7.2890 C.3   425  SER425      0.2103
     72  OG        37.6160    1.4210    7.1290 O.3   425  SER425     -0.2182
     73  N         40.3400    3.6390    8.2990 N.am  426  ARG426     -0.1965
     74  CA        41.4600    3.2140    9.1020 C.3   426  ARG426      0.1729
     75  C         40.8770    2.4090   10.2750 C.2   426  ARG426      0.2616
     76  O         40.6820    2.9140   11.3800 O.2   426  ARG426     -0.2715
     77  CB        42.2550    4.4150    9.5780 C.3   426  ARG426      0.0348
     78  CG        42.9530    5.1880    8.4730 C.3   426  ARG426      0.0492
     79  CD        43.4290    6.5390    9.0300 C.3   426  ARG426      0.2205
     80  NE        44.1490    7.3780    8.0790 N.pl3 426  ARG426     -0.0865
     81  CZ        45.4630    7.3500    7.8820 C.cat 426  ARG426      0.5346
     82  NH1       46.0030    8.1250    6.9370 N.pl3 426  ARG426      0.1354
     83  NH2       46.2430    6.5010    8.5660 N.pl3 426  ARG426      0.1354
     84  N         40.6230    1.1330    9.9990 N.am  427  TYR427     -0.1960
     85  CA        39.7510    0.3020   10.7940 C.3   427  TYR427      0.1771
     86  C         40.4740   -0.2200   12.0220 C.2   427  TYR427      0.2619
     87  O         41.5650   -0.7470   11.9240 O.2   427  TYR427     -0.2715
     88  CB        39.2180   -0.8850    9.9400 C.3   427  TYR427      0.0574
     89  CG        38.0670   -1.6050   10.6000 C.ar  427  TYR427     -0.0198
     90  CD1       36.7960   -1.0520   10.6150 C.ar  427  TYR427     -0.0009
     91  CD2       38.2640   -2.8340   11.2390 C.ar  427  TYR427     -0.0009
     92  CE1       35.7350   -1.6870   11.2600 C.ar  427  TYR427      0.0417
     93  CE2       37.2090   -3.4900   11.8900 C.ar  427  TYR427      0.0417
     94  CZ        35.9380   -2.9260   11.9030 C.ar  427  TYR427      0.1957
     95  OH        34.8650   -3.5650   12.5600 O.3   427  TYR427     -0.2866
     96  N         39.7850   -0.1590   13.1460 N.am  428  VAL428     -0.1977
     97  CA        40.2370   -0.6000   14.4500 C.3   428  VAL428      0.1596
     98  C         39.3840   -1.8460   14.7620 C.2   428  VAL428      0.2287
     99  O         38.1450   -1.7310   14.8140 O.2   428  VAL428     -0.2864
    100  CB        39.9330    0.5030   15.5000 C.3   428  VAL428      0.0276
    101  CG1       40.2500    0.0650   16.9060 C.3   428  VAL428      0.0022
    102  CG2       40.7290    1.7510   15.1860 C.3   428  VAL428      0.0022
    103  N         36.8230   -1.4360   18.5740 N.3   431  PRO431     -0.2116
    104  CA        36.6160   -0.0340   18.8430 C.3   431  PRO431      0.1372
    105  C         36.0340    0.1590   20.2540 C.2   431  PRO431      0.2244
    106  O         35.2740   -0.6820   20.7360 O.2   431  PRO431     -0.2868
    107  CB        35.6220    0.3960   17.7570 C.3   431  PRO431      0.0268
    108  CG        34.9160   -0.8550   17.3600 C.3   431  PRO431      0.0207
    109  CD        35.8760   -1.9660   17.5730 C.3   431  PRO431      0.0892
    110  N         30.9890    3.0200   18.9770 N.3   434  THR434     -0.1218
    111  CA        30.6220    3.3440   17.6180 C.3   434  THR434      0.1862
    112  C         29.6400    4.4830   17.5180 C.2   434  THR434      0.2287
    113  O         29.5430    5.0990   16.4570 O.2   434  THR434     -0.2866
    114  CB        30.0460    2.1050   16.8750 C.3   434  THR434      0.1770
    115  OG1       28.8740    1.6290   17.5570 O.3   434  THR434     -0.2211
    116  CG2       31.1020    1.0170   16.8970 C.3   434  THR434      0.0375
    117  N         30.1450    7.9610   15.3060 N.3   437  LEU437     -0.1231
    118  CA        31.2530    7.8770   14.3160 C.3   437  LEU437      0.1693
    119  C         30.8580    8.5370   12.9820 C.2   437  LEU437      0.2592
    120  O         31.6460    9.2420   12.3480 O.2   437  LEU437     -0.2718
    121  CB        31.6900    6.4240   14.0750 C.3   437  LEU437      0.0284
    122  CG        32.5550    5.7810   15.1640 C.3   437  LEU437      0.0019
    123  CD1       32.8340    4.3220   14.9020 C.3   437  LEU437      0.0001
    124  CD2       33.8790    6.5060   15.3030 C.3   437  LEU437      0.0001
    125  N         29.6390    8.2760   12.5590 N.am  438  GLY438     -0.1957
    126  CA        29.1550    8.8390   11.3510 C.3   438  GLY438      0.1869
    127  C         29.0640   10.3420   11.4170 C.2   438  GLY438      0.2309
    128  O         29.4430   11.0510   10.4600 O.2   438  GLY438     -0.2863
    129  N         32.5620   11.7130   11.0690 N.3   441  ILE441     -0.1245
    130  CA        33.1060   11.6200    9.7130 C.3   441  ILE441      0.1561
    131  C         32.3850   12.5510    8.7700 C.2   441  ILE441      0.2260
    132  O         33.0110   13.2550    7.9870 O.2   441  ILE441     -0.2867
    133  CB        33.2270   10.1890    9.2180 C.3   441  ILE441      0.0252
    134  CG1       34.4000   10.0960    8.2200 C.3   441  ILE441      0.0019
    135  CG2       31.9450    9.7090    8.5890 C.3   441  ILE441      0.0019
    136  CD1       34.8130    8.6760    7.7910 C.3   441  ILE441      0.0001
@<TRIPOS>BOND
     1    43    42    1
     2    42    40   ar
     3    42    41   ar
     4    40    38   ar
     5    41    39   ar
     6    38    37   ar
     7    39    37   ar
     8    37    36    1
     9    36    33    1
    10    33    34    1
    11    33    32    1
    12    23    21    1
    13    34    35    2
    14    22    21    1
    15     7     8    1
    16    21    18    1
    17     8     9    1
    18     8    11    1
    19    17     9   am
    20    17    18    1
    21    67    68    1
    22     9    10    2
    23    18    19    1
    24    11    12    1
    25    49    48    1
    26    19    20    2
    27    19    24   am
    28    68    69    1
    29    68    71    1
    30    70    69    2
    31    13    12   ar
    32    13    15   ar
    33    12    14   ar
    34    82    81    1
    35    48    50    1
    36    48    45    1
    37    26    27    2
    38    26    25    1
    39    24    25    1
    40    72    71    1
    41    69    73   am
    42    15    16   ar
    43   136   134    1
    44    44    45    1
    45    29    31    1
    46    29    28    1
    47    14    16   ar
    48    25    28    1
    49    81    80    2
    50    81    83    1
    51   132   131    2
    52    80    79    1
    53   134   133    1
    54    45    46    1
    55    73    74    1
    56    78    79    1
    57    78    77    1
    58   135   133    1
    59    28    30    1
    60   131   130    1
    61    74    77    1
    62    74    75    1
    63   133   130    1
    64    46    47    2
    65   130   129    1
    66    88    89    1
    67    88    85    1
    68    84    75   am
    69    84    85    1
    70    75    76    2
    71   128   127    2
    72    89    90   ar
    73    89    91   ar
    74    90    92   ar
    75    85    86    1
    76    91    93   ar
    77    92    94   ar
    78   126   127    1
    79   126   125    1
    80    55    52    1
    81    93    94   ar
    82    94    95    1
    83    87    86    2
    84    86    96   am
    85    61    60    1
    86   120   119    2
    87    51    52    1
    88   125   119   am
    89    60    57    1
    90    52    53    1
    91    56    53   am
    92    56    57    1
    93   119   118    1
    94    96    97    1
    95    53    54    2
    96    57    58    1
    97   121   118    1
    98   121   122    1
    99   118   117    1
   100    97    98    1
   101    97   100    1
   102    98    99    2
   103    58    59    2
   104     4     3    2
   105   123   122    1
   106     1     2    1
   107   122   124    1
   108   102   100    1
   109   100   101    1
   110     3     2    1
   111    66    63    1
   112     2     5    1
   113   113   112    2
   114     5     6    1
   115   114   116    1
   116   114   115    1
   117   114   111    1
   118    62    63    1
   119    63    64    1
   120   108   109    1
   121   108   107    1
   122   112   111    1
   123   109   103    1
   124   111   110    1
   125   107   104    1
   126    64    65    2
   127   103   104    1
   128   104   105    1
   129   105   106    2
