@<TRIPOS>MOLECULE
tmp/5od5B00.pdb
 84 79 0 0 0
SMALL
GASTEIGER

@<TRIPOS>ATOM
      1  N          7.5500   31.4400  -24.8470 N.3    58  ASN58      -0.1225
      2  CA         6.1700   31.3230  -25.2950 C.3    58  ASN58       0.1785
      3  C          5.5580   29.9300  -25.0010 C.2    58  ASN58       0.2597
      4  O          4.3870   29.7090  -25.3350 O.2    58  ASN58      -0.2718
      5  CB         6.1280   31.6160  -26.8150 C.3    58  ASN58       0.1169
      6  CG         6.8790   32.9080  -27.2020 C.2    58  ASN58       0.2627
      7  OD1        7.8110   32.8680  -28.0320 O.2    58  ASN58      -0.2716
      8  ND2        6.4890   34.0540  -26.5940 N.am   58  ASN58      -0.0877
      9  N          6.3110   29.0020  -24.3770 N.am   59  LEU59      -0.1980
     10  CA         6.0160   27.5580  -24.5560 C.3    59  LEU59       0.1596
     11  C          4.5600   27.1730  -24.2010 C.2    59  LEU59       0.2287
     12  O          4.1530   27.2390  -23.0420 O.2    59  LEU59      -0.2864
     13  CB         6.9540   26.6960  -23.7830 C.3    59  LEU59       0.0297
     14  CG         7.1890   25.3180  -24.3100 C.3    59  LEU59       0.0022
     15  CD1        7.8080   25.3250  -25.6930 C.3    59  LEU59       0.0001
     16  CD2        8.1960   24.6240  -23.3800 C.3    59  LEU59       0.0001
     17  N          0.7910   25.1890  -23.6880 N.3    61  LYS61      -0.1245
     18  CA         0.3310   24.2170  -22.6950 C.3    61  LYS61       0.1561
     19  C          0.4780   22.7940  -23.1440 C.2    61  LYS61       0.2260
     20  O          0.6270   21.8970  -22.3140 O.2    61  LYS61      -0.2867
     21  CB        -1.1430   24.5030  -22.3690 C.3    61  LYS61       0.0271
     22  CG        -1.2580   25.8550  -21.6780 C.3    61  LYS61       0.0035
     23  CD        -2.6130   26.0430  -21.0150 C.3    61  LYS61       0.0206
     24  CE        -2.6510   27.3770  -20.2790 C.3    61  LYS61       0.1093
     25  NZ        -3.9490   28.0670  -20.4690 N.3    61  LYS61      -0.1314
     26  N          4.5000   21.0660  -22.9420 N.3    64  GLN64      -0.1245
     27  CA         5.1610   21.1530  -21.6440 C.3    64  GLN64       0.1566
     28  C          6.2180   20.0750  -21.4000 C.2    64  GLN64       0.2260
     29  O          7.0870   20.2310  -20.5150 O.2    64  GLN64      -0.2867
     30  CB         4.0980   21.1760  -20.5210 C.3    64  GLN64       0.0367
     31  CG         3.3520   22.5080  -20.4810 C.3    64  GLN64       0.0905
     32  CD         4.2540   23.7040  -20.2700 C.2    64  GLN64       0.2608
     33  OE1        4.8190   23.8110  -19.2130 O.2    64  GLN64      -0.2717
     34  NE2        4.3240   24.6640  -21.2350 N.am   64  GLN64      -0.0878
     35  N         -3.9740   37.5630  -25.2100 N.3   229  VAL229     -0.1231
     36  CA        -3.8240   36.3690  -24.3640 C.3   229  VAL229      0.1692
     37  C         -2.3260   35.9470  -24.2860 C.2   229  VAL229      0.2591
     38  O         -1.7640   35.7550  -23.2080 O.2   229  VAL229     -0.2718
     39  CB        -4.7080   35.2090  -24.9190 C.3   229  VAL229      0.0266
     40  CG1       -4.5340   33.9180  -24.1050 C.3   229  VAL229      0.0020
     41  CG2       -6.1930   35.6090  -24.9510 C.3   229  VAL229      0.0020
     42  N         -1.6880   35.8640  -25.4460 N.am  230  ILE230     -0.1980
     43  CA        -0.2450   35.6180  -25.5560 C.3   230  ILE230      0.1595
     44  C          0.5170   36.6690  -24.7490 C.2   230  ILE230      0.2287
     45  O          1.3630   36.3200  -23.9490 O.2   230  ILE230     -0.2864
     46  CB         0.2230   35.6280  -27.0410 C.3   230  ILE230      0.0276
     47  CG1       -0.4820   34.5270  -27.8200 C.3   230  ILE230      0.0022
     48  CG2        1.7460   35.4910  -27.1810 C.3   230  ILE230      0.0022
     49  CD1       -0.5040   33.1710  -27.1110 C.3   230  ILE230      0.0001
     50  N         -9.2790   42.0820  -23.8210 N.3   236  ARG236     -0.1245
     51  CA        -9.5770   40.8100  -24.4910 C.3   236  ARG236      0.1563
     52  C        -10.4900   41.0930  -25.6220 C.2   236  ARG236      0.2260
     53  O        -11.2490   42.0690  -25.5820 O.2   236  ARG236     -0.2867
     54  CB       -10.2520   39.7550  -23.5470 C.3   236  ARG236      0.0307
     55  CG        -9.4010   39.1810  -22.3920 C.3   236  ARG236      0.0489
     56  CD        -8.1780   38.4340  -22.8950 C.3   236  ARG236      0.2205
     57  NE        -6.9460   38.7190  -22.1380 N.pl3 236  ARG236     -0.0865
     58  CZ        -6.2570   37.8430  -21.4000 C.cat 236  ARG236      0.5346
     59  NH1       -6.6120   36.5660  -21.3160 N.pl3 236  ARG236      0.1354
     60  NH2       -5.1520   38.2320  -20.7770 N.pl3 236  ARG236      0.1354
     61  N         -7.9760   29.2140  -29.9090 N.3   261  ASP261     -0.1225
     62  CA        -6.7970   29.2030  -28.9750 C.3   261  ASP261      0.1794
     63  C         -5.5020   29.7900  -29.6000 C.2   261  ASP261      0.2477
     64  O         -4.9180   29.2150  -30.5400 O.2   261  ASP261     -0.2730
     65  CB        -6.5950   27.8050  -28.4330 C.3   261  ASP261      0.1423
     66  CG        -5.4360   27.7260  -27.3860 C.2   261  ASP261      0.3668
     67  OD1       -4.6450   28.6840  -27.1400 O.co2 261  ASP261     -0.2456
     68  OD2       -5.3680   26.6710  -26.8000 O.co2 261  ASP261     -0.2456
     69  N         -5.0560   30.9820  -29.1170 N.am  262  PRO262     -0.2492
     70  CA        -3.9230   31.6300  -29.7000 C.3   262  PRO262      0.1619
     71  C         -2.6030   30.8520  -29.5620 C.2   262  PRO262      0.2605
     72  O         -1.6630   31.0220  -30.4150 O.2   262  PRO262     -0.2715
     73  CB        -3.8610   32.9930  -29.0080 C.3   262  PRO262      0.0570
     74  CG        -4.8210   32.9350  -27.8820 C.2   262  PRO262     -0.0077
     75  CD        -5.6210   31.6970  -27.9520 C.2   262  PRO262      0.0634
     76  N         -2.5360   29.9820  -28.5620 N.am  263  GLU263     -0.1978
     77  CA        -1.3420   29.1170  -28.4060 C.3   263  GLU263      0.1602
     78  C         -1.1130   28.1690  -29.5870 C.2   263  GLU263      0.2287
     79  O          0.0230   27.6860  -29.8280 O.2   263  GLU263     -0.2864
     80  CB        -1.4060   28.2950  -27.1040 C.3   263  GLU263      0.0415
     81  CG        -1.3330   29.1660  -25.8460 C.3   263  GLU263      0.1163
     82  CD        -0.8080   28.4000  -24.6140 C.2   263  GLU263      0.3649
     83  OE1       -0.9530   27.1680  -24.5360 O.co2 263  GLU263     -0.2457
     84  OE2       -0.2240   29.0400  -23.7420 O.co2 263  GLU263     -0.2457
@<TRIPOS>BOND
     1    64    63    2
     2    72    71    2
     3    61    62    1
     4    79    78    2
     5    70    71    1
     6    70    69    1
     7    70    73    1
     8    63    69   am
     9    63    62    1
    10    78    77    1
    11    71    76   am
    12    69    75    1
    13    73    74    1
    14    62    65    1
    15    76    77    1
    16    65    66    1
    17    77    80    1
    18     7     6    2
    19    75    74    2
    20    47    49    1
    21    47    46    1
    22    66    67   ar
    23    66    68   ar
    24     6     5    1
    25     6     8   am
    26    48    46    1
    27    80    81    1
    28    46    43    1
    29     5     2    1
    30    81    82    1
    31    15    14    1
    32    52    53    2
    33    52    51    1
    34    43    42    1
    35    43    44    1
    36    42    37   am
    37     4     3    2
    38     2     3    1
    39     2     1    1
    40    35    36    1
    41     3     9   am
    42    41    39    1
    43    39    36    1
    44    39    40    1
    45    44    45    2
    46    82    83   ar
    47    82    84   ar
    48    10     9    1
    49    10    11    1
    50    10    13    1
    51    51    50    1
    52    51    54    1
    53    36    37    1
    54    14    13    1
    55    14    16    1
    56    37    38    2
    57    11    12    2
    58    17    18    1
    59    54    55    1
    60    19    18    1
    61    19    20    2
    62    26    27    1
    63    56    55    1
    64    56    57    1
    65    18    21    1
    66    21    22    1
    67    57    58    2
    68    22    23    1
    69    27    28    1
    70    27    30    1
    71    58    59    1
    72    58    60    1
    73    28    29    2
    74    34    32   am
    75    23    24    1
    76    30    31    1
    77    31    32    1
    78    25    24    1
    79    32    33    2
