@<TRIPOS>MOLECULE
tmp/5odcD00.pdb
 93 90 0 0 0
SMALL
GASTEIGER

@<TRIPOS>ATOM
      1  N         87.0110  103.3290   30.7790 N.3     2  TRP2       -0.1227
      2  CA        87.0240  102.0020   31.4010 C.3     2  TRP2        0.1737
      3  C         88.1550  101.1690   30.8340 C.2     2  TRP2        0.2595
      4  O         88.3980  101.1770   29.6270 O.2     2  TRP2       -0.2718
      5  CB        85.6860  101.2660   31.1810 C.3     2  TRP2        0.0564
      6  CG        85.7350   99.7800   31.4270 C.ar    2  TRP2        0.0003
      7  CD1       85.6750   99.1430   32.6330 C.ar    2  TRP2        0.0946
      8  CD2       85.8350   98.7500   30.4320 C.ar    2  TRP2        0.0152
      9  NE1       85.7570   97.7790   32.4510 N.ar    2  TRP2       -0.2442
     10  CE2       85.8440   97.5120   31.1090 C.ar    2  TRP2        0.0810
     11  CE3       85.9220   98.7560   29.0350 C.ar    2  TRP2        0.0012
     12  CZ2       85.9240   96.2960   30.4340 C.ar    2  TRP2        0.0191
     13  CZ3       86.0020   97.5510   28.3700 C.ar    2  TRP2        0.0001
     14  CH2       86.0060   96.3390   29.0660 C.ar    2  TRP2        0.0015
     15  N         88.8320  100.4310   31.7090 N.am    3  GLU3       -0.1979
     16  CA        89.9110   99.5500   31.3140 C.3     3  GLU3        0.1602
     17  C         89.5720   98.1880   31.8890 C.2     3  GLU3        0.2287
     18  O         89.2540   98.0890   33.0760 O.2     3  GLU3       -0.2864
     19  CB        91.2600  100.0540   31.8480 C.3     3  GLU3        0.0415
     20  CG        91.8680  101.1720   31.0170 C.3     3  GLU3        0.1163
     21  CD        92.0590  100.8550   29.5450 C.2     3  GLU3        0.3649
     22  OE1       91.6430  101.6850   28.7040 O.co2   3  GLU3       -0.2457
     23  OE2       92.7700   99.8710   29.2360 O.co2   3  GLU3       -0.2457
     24  N         89.5310   94.5550   33.6530 N.3     5  LYS5       -0.1245
     25  CA        90.2130   93.9810   34.8000 C.3     5  LYS5        0.1561
     26  C         90.4320   92.5060   34.5090 C.2     5  LYS5        0.2260
     27  O         89.4760   91.7380   34.4690 O.2     5  LYS5       -0.2867
     28  CB        89.3760   94.1740   36.0670 C.3     5  LYS5        0.0271
     29  CG        89.2720   95.6330   36.4770 C.3     5  LYS5        0.0035
     30  CD        89.4050   95.8260   37.9820 C.3     5  LYS5        0.0206
     31  CE        89.4450   97.2880   38.3470 C.3     5  LYS5        0.1093
     32  NZ        89.6540   97.4990   39.8060 N.3     5  LYS5       -0.1314
     33  N         84.5680   88.6790   42.3060 N.3    55  GLU55      -0.1231
     34  CA        85.2830   89.8700   42.7570 C.3    55  GLU55       0.1699
     35  C         85.2380   91.0360   41.7620 C.2    55  GLU55       0.2592
     36  O         85.4240   92.1760   42.1740 O.2    55  GLU55      -0.2718
     37  CB        86.7290   89.5120   43.1310 C.3    55  GLU55       0.0402
     38  CG        86.8190   88.6230   44.3610 C.3    55  GLU55       0.1161
     39  CD        86.3390   89.2610   45.6480 C.2    55  GLU55       0.3649
     40  OE1       85.7880   88.5330   46.5050 O.co2  55  GLU55      -0.2457
     41  OE2       86.5290   90.4860   45.8120 O.co2  55  GLU55      -0.2457
     42  N         84.9750   90.7550   40.4910 N.am   56  GLY56      -0.1957
     43  CA        84.8880   91.7960   39.4690 C.3    56  GLY56       0.1869
     44  C         85.7060   91.5830   38.2130 C.2    56  GLY56       0.2309
     45  O         85.8310   92.5100   37.4180 O.2    56  GLY56      -0.2863
     46  N         86.7800   90.9510   34.5160 N.3    58  ASP58      -0.1239
     47  CA        86.1520   91.0570   33.2020 C.3    58  ASP58       0.1674
     48  C         86.6610   89.9070   32.3560 C.2    58  ASP58       0.2266
     49  O         85.9850   89.4820   31.4210 O.2    58  ASP58      -0.2867
     50  CB        86.5070   92.3930   32.5360 C.3    58  ASP58       0.1410
     51  CG        85.9700   93.5730   33.3030 C.2    58  ASP58       0.3668
     52  OD1       84.7490   93.5840   33.5980 O.co2  58  ASP58      -0.2456
     53  OD2       86.7820   94.4290   33.7060 O.co2  58  ASP58      -0.2456
     54  N         82.6060   95.6350   29.9720 N.3   129  PRO129     -0.2102
     55  CA        82.7100   95.0800   31.3310 C.3   129  PRO129      0.1504
     56  C         81.7100   93.9820   31.6640 C.2   129  PRO129      0.2576
     57  O         80.6110   93.9480   31.1110 O.2   129  PRO129     -0.2718
     58  CB        82.4960   96.2960   32.2450 C.3   129  PRO129      0.0282
     59  CG        81.8810   97.3340   31.4150 C.3   129  PRO129      0.0208
     60  CD        82.0880   97.0160   29.9690 C.3   129  PRO129      0.0893
     61  N         82.1010   93.0880   32.5980 N.am  130  CYS130     -0.1957
     62  CA        81.2400   92.0120   33.0850 C.3   130  CYS130      0.1843
     63  C         80.3890   92.6450   34.1830 C.2   130  CYS130      0.2625
     64  O         80.9400   93.2520   35.0980 O.2   130  CYS130     -0.2714
     65  CB        82.0570   90.8400   33.6230 C.3   130  CYS130      0.0997
     66  SG        81.0540   89.4240   34.1650 S.3   130  CYS130     -0.0797
     67  N         79.0590   92.5190   34.1040 N.am  131  LYS131     -0.1977
     68  CA        78.1650   93.1550   35.0790 C.3   131  LYS131      0.1596
     69  C         77.8620   92.3290   36.3390 C.2   131  LYS131      0.2287
     70  O         77.0000   92.7270   37.1130 O.2   131  LYS131     -0.2864
     71  CB        76.8450   93.5520   34.3840 C.3   131  LYS131      0.0298
     72  CG        77.0070   94.3210   33.0600 C.3   131  LYS131      0.0038
     73  CD        78.0170   95.4880   33.0980 C.3   131  LYS131      0.0206
     74  CE        77.6770   96.5860   34.0870 C.3   131  LYS131      0.1093
     75  NZ        78.8550   97.4410   34.3950 N.3   131  LYS131     -0.1314
     76  N         79.5050   91.6680   39.4050 N.3   133  LYS133     -0.1231
     77  CA        79.6650   92.3520   40.6840 C.3   133  LYS133      0.1693
     78  C         78.6240   93.4430   40.9090 C.2   133  LYS133      0.2591
     79  O         78.1420   93.5950   42.0310 O.2   133  LYS133     -0.2718
     80  CB        81.0860   92.9050   40.8330 C.3   133  LYS133      0.0285
     81  CG        81.2940   93.6280   42.1560 C.3   133  LYS133      0.0035
     82  CD        82.7470   93.7190   42.5480 C.3   133  LYS133      0.0206
     83  CE        83.0060   94.8710   43.4830 C.3   133  LYS133      0.1093
     84  NZ        82.3720   94.6570   44.8110 N.3   133  LYS133     -0.1314
     85  N         78.2600   94.1880   39.8580 N.am  134  GLU134     -0.1979
     86  CA        77.2640   95.2580   39.9890 C.3   134  GLU134      0.1602
     87  C         75.9170   94.6630   40.3550 C.2   134  GLU134      0.2287
     88  O         75.2500   95.1610   41.2570 O.2   134  GLU134     -0.2864
     89  CB        77.1540   96.0700   38.6910 C.3   134  GLU134      0.0415
     90  CG        78.2480   97.1170   38.5280 C.3   134  GLU134      0.1163
     91  CD        79.6690   96.5890   38.4780 C.2   134  GLU134      0.3649
     92  OE1       79.8860   95.5170   37.8670 O.co2 134  GLU134     -0.2457
     93  OE2       80.5720   97.2690   39.0180 O.co2 134  GLU134     -0.2457
@<TRIPOS>BOND
     1    13    11   ar
     2    13    14   ar
     3    22    21   ar
     4    11     8   ar
     5    14    12   ar
     6    23    21   ar
     7    21    20    1
     8     4     3    2
     9    60    54    1
    10    60    59    1
    11    54    55    1
    12     8    10   ar
    13     8     6   ar
    14    12    10   ar
    15     1     2    1
    16     3     2    1
    17     3    15   am
    18    20    19    1
    19    10     9   ar
    20    57    56    2
    21     5     2    1
    22     5     6    1
    23    16    15    1
    24    16    19    1
    25    16    17    1
    26    55    56    1
    27    55    58    1
    28    59    58    1
    29    49    48    2
    30     6     7   ar
    31    56    61   am
    32    17    18    2
    33    48    47    1
    34     9     7   ar
    35    50    47    1
    36    50    51    1
    37    61    62    1
    38    72    73    1
    39    72    71    1
    40    62    65    1
    41    62    63    1
    42    73    74    1
    43    47    46    1
    44    51    52   ar
    45    51    53   ar
    46    65    66    1
    47    24    25    1
    48    74    75    1
    49    67    63   am
    50    67    68    1
    51    63    64    2
    52    71    68    1
    53    27    26    2
    54    26    25    1
    55    25    28    1
    56    68    69    1
    57    28    29    1
    58    69    70    2
    59    29    30    1
    60    45    44    2
    61    92    91   ar
    62    30    31    1
    63    44    43    1
    64    31    32    1
    65    91    90    1
    66    91    93   ar
    67    90    89    1
    68    89    86    1
    69    76    77    1
    70    43    42    1
    71    85    86    1
    72    85    78   am
    73    86    87    1
    74    87    88    2
    75    42    35   am
    76    77    80    1
    77    77    78    1
    78    80    81    1
    79    78    79    2
    80    35    36    2
    81    35    34    1
    82    81    82    1
    83    33    34    1
    84    82    83    1
    85    34    37    1
    86    37    38    1
    87    83    84    1
    88    38    39    1
    89    39    41   ar
    90    39    40   ar
