@<TRIPOS>MOLECULE
tmp/5odhH01.pdb
 135 125 0 0 0
SMALL
GASTEIGER

@<TRIPOS>ATOM
      1  N         84.1640  -12.5090   53.4140 N.3     9  CYS9       -0.1221
      2  CA        84.8580  -13.4190   52.5100 C.3     9  CYS9        0.1808
      3  C         85.2840  -12.7610   51.2080 C.2     9  CYS9        0.2601
      4  O         86.4680  -12.8180   50.8530 O.2     9  CYS9       -0.2717
      5  CB        83.9660  -14.6340   52.1990 C.3     9  CYS9        0.0970
      6  SG        83.7710  -15.7860   53.5520 S.3     9  CYS9       -0.0800
      7  N         84.3600  -12.1230   50.4860 N.am   10  ILE10      -0.1979
      8  CA        84.6570  -11.6920   49.1220 C.3    10  ILE10       0.1595
      9  C         85.6920  -10.5770   49.1300 C.2    10  ILE10       0.2287
     10  O         86.6660  -10.6100   48.3700 O.2    10  ILE10      -0.2864
     11  CB        83.3690  -11.2530   48.4010 C.3    10  ILE10       0.0276
     12  CG1       82.4460  -12.4550   48.1710 C.3    10  ILE10       0.0022
     13  CG2       83.7010  -10.5410   47.0770 C.3    10  ILE10       0.0022
     14  CD1       82.9160  -13.3950   47.0760 C.3    10  ILE10       0.0001
     15  N         88.9790  -11.9140   47.4960 N.3    14  ARG14      -0.1245
     16  CA        88.9500  -11.6490   46.0590 C.3    14  ARG14       0.1563
     17  C         89.1040  -10.1780   45.7000 C.2    14  ARG14       0.2260
     18  O         89.8150   -9.8660   44.7400 O.2    14  ARG14      -0.2867
     19  CB        87.6510  -12.2120   45.4560 C.3    14  ARG14       0.0307
     20  CG        87.8120  -13.6320   44.9150 C.3    14  ARG14       0.0489
     21  CD        86.7210  -14.5560   45.4120 C.3    14  ARG14       0.2205
     22  NE        86.9830  -15.9480   45.0530 N.pl3  14  ARG14      -0.0865
     23  CZ        87.8490  -16.7340   45.6840 C.cat  14  ARG14       0.5346
     24  NH1       88.0160  -17.9870   45.2850 N.pl3  14  ARG14       0.1354
     25  NH2       88.5540  -16.2690   46.7090 N.pl3  14  ARG14       0.1354
     26  N         76.8720  -16.1410   55.2010 N.3    44  ALA44      -0.1231
     27  CA        75.9790  -15.5070   54.2310 C.3    44  ALA44       0.1679
     28  C         74.5220  -15.8540   54.5290 C.2    44  ALA44       0.2434
     29  O         74.1380  -17.0300   54.4850 O.2    44  ALA44      -0.2733
     30  CB        76.3480  -15.9230   52.8060 C.3    44  ALA44       0.0304
     31  N         73.6840  -14.8630   54.8440 N.am   45  PRO45      -0.2729
     32  CA        72.3270  -15.1780   55.3220 C.3    45  PRO45       0.1401
     33  C         71.4330  -15.7810   54.2550 C.2    45  PRO45       0.2269
     34  O         70.6000  -16.6410   54.5740 O.2    45  PRO45      -0.2865
     35  CB        71.7980  -13.8150   55.7870 C.3    45  PRO45       0.0296
     36  CG        72.5430  -12.8250   54.9500 C.3    45  PRO45       0.0237
     37  CD        73.8970  -13.4180   54.6740 C.3    45  PRO45       0.0939
     38  N         72.2460  -17.7500   51.5690 N.3    47  VAL47      -0.1231
     39  CA        72.5720  -19.1360   51.2550 C.3    47  VAL47       0.1692
     40  C         72.3450  -20.0310   52.4750 C.2    47  VAL47       0.2592
     41  O         71.6900  -21.0750   52.3820 O.2    47  VAL47      -0.2718
     42  CB        74.0160  -19.2400   50.7170 C.3    47  VAL47       0.0266
     43  CG1       74.2760  -18.1760   49.6490 C.3    47  VAL47       0.0020
     44  CG2       75.0210  -19.0990   51.8110 C.3    47  VAL47       0.0020
     45  N         72.8720  -19.6320   53.6380 N.am   48  PHE48      -0.1976
     46  CA        72.8580  -20.5180   54.8000 C.3    48  PHE48       0.1639
     47  C         71.5450  -20.4350   55.5700 C.2    48  PHE48       0.2290
     48  O         71.0770  -21.4440   56.1110 O.2    48  PHE48      -0.2864
     49  CB        74.0450  -20.2030   55.7110 C.3    48  PHE48       0.0560
     50  CG        75.3730  -20.4670   55.0650 C.ar   48  PHE48      -0.0200
     51  CD1       75.8170  -21.7650   54.8640 C.ar   48  PHE48      -0.0042
     52  CD2       76.1730  -19.4180   54.6450 C.ar   48  PHE48      -0.0042
     53  CE1       77.0320  -22.0090   54.2570 C.ar   48  PHE48      -0.0003
     54  CE2       77.3910  -19.6530   54.0410 C.ar   48  PHE48      -0.0003
     55  CZ        77.8230  -20.9510   53.8460 C.ar   48  PHE48      -0.0000
     56  N         80.0410   -4.8590   54.0210 N.3    78  CYS78      -0.1235
     57  CA        79.2530   -5.6210   53.0760 C.3    78  CYS78       0.1677
     58  C         77.8350   -5.7920   53.5990 C.2    78  CYS78       0.2270
     59  O         77.6370   -6.1510   54.7640 O.2    78  CYS78      -0.2867
     60  CB        79.8900   -6.9750   52.8250 C.3    78  CYS78       0.0956
     61  SG        78.9040   -7.9160   51.7220 S.3    78  CYS78      -0.0801
     62  N         75.8320   -8.1370   52.8610 N.3    80  GLY80      -0.1210
     63  CA        75.6640   -9.5270   53.2500 C.3    80  GLY80       0.1956
     64  C         76.0480   -9.7670   54.6960 C.2    80  GLY80       0.2612
     65  O         75.2660  -10.3110   55.4790 O.2    80  GLY80      -0.2717
     66  N         77.2570   -9.3440   55.0740 N.am   81  CYS81      -0.1970
     67  CA        77.6980   -9.4840   56.4550 C.3    81  CYS81       0.1712
     68  C         76.8730   -8.6010   57.3820 C.2    81  CYS81       0.2296
     69  O         76.5290   -9.0100   58.4970 O.2    81  CYS81      -0.2864
     70  CB        79.1860   -9.1530   56.5510 C.3    81  CYS81       0.0983
     71  SG        80.1970  -10.1220   55.3950 S.3    81  CYS81      -0.0798
     72  N         71.7140  -17.3970   47.1780 N.3   199  GLY199     -0.1225
     73  CA        72.2460  -18.5860   46.5520 C.3   199  GLY199      0.1811
     74  C         72.0180  -18.6770   45.0630 C.2   199  GLY199      0.2280
     75  O         72.4000  -19.6870   44.4570 O.2   199  GLY199     -0.2866
     76  N         73.2150  -16.9270   42.4530 N.3   201  ARG201     -0.1231
     77  CA        74.3920  -16.8750   41.5890 C.3   201  ARG201      0.1694
     78  C         75.0490  -18.2420   41.4880 C.2   201  ARG201      0.2591
     79  O         75.5020  -18.6450   40.4110 O.2   201  ARG201     -0.2718
     80  CB        75.4050  -15.8460   42.0940 C.3   201  ARG201      0.0321
     81  CG        76.7130  -15.8960   41.3070 C.3   201  ARG201      0.0489
     82  CD        77.7070  -14.8560   41.7370 C.3   201  ARG201      0.2205
     83  NE        79.0150  -15.1300   41.1520 N.pl3 201  ARG201     -0.0865
     84  CZ        79.3320  -14.9020   39.8820 C.cat 201  ARG201      0.5346
     85  NH1       80.5490  -15.1890   39.4470 N.pl3 201  ARG201      0.1354
     86  NH2       78.4410  -14.3900   39.0430 N.pl3 201  ARG201      0.1354
     87  N         75.1100  -18.9700   42.6020 N.am  202  ALA202     -0.1980
     88  CA        75.7820  -20.2620   42.6060 C.3   202  ALA202      0.1597
     89  C         74.9460  -21.3220   41.9040 C.2   202  ALA202      0.2287
     90  O         75.4880  -22.1700   41.1860 O.2   202  ALA202     -0.2864
     91  CB        76.0860  -20.6830   44.0430 C.3   202  ALA202      0.0319
     92  N         73.1180  -19.3810   37.6210 N.3   205  LEU205     -0.1245
     93  CA        74.0530  -18.2870   37.3780 C.3   205  LEU205      0.1561
     94  C         73.4770  -17.2600   36.4120 C.2   205  LEU205      0.2260
     95  O         73.5190  -16.0540   36.6780 O.2   205  LEU205     -0.2867
     96  CB        75.3790  -18.8240   36.8410 C.3   205  LEU205      0.0270
     97  CG        76.4490  -17.7350   36.6910 C.3   205  LEU205      0.0019
     98  CD1       76.8480  -17.1770   38.0510 C.3   205  LEU205      0.0001
     99  CD2       77.6610  -18.2560   35.9560 C.3   205  LEU205      0.0001
    100  N         78.6800   -3.3220   48.6480 N.3   231  CYS231     -0.1235
    101  CA        78.7400   -4.7560   48.8820 C.3   231  CYS231      0.1677
    102  C         79.6650   -5.4700   47.8970 C.2   231  CYS231      0.2270
    103  O         79.5030   -5.3330   46.6790 O.2   231  CYS231     -0.2867
    104  CB        77.3470   -5.3610   48.8090 C.3   231  CYS231      0.0956
    105  SG        77.3910   -7.0800   49.2130 S.3   231  CYS231     -0.0801
    106  N         79.6860   -8.6070   47.0710 N.3   233  PHE233     -0.1241
    107  CA        78.9800   -9.5280   46.1910 C.3   233  PHE233      0.1605
    108  C         78.3650   -8.7850   45.0130 C.2   233  PHE233      0.2264
    109  O         78.4390   -9.2530   43.8720 O.2   233  PHE233     -0.2867
    110  CB        77.9140  -10.3280   46.9540 C.3   233  PHE233      0.0534
    111  CG        77.6350  -11.7020   46.3620 C.ar  233  PHE233     -0.0203
    112  CD1       78.5440  -12.3100   45.5010 C.ar  233  PHE233     -0.0042
    113  CD2       76.4600  -12.3760   46.6560 C.ar  233  PHE233     -0.0042
    114  CE1       78.2980  -13.5440   44.9610 C.ar  233  PHE233     -0.0003
    115  CE2       76.2090  -13.6240   46.1080 C.ar  233  PHE233     -0.0003
    116  CZ        77.1330  -14.2060   45.2600 C.ar  233  PHE233     -0.0000
    117  N         81.4520   -8.1510   42.7060 N.3   236  LEU236     -0.1245
    118  CA        81.8080   -9.2910   41.8680 C.3   236  LEU236      0.1561
    119  C         80.7370   -9.5530   40.8180 C.2   236  LEU236      0.2260
    120  O         81.0540   -9.8420   39.6570 O.2   236  LEU236     -0.2867
    121  CB        82.0400  -10.5190   42.7520 C.3   236  LEU236      0.0270
    122  CG        82.2600  -11.9000   42.1310 C.3   236  LEU236      0.0019
    123  CD1       83.1370  -12.7220   43.0630 C.3   236  LEU236      0.0001
    124  CD2       80.9480  -12.6220   41.8710 C.3   236  LEU236      0.0001
    125  N         82.6810   -9.2650   37.6230 N.3   240  ARG240     -0.1245
    126  CA        82.8970  -10.5380   36.9420 C.3   240  ARG240      0.1563
    127  C         81.7030  -10.9130   36.0780 C.2   240  ARG240      0.2260
    128  O         81.8640  -11.5990   35.0620 O.2   240  ARG240     -0.2867
    129  CB        83.1830  -11.6560   37.9480 C.3   240  ARG240      0.0307
    130  CG        83.7540  -12.9160   37.2950 C.3   240  ARG240      0.0489
    131  CD        83.5260  -14.1630   38.1210 C.3   240  ARG240      0.2205
    132  NE        84.2940  -14.1690   39.3610 N.pl3 240  ARG240     -0.0865
    133  CZ        84.3000  -15.1760   40.2300 C.cat 240  ARG240      0.5346
    134  NH1       83.5780  -16.2650   39.9920 N.pl3 240  ARG240      0.1354
    135  NH2       85.0300  -15.0970   41.3370 N.pl3 240  ARG240      0.1354
@<TRIPOS>BOND
     1   128   127    2
     2    99    97    1
     3   127   126    1
     4    94    95    2
     5    94    93    1
     6    97    96    1
     7    97    98    1
     8    96    93    1
     9   126   125    1
    10   126   129    1
    11   130   129    1
    12   130   131    1
    13    93    92    1
    14   131   132    1
    15    86    84    1
    16   132   133    2
    17    85    84    1
    18   120   119    2
    19    84    83    2
    20   134   133    1
    21   133   135    1
    22    79    78    2
    23   119   118    1
    24    83    82    1
    25    90    89    2
    26    81    82    1
    27    81    80    1
    28    78    77    1
    29    78    87   am
    30    77    80    1
    31    77    76    1
    32   118   117    1
    33   118   121    1
    34   124   122    1
    35    89    88    1
    36   122   121    1
    37   122   123    1
    38    87    88    1
    39    88    91    1
    40   109   108    2
    41    75    74    2
    42    18    17    2
    43    20    21    1
    44    20    19    1
    45   114   116   ar
    46   114   112   ar
    47   108   107    1
    48    22    21    1
    49    22    23    2
    50    74    73    1
    51   116   115   ar
    52    24    23    1
    53    19    16    1
    54   112   111   ar
    55    23    25    1
    56    17    16    1
    57    16    15    1
    58   115   113   ar
    59   107   110    1
    60   107   106    1
    61   111   113   ar
    62   111   110    1
    63    73    72    1
    64   103   102    2
    65    14    12    1
    66    13    11    1
    67   102   101    1
    68    12    11    1
    69    10     9    2
    70    11     8    1
    71   100   101    1
    72   104   101    1
    73   104   105    1
    74     8     9    1
    75     8     7    1
    76    43    42    1
    77     7     3   am
    78    42    39    1
    79    42    44    1
    80     4     3    2
    81     3     2    1
    82    39    38    1
    83    39    40    1
    84    61    60    1
    85     5     2    1
    86     5     6    1
    87    41    40    2
    88    40    45   am
    89     2     1    1
    90    30    27    1
    91    60    57    1
    92    62    63    1
    93    57    58    1
    94    57    56    1
    95    63    64    1
    96    58    59    2
    97    45    46    1
    98    55    54   ar
    99    55    53   ar
   100    54    52   ar
   101    27    28    1
   102    27    26    1
   103    33    34    2
   104    33    32    1
   105    53    51   ar
   106    29    28    2
   107    28    31   am
   108    52    50   ar
   109    37    31    1
   110    37    36    1
   111    64    66   am
   112    64    65    2
   113    46    47    1
   114    46    49    1
   115    31    32    1
   116    51    50   ar
   117    36    35    1
   118    50    49    1
   119    66    67    1
   120    32    35    1
   121    71    70    1
   122    47    48    2
   123    67    70    1
   124    67    68    1
   125    68    69    2
