@<TRIPOS>MOLECULE
tmp/5odhF00.pdb
 115 110 0 0 0
SMALL
GASTEIGER

@<TRIPOS>ATOM
      1  N         72.0850   18.9820  151.4990 N.3   202  LYS202     -0.1245
      2  CA        72.9390   18.8960  152.6800 C.3   202  LYS202      0.1561
      3  C         72.2670   18.0890  153.7800 C.2   202  LYS202      0.2260
      4  O         72.8590   17.1610  154.3440 O.2   202  LYS202     -0.2867
      5  CB        73.2690   20.2980  153.2030 C.3   202  LYS202      0.0271
      6  CG        74.3160   21.0780  152.4290 C.3   202  LYS202      0.0035
      7  CD        74.7390   22.3060  153.2390 C.3   202  LYS202      0.0206
      8  CE        75.9030   23.0490  152.6150 C.3   202  LYS202      0.1093
      9  NZ        75.4570   24.1160  151.6870 N.3   202  LYS202     -0.1314
     10  N         71.8990   14.2800  152.8300 N.3   205  LEU205     -0.1231
     11  CA        73.1580   13.5450  152.8020 C.3   205  LEU205      0.1693
     12  C         73.7600   13.4300  154.1950 C.2   205  LEU205      0.2591
     13  O         74.4530   12.4480  154.4890 O.2   205  LEU205     -0.2718
     14  CB        74.1320   14.2010  151.8200 C.3   205  LEU205      0.0284
     15  CG        73.7110   14.0330  150.3540 C.3   205  LEU205      0.0019
     16  CD1       74.5800   14.8670  149.4330 C.3   205  LEU205      0.0001
     17  CD2       73.7330   12.5610  149.9170 C.3   205  LEU205      0.0001
     18  N         73.4850   14.3970  155.0750 N.am  206  GLU206     -0.1979
     19  CA        73.7970   14.2060  156.4890 C.3   206  GLU206      0.1602
     20  C         73.0720   12.9810  157.0350 C.2   206  GLU206      0.2287
     21  O         73.6750   12.1240  157.6910 O.2   206  GLU206     -0.2864
     22  CB        73.4030   15.4500  157.2850 C.3   206  GLU206      0.0415
     23  CG        74.3920   16.5860  157.2210 C.3   206  GLU206      0.1163
     24  CD        73.8620   17.8240  157.9090 C.2   206  GLU206      0.3649
     25  OE1       73.1350   17.6720  158.9170 O.co2 206  GLU206     -0.2457
     26  OE2       74.1630   18.9440  157.4410 O.co2 206  GLU206     -0.2457
     27  N         74.8410   10.1210  155.7650 N.3   209  LYS209     -0.1245
     28  CA        76.0810    9.9120  156.5030 C.3   209  LYS209      0.1561
     29  C         75.8040    9.2930  157.8650 C.2   209  LYS209      0.2260
     30  O         76.5620    8.4350  158.3340 O.2   209  LYS209     -0.2867
     31  CB        76.8140   11.2400  156.6830 C.3   209  LYS209      0.0271
     32  CG        78.1380   11.1180  157.4170 C.3   209  LYS209      0.0035
     33  CD        78.9900   12.3680  157.2380 C.3   209  LYS209      0.0206
     34  CE        78.4450   13.5140  158.0820 C.3   209  LYS209      0.1093
     35  NZ        78.9870   14.8430  157.6820 N.3   209  LYS209     -0.1314
     36  N         77.1930    7.1120  153.1980 N.3   214  LEU214     -0.1245
     37  CA        77.7630    8.1260  152.3150 C.3   214  LEU214      0.1561
     38  C         78.8880    7.5880  151.4410 C.2   214  LEU214      0.2260
     39  O         79.2530    8.2430  150.4610 O.2   214  LEU214     -0.2867
     40  CB        78.2820    9.3070  153.1350 C.3   214  LEU214      0.0270
     41  CG        78.6140   10.5780  152.3450 C.3   214  LEU214      0.0019
     42  CD1       77.3630   11.2300  151.7930 C.3   214  LEU214      0.0001
     43  CD2       79.3890   11.5590  153.2050 C.3   214  LEU214      0.0001
     44  N         79.3330   27.5840  146.9160 N.3   308  TYR308     -0.1241
     45  CA        79.0700   26.2480  147.4420 C.3   308  TYR308      0.1605
     46  C         80.1570   25.2730  147.0220 C.2   308  TYR308      0.2264
     47  O         80.4530   24.3160  147.7480 O.2   308  TYR308     -0.2867
     48  CB        77.7130   25.7440  146.9520 C.3   308  TYR308      0.0534
     49  CG        76.5410   26.6030  147.3570 C.ar  308  TYR308     -0.0201
     50  CD1       76.1420   27.6700  146.5670 C.ar  308  TYR308     -0.0009
     51  CD2       75.8260   26.3450  148.5180 C.ar  308  TYR308     -0.0009
     52  CE1       75.0710   28.4600  146.9160 C.ar  308  TYR308      0.0417
     53  CE2       74.7470   27.1350  148.8800 C.ar  308  TYR308      0.0417
     54  CZ        74.3750   28.1900  148.0740 C.ar  308  TYR308      0.1957
     55  OH        73.3030   28.9850  148.4220 O.3   308  TYR308     -0.2866
     56  N         83.2140   25.8040  149.2610 N.3   311  GLU311     -0.1231
     57  CA        82.9290   25.1630  150.5420 C.3   311  GLU311      0.1699
     58  C         83.0180   23.6460  150.4340 C.2   311  GLU311      0.2592
     59  O         83.4930   22.9760  151.3570 O.2   311  GLU311     -0.2718
     60  CB        81.5450   25.5820  151.0360 C.3   311  GLU311      0.0402
     61  CG        81.0540   24.8130  152.2530 C.3   311  GLU311      0.1161
     62  CD        79.6970   25.2890  152.7400 C.2   311  GLU311      0.3649
     63  OE1       78.7130   25.1740  151.9740 O.co2 311  GLU311     -0.2457
     64  OE2       79.6160   25.7660  153.8930 O.co2 311  GLU311     -0.2457
     65  N         82.5490   23.0830  149.3210 N.am  312  PHE312     -0.1976
     66  CA        82.5720   21.6340  149.1580 C.3   312  PHE312      0.1639
     67  C         84.0010   21.1170  149.0020 C.2   312  PHE312      0.2290
     68  O         84.3590   20.0750  149.5650 O.2   312  PHE312     -0.2864
     69  CB        81.7080   21.2400  147.9560 C.3   312  PHE312      0.0560
     70  CG        81.9050   19.8280  147.5060 C.ar  312  PHE312     -0.0200
     71  CD1       81.3130   18.7810  148.1920 C.ar  312  PHE312     -0.0042
     72  CD2       82.6740   19.5450  146.3940 C.ar  312  PHE312     -0.0042
     73  CE1       81.4930   17.4750  147.7790 C.ar  312  PHE312     -0.0003
     74  CE2       82.8570   18.2450  145.9760 C.ar  312  PHE312     -0.0003
     75  CZ        82.2650   17.2070  146.6690 C.ar  312  PHE312     -0.0000
     76  N         85.9960   20.6940  152.2890 N.3   315  GLU315     -0.1231
     77  CA        85.6550   19.5540  153.1310 C.3   315  GLU315      0.1699
     78  C         86.0080   18.2100  152.5100 C.2   315  GLU315      0.2592
     79  O         86.3330   17.2680  153.2430 O.2   315  GLU315     -0.2718
     80  CB        84.1620   19.5760  153.4710 C.3   315  GLU315      0.0402
     81  CG        83.8540   19.7550  154.9570 C.3   315  GLU315      0.1161
     82  CD        84.3980   18.6150  155.8010 C.2   315  GLU315      0.3649
     83  OE1       84.7430   18.8520  156.9780 O.co2 315  GLU315     -0.2457
     84  OE2       84.4850   17.4800  155.2810 O.co2 315  GLU315     -0.2457
     85  N         85.9500   18.0860  151.1840 N.am  316  PHE316     -0.1976
     86  CA        86.1320   16.7990  150.5290 C.3   316  PHE316      0.1639
     87  C         87.2760   16.7700  149.5260 C.2   316  PHE316      0.2290
     88  O         87.5860   15.6920  149.0070 O.2   316  PHE316     -0.2864
     89  CB        84.8320   16.3770  149.8210 C.3   316  PHE316      0.0560
     90  CG        83.7260   16.0020  150.7670 C.ar  316  PHE316     -0.0200
     91  CD1       83.7000   14.7450  151.3490 C.ar  316  PHE316     -0.0042
     92  CD2       82.7180   16.8990  151.0760 C.ar  316  PHE316     -0.0042
     93  CE1       82.6940   14.3890  152.2220 C.ar  316  PHE316     -0.0003
     94  CE2       81.7050   16.5470  151.9510 C.ar  316  PHE316     -0.0003
     95  CZ        81.6930   15.2880  152.5220 C.ar  316  PHE316     -0.0000
     96  N         78.2280   11.6240  146.5830 N.3   325  LEU325     -0.1245
     97  CA        78.4010   13.0660  146.4790 C.3   325  LEU325      0.1561
     98  C         78.1800   13.5790  145.0680 C.2   325  LEU325      0.2260
     99  O         78.1730   14.7990  144.8630 O.2   325  LEU325     -0.2867
    100  CB        79.7910   13.4720  146.9850 C.3   325  LEU325      0.0270
    101  CG        79.9020   13.4820  148.5160 C.3   325  LEU325      0.0019
    102  CD1       81.3320   13.7060  148.9710 C.3   325  LEU325      0.0001
    103  CD2       78.9870   14.5400  149.1240 C.3   325  LEU325      0.0001
    104  N         75.3520   15.8410  145.5390 N.3   328  TYR328     -0.1241
    105  CA        75.6320   17.2170  145.9380 C.3   328  TYR328      0.1605
    106  C         76.1740   18.0260  144.7680 C.2   328  TYR328      0.2264
    107  O         75.7450   19.1660  144.5430 O.2   328  TYR328     -0.2867
    108  CB        76.6110   17.2400  147.1160 C.3   328  TYR328      0.0534
    109  CG        76.6790   18.5900  147.7990 C.ar  328  TYR328     -0.0201
    110  CD1       75.6580   19.0150  148.6390 C.ar  328  TYR328     -0.0009
    111  CD2       77.7500   19.4460  147.5910 C.ar  328  TYR328     -0.0009
    112  CE1       75.7030   20.2530  149.2560 C.ar  328  TYR328      0.0417
    113  CE2       77.8050   20.6890  148.2080 C.ar  328  TYR328      0.0417
    114  CZ        76.7790   21.0840  149.0370 C.ar  328  TYR328      0.1957
    115  OH        76.8210   22.3120  149.6470 O.3   328  TYR328     -0.2866
@<TRIPOS>BOND
     1   107   106    2
     2   106   105    1
     3    99    98    2
     4    98    97    1
     5   104   105    1
     6   105   108    1
     7    74    72   ar
     8    74    75   ar
     9    72    70   ar
    10    97    96    1
    11    97   100    1
    12    50    52   ar
    13    50    49   ar
    14    75    73   ar
    15    44    45    1
    16    52    54   ar
    17    48    49    1
    18    48    45    1
    19   100   101    1
    20    46    45    1
    21    46    47    2
    22   108   109    1
    23    49    51   ar
    24    70    69    1
    25    70    71   ar
    26   111   109   ar
    27   111   113   ar
    28    73    71   ar
    29   109   110   ar
    30    69    66    1
    31    54    55    1
    32    54    53   ar
    33   113   114   ar
    34   101   102    1
    35   101   103    1
    36    51    53   ar
    37   110   112   ar
    38    67    66    1
    39    67    68    2
    40    88    87    2
    41   114   112   ar
    42   114   115    1
    43    66    65    1
    44    56    57    1
    45    65    58   am
    46    16    15    1
    47    87    86    1
    48    89    86    1
    49    89    90    1
    50    17    15    1
    51    15    14    1
    52    58    57    1
    53    58    59    2
    54    39    38    2
    55    86    85    1
    56    57    60    1
    57    90    92   ar
    58    90    91   ar
    59    60    61    1
    60    92    94   ar
    61    85    78   am
    62    91    93   ar
    63    38    37    1
    64     1     2    1
    65     9     8    1
    66    42    41    1
    67    14    11    1
    68    94    95   ar
    69    63    62   ar
    70    93    95   ar
    71    61    62    1
    72    76    77    1
    73    37    40    1
    74    37    36    1
    75    41    40    1
    76    41    43    1
    77     6     5    1
    78     6     7    1
    79    78    77    1
    80    78    79    2
    81     8     7    1
    82     2     5    1
    83     2     3    1
    84    62    64   ar
    85    11    10    1
    86    11    12    1
    87    77    80    1
    88    80    81    1
    89     3     4    2
    90    12    13    2
    91    12    18   am
    92    81    82    1
    93    18    19    1
    94    84    82   ar
    95    27    28    1
    96    82    83   ar
    97    19    20    1
    98    19    22    1
    99    28    31    1
   100    28    29    1
   101    31    32    1
   102    20    21    2
   103    23    22    1
   104    23    24    1
   105    33    32    1
   106    33    34    1
   107    26    24   ar
   108    35    34    1
   109    29    30    2
   110    24    25   ar
