@<TRIPOS>MOLECULE
tmp/5odiH00.pdb
 91 88 0 0 0
SMALL
GASTEIGER

@<TRIPOS>ATOM
      1  N         76.4540  -16.6790   55.1300 N.3    44  ALA44      -0.1231
      2  CA        75.6030  -16.2060   54.0260 C.3    44  ALA44       0.1679
      3  C         74.1390  -16.6600   54.1990 C.2    44  ALA44       0.2434
      4  O         73.8400  -17.8550   54.1280 O.2    44  ALA44      -0.2733
      5  CB        76.1560  -16.7020   52.6970 C.3    44  ALA44       0.0304
      6  N         73.2040  -15.7260   54.4360 N.am   45  PRO45      -0.2718
      7  CA        71.7990  -16.1430   54.6250 C.3    45  PRO45       0.1535
      8  C         71.2070  -16.8840   53.4320 C.2    45  PRO45       0.2599
      9  O         70.3430  -17.7510   53.6040 O.2    45  PRO45      -0.2715
     10  CB        71.0600  -14.8320   54.9310 C.3    45  PRO45       0.0310
     11  CG        71.9620  -13.7400   54.4820 C.3    45  PRO45       0.0237
     12  CD        73.3680  -14.2630   54.5450 C.3    45  PRO45       0.0939
     13  N         71.6760  -16.5500   52.2360 N.am   46  GLY46      -0.1941
     14  CA        71.1950  -17.1890   51.0290 C.3    46  GLY46       0.2014
     15  C         71.2810  -18.6960   51.1080 C.2    46  GLY46       0.2638
     16  O         70.3300  -19.3980   50.7760 O.2    46  GLY46      -0.2714
     17  N         72.4040  -19.2120   51.5650 N.am   47  VAL47      -0.1977
     18  CA        72.5560  -20.6590   51.6340 C.3    47  VAL47       0.1596
     19  C         72.1760  -21.2260   52.9860 C.2    47  VAL47       0.2287
     20  O         71.3530  -22.1410   53.0680 O.2    47  VAL47      -0.2864
     21  CB        74.0010  -21.0850   51.2730 C.3    47  VAL47       0.0276
     22  CG1       74.0650  -22.5820   50.9670 C.3    47  VAL47       0.0022
     23  CG2       74.5410  -20.2630   50.1020 C.3    47  VAL47       0.0022
     24  N         76.3250   -5.8820   52.3070 N.3    79  ASN79      -0.1225
     25  CA        74.9080   -5.9520   52.6300 C.3    79  ASN79       0.1785
     26  C         74.5880   -7.3460   53.1550 C.2    79  ASN79       0.2597
     27  O         73.8390   -7.4990   54.1230 O.2    79  ASN79      -0.2718
     28  CB        74.0600   -5.6710   51.3950 C.3    79  ASN79       0.1169
     29  CG        74.2180   -4.2880   50.8440 C.2    79  ASN79       0.2627
     30  OD1       74.6780   -3.3750   51.5240 O.2    79  ASN79      -0.2716
     31  ND2       73.8230   -4.1120   49.5920 N.am   79  ASN79      -0.0877
     32  N         75.1600   -8.3470   52.5070 N.am   80  GLY80      -0.1957
     33  CA        74.9420   -9.7330   52.8950 C.3    80  GLY80       0.1869
     34  C         75.3010   -9.9860   54.3360 C.2    80  GLY80       0.2309
     35  O         74.4970  -10.5170   55.1010 O.2    80  GLY80      -0.2863
     36  N         69.7060   -5.0510   48.1910 N.3   153  CYS153     -0.1221
     37  CA        68.4300   -5.3100   48.8530 C.3   153  CYS153      0.1808
     38  C         68.5540   -5.4280   50.3470 C.2   153  CYS153      0.2601
     39  O         67.7070   -4.9190   51.0720 O.2   153  CYS153     -0.2717
     40  CB        67.7780   -6.5660   48.2830 C.3   153  CYS153      0.0970
     41  SG        67.7860   -6.6640   46.4860 S.3   153  CYS153     -0.0800
     42  N         69.5950   -6.1240   50.8060 N.am  154  HIS154     -0.1975
     43  CA        69.8090   -6.3740   52.2340 C.3   154  HIS154      0.1656
     44  C         70.3260   -5.1790   53.0510 C.2   154  HIS154      0.2291
     45  O         70.4690   -5.2970   54.2610 O.2   154  HIS154     -0.2864
     46  CB        70.7160   -7.6040   52.3800 C.3   154  HIS154      0.0771
     47  CG        70.1340   -8.8070   51.7030 C.ar  154  HIS154      0.0820
     48  ND1       70.7140   -9.3550   50.5760 N.ar  154  HIS154     -0.2267
     49  CD2       69.0150   -9.5060   52.0020 C.ar  154  HIS154      0.1154
     50  CE1       69.9520  -10.3850   50.2440 C.ar  154  HIS154      0.1986
     51  NE2       68.9100  -10.5040   51.0700 N.ar  154  HIS154     -0.2212
     52  N         71.7420  -11.9490   42.1390 N.3   196  ALA196     -0.1231
     53  CA        72.6390  -12.9130   42.7920 C.3   196  ALA196      0.1694
     54  C         72.1380  -13.4920   44.1200 C.2   196  ALA196      0.2593
     55  O         72.4020  -14.6630   44.4160 O.2   196  ALA196     -0.2718
     56  CB        74.0100  -12.2810   43.0190 C.3   196  ALA196      0.0304
     57  N         71.4720  -12.6590   44.9080 N.am  197  GLY197     -0.1942
     58  CA        70.9790  -13.0180   46.2350 C.3   197  GLY197      0.2014
     59  C         70.1650  -14.2810   46.4050 C.2   197  GLY197      0.2639
     60  O         69.6480  -14.8410   45.4450 O.2   197  GLY197     -0.2714
     61  N         70.0440  -14.7050   47.6600 N.am  198  GLY198     -0.1939
     62  CA        69.2810  -15.8880   48.0430 C.3   198  GLY198      0.2014
     63  C         69.8070  -17.2010   47.5000 C.2   198  GLY198      0.2639
     64  O         69.0750  -18.1910   47.4750 O.2   198  GLY198     -0.2714
     65  N         71.0720  -17.2090   47.0740 N.am  199  GLY199     -0.1954
     66  CA        71.7170  -18.3960   46.5230 C.3   199  GLY199      0.1869
     67  C         71.3890  -18.6300   45.0680 C.2   199  GLY199      0.2309
     68  O         71.7500  -19.6620   44.5000 O.2   199  GLY199     -0.2863
     69  N         78.1810   -3.9050   48.1310 N.3   231  CYS231     -0.1235
     70  CA        78.1290   -5.3220   48.4640 C.3   231  CYS231      0.1677
     71  C         79.0370   -6.1130   47.5510 C.2   231  CYS231      0.2270
     72  O         78.8600   -6.0850   46.3370 O.2   231  CYS231     -0.2867
     73  CB        76.6920   -5.8280   48.3870 C.3   231  CYS231      0.0956
     74  SG        76.4990   -7.5670   48.8450 S.3   231  CYS231     -0.0801
     75  N         78.9920   -9.1410   46.9090 N.3   233  PHE233     -0.1227
     76  CA        78.1960  -10.1050   46.1520 C.3   233  PHE233      0.1736
     77  C         77.6990   -9.3990   44.8910 C.2   233  PHE233      0.2595
     78  O         77.8340   -9.9380   43.7950 O.2   233  PHE233     -0.2718
     79  CB        77.0120  -10.6260   46.9820 C.3   233  PHE233      0.0547
     80  CG        77.1310  -12.0720   47.3940 C.ar  233  PHE233     -0.0202
     81  CD1       76.8150  -13.0910   46.5090 C.ar  233  PHE233     -0.0042
     82  CD2       77.5250  -12.4130   48.6800 C.ar  233  PHE233     -0.0042
     83  CE1       76.9030  -14.4260   46.9000 C.ar  233  PHE233     -0.0003
     84  CE2       77.6130  -13.7470   49.0670 C.ar  233  PHE233     -0.0003
     85  CZ        77.3020  -14.7440   48.1770 C.ar  233  PHE233     -0.0000
     86  N         77.1530   -8.1770   45.0500 N.am  234  CYS234     -0.1970
     87  CA        76.6530   -7.3690   43.9340 C.3   234  CYS234      0.1712
     88  C         77.8210   -7.0840   42.9850 C.2   234  CYS234      0.2296
     89  O         77.6900   -7.2060   41.7640 O.2   234  CYS234     -0.2864
     90  CB        76.0370   -6.0680   44.4450 C.3   234  CYS234      0.0983
     91  SG        74.4140   -6.2620   45.2260 S.3   234  CYS234     -0.0798
@<TRIPOS>BOND
     1    89    88    2
     2    52    53    1
     3    53    56    1
     4    53    54    1
     5    88    87    1
     6    78    77    2
     7    87    90    1
     8    87    86    1
     9    54    55    2
    10    54    57   am
    11    90    91    1
    12    68    67    2
    13    77    86   am
    14    77    76    1
    15    57    58    1
    16    67    66    1
    17    60    59    2
    18    76    75    1
    19    76    79    1
    20    58    59    1
    21    72    71    2
    22    59    61   am
    23    41    40    1
    24    81    83   ar
    25    81    80   ar
    26    66    65    1
    27    83    85   ar
    28    79    80    1
    29    65    63   am
    30    80    82   ar
    31    64    63    2
    32    63    62    1
    33    71    70    1
    34    61    62    1
    35    69    70    1
    36    85    84   ar
    37    36    37    1
    38    40    37    1
    39    73    70    1
    40    73    74    1
    41    82    84   ar
    42    37    38    1
    43    31    29   am
    44    23    21    1
    45    50    48   ar
    46    50    51   ar
    47    38    42   am
    48    38    39    2
    49    48    47   ar
    50    16    15    2
    51    42    43    1
    52    29    28    1
    53    29    30    2
    54    22    21    1
    55    14    15    1
    56    14    13    1
    57    51    49   ar
    58    15    17   am
    59    21    18    1
    60    28    25    1
    61    17    18    1
    62    18    19    1
    63    47    49   ar
    64    47    46    1
    65    43    46    1
    66    43    44    1
    67    13     8   am
    68    24    25    1
    69    32    33    1
    70    32    26   am
    71    25    26    1
    72     5     2    1
    73    33    34    1
    74    19    20    2
    75    44    45    2
    76    26    27    2
    77     8     9    2
    78     8     7    1
    79     2     3    1
    80     2     1    1
    81     4     3    2
    82     3     6   am
    83    34    35    2
    84     6    12    1
    85     6     7    1
    86    11    12    1
    87    11    10    1
    88     7    10    1
