@<TRIPOS>MOLECULE
tmp/5odnG00.pdb
 90 84 0 0 0
SMALL
GASTEIGER

@<TRIPOS>ATOM
      1  N        -45.5300   -9.2210   41.4420 N.3    13  ASN13      -0.1225
      2  CA       -46.4420   -9.3140   42.5700 C.3    13  ASN13       0.1785
      3  C        -46.7360  -10.7810   42.8440 C.2    13  ASN13       0.2597
      4  O        -46.9640  -11.5640   41.9150 O.2    13  ASN13      -0.2718
      5  CB       -47.7460   -8.5580   42.2990 C.3    13  ASN13       0.1169
      6  CG       -47.5290   -7.0780   42.0490 C.2    13  ASN13       0.2627
      7  OD1      -47.1740   -6.6740   40.9430 O.2    13  ASN13      -0.2716
      8  ND2      -47.7690   -6.2540   43.0750 N.am   13  ASN13      -0.0877
      9  N        -46.7270  -11.1540   44.1180 N.am   14  LEU14      -0.1966
     10  CA       -47.0090  -12.5390   44.4700 C.3    14  LEU14       0.1728
     11  C        -48.4490  -12.8870   44.1510 C.2    14  LEU14       0.2617
     12  O        -49.3510  -12.0590   44.2940 O.2    14  LEU14      -0.2715
     13  CB       -46.7430  -12.7960   45.9460 C.3    14  LEU14       0.0311
     14  CG       -45.3170  -12.5630   46.4040 C.3    14  LEU14       0.0022
     15  CD1      -45.2530  -12.7960   47.8980 C.3    14  LEU14       0.0001
     16  CD2      -44.3790  -13.4830   45.6710 C.3    14  LEU14       0.0001
     17  N        -48.6640  -14.1240   43.7300 N.am   15  GLY15      -0.1940
     18  CA       -49.9990  -14.5310   43.3610 C.3    15  GLY15       0.2014
     19  C        -50.7660  -15.1920   44.4620 C.2    15  GLY15       0.2638
     20  O        -51.9830  -15.3800   44.3460 O.2    15  GLY15      -0.2714
     21  N        -50.0570  -15.5660   45.5200 N.am   16  ASP16      -0.1971
     22  CA       -50.6190  -16.1920   46.7010 C.3    16  ASP16       0.1709
     23  C        -49.6660  -15.8650   47.8370 C.2    16  ASP16       0.2293
     24  O        -48.5350  -15.4260   47.6030 O.2    16  ASP16      -0.2864
     25  CB       -50.7900  -17.7040   46.5070 C.3    16  ASP16       0.1436
     26  CG       -51.5470  -18.3740   47.6500 C.2    16  ASP16       0.3671
     27  OD1      -52.0460  -17.6740   48.5700 O.co2  16  ASP16      -0.2456
     28  OD2      -51.6680  -19.6180   47.6040 O.co2  16  ASP16      -0.2456
     29  N        -45.1300  -17.8840   44.3350 N.3    33  SER33      -0.1217
     30  CA       -45.5530  -17.7500   42.9480 C.3    33  SER33       0.1889
     31  C        -45.5880  -16.2660   42.6220 C.2    33  SER33       0.2288
     32  O        -46.3550  -15.5160   43.2360 O.2    33  SER33      -0.2866
     33  CB       -46.9250  -18.3780   42.7250 C.3    33  SER33       0.2089
     34  OG       -47.1380  -18.6760   41.3640 O.3    33  SER33      -0.2183
     35  N        -45.9210  -13.1630   39.7370 N.3    35  ALA35      -0.1245
     36  CA       -46.3720  -12.7140   38.4290 C.3    35  ALA35       0.1562
     37  C        -45.6050  -11.4620   38.0490 C.2    35  ALA35       0.2260
     38  O        -45.6860  -10.4420   38.7500 O.2    35  ALA35      -0.2867
     39  CB       -47.8720  -12.4230   38.4290 C.3    35  ALA35       0.0290
     40  N        -45.6180   -8.6590   35.2980 N.3    37  ASN37      -0.1240
     41  CA       -46.6020   -8.0920   34.3780 C.3    37  ASN37       0.1653
     42  C        -45.8890   -7.1760   33.3940 C.2    37  ASN37       0.2266
     43  O        -45.3780   -6.1190   33.7760 O.2    37  ASN37      -0.2867
     44  CB       -47.6920   -7.3240   35.1290 C.3    37  ASN37       0.1155
     45  CG       -48.4400   -8.1930   36.1340 C.2    37  ASN37       0.2627
     46  OD1      -49.2770   -9.0090   35.7520 O.2    37  ASN37      -0.2716
     47  ND2      -48.1420   -8.0160   37.4230 N.am   37  ASN37      -0.0877
     48  N        -51.6840   -6.5790   28.2190 N.3    49  GLN49      -0.1245
     49  CA       -50.9930   -7.1190   29.3800 C.3    49  GLN49       0.1566
     50  C        -50.6740   -8.5940   29.1680 C.2    49  GLN49       0.2260
     51  O        -51.5720   -9.4030   28.9100 O.2    49  GLN49      -0.2867
     52  CB       -51.8310   -6.9580   30.6430 C.3    49  GLN49       0.0367
     53  CG       -51.4360   -7.9610   31.7060 C.3    49  GLN49       0.0905
     54  CD       -51.5370   -7.4170   33.1150 C.2    49  GLN49       0.2608
     55  OE1      -50.8540   -6.4540   33.4830 O.2    49  GLN49      -0.2717
     56  NE2      -52.3980   -8.0350   33.9170 N.am   49  GLN49      -0.0878
     57  N        -48.7160  -11.6540   31.2170 N.3    51  THR51      -0.1218
     58  CA       -48.2220  -12.0130   32.5320 C.3    51  THR51       0.1862
     59  C        -47.4320  -13.3080   32.4510 C.2    51  THR51       0.2287
     60  O        -47.8530  -14.2700   31.8010 O.2    51  THR51      -0.2866
     61  CB       -49.3760  -12.1530   33.5150 C.3    51  THR51       0.1770
     62  OG1      -50.1540  -10.9540   33.4740 O.3    51  THR51      -0.2211
     63  CG2      -48.8580  -12.3450   34.9280 C.3    51  THR51       0.0375
     64  N        -45.5460  -16.2420   34.9800 N.3    53  TRP53      -0.1241
     65  CA       -45.6230  -16.7880   36.3310 C.3    53  TRP53       0.1605
     66  C        -44.3650  -17.5860   36.6220 C.2    53  TRP53       0.2264
     67  O        -43.9970  -18.4720   35.8440 O.2    53  TRP53      -0.2867
     68  CB       -46.8460  -17.6860   36.5130 C.3    53  TRP53       0.0550
     69  CG       -48.1090  -16.9290   36.6050 C.ar   53  TRP53       0.0003
     70  CD1      -49.0020  -16.7150   35.6050 C.ar   53  TRP53       0.0946
     71  CD2      -48.6290  -16.2490   37.7630 C.ar   53  TRP53       0.0152
     72  NE1      -50.0530  -15.9550   36.0630 N.ar   53  TRP53      -0.2442
     73  CE2      -49.8500  -15.6620   37.3880 C.ar   53  TRP53       0.0810
     74  CE3      -48.1790  -16.0820   39.0770 C.ar   53  TRP53       0.0012
     75  CZ2      -50.6270  -14.9150   38.2770 C.ar   53  TRP53       0.0191
     76  CZ3      -48.9590  -15.3490   39.9590 C.ar   53  TRP53       0.0001
     77  CH2      -50.1640  -14.7700   39.5530 C.ar   53  TRP53       0.0015
     78  N        -49.8520  -12.2650   49.4530 N.3    72  LYS72      -0.1231
     79  CA       -50.5300  -12.1690   48.1760 C.3    72  LYS72       0.1693
     80  C        -50.6910  -10.6980   47.8020 C.2    72  LYS72       0.2592
     81  O        -51.1870   -9.8850   48.5910 O.2    72  LYS72      -0.2718
     82  CB       -51.8840  -12.8950   48.2360 C.3    72  LYS72       0.0285
     83  CG       -52.8160  -12.5600   47.0880 C.3    72  LYS72       0.0035
     84  CD       -53.8460  -13.6250   46.7890 C.3    72  LYS72       0.0206
     85  CE       -55.0100  -13.6420   47.7880 C.3    72  LYS72       0.1093
     86  NZ       -55.8330  -12.4000   47.7370 N.3    72  LYS72      -0.1314
     87  N        -50.1970  -10.3500   46.6220 N.am   73  GLY73      -0.1957
     88  CA       -50.2590   -9.0040   46.1100 C.3    73  GLY73       0.1869
     89  C        -48.9980   -8.1910   46.3110 C.2    73  GLY73       0.2309
     90  O        -48.7890   -7.2150   45.5820 O.2    73  GLY73      -0.2863
@<TRIPOS>BOND
     1    48    49    1
     2    51    50    2
     3    50    49    1
     4    49    52    1
     5    52    53    1
     6    57    58    1
     7    53    54    1
     8    60    59    2
     9    59    58    1
    10    58    61    1
    11    54    55    2
    12    54    56   am
    13    42    43    2
    14    42    41    1
    15    62    61    1
    16    61    63    1
    17    41    44    1
    18    41    40    1
    19    64    65    1
    20    44    45    1
    21    70    72   ar
    22    70    69   ar
    23    46    45    2
    24    67    66    2
    25    72    73   ar
    26    45    47   am
    27    65    68    1
    28    65    66    1
    29    68    69    1
    30    69    71   ar
    31    73    71   ar
    32    73    75   ar
    33    71    74   ar
    34    37    36    1
    35    37    38    2
    36    75    77   ar
    37    36    39    1
    38    36    35    1
    39    74    76   ar
    40    77    76   ar
    41     7     6    2
    42    34    33    1
    43     1     2    1
    44     4     3    2
    45     6     5    1
    46     6     8   am
    47     5     2    1
    48     2     3    1
    49    31    30    1
    50    31    32    2
    51    33    30    1
    52     3     9   am
    53    30    29    1
    54    18    17    1
    55    18    19    1
    56    17    11   am
    57     9    10    1
    58    11    12    2
    59    11    10    1
    60    20    19    2
    61    19    21   am
    62    10    13    1
    63    21    22    1
    64    90    89    2
    65    16    14    1
    66    13    14    1
    67    88    89    1
    68    88    87    1
    69    14    15    1
    70    25    22    1
    71    25    26    1
    72    87    80   am
    73    22    23    1
    74    84    83    1
    75    84    85    1
    76    83    82    1
    77    24    23    2
    78    28    26   ar
    79    26    27   ar
    80    86    85    1
    81    80    79    1
    82    80    81    2
    83    79    82    1
    84    79    78    1
