@<TRIPOS>MOLECULE
tmp/5odnC00.pdb
 90 84 0 0 0
SMALL
GASTEIGER

@<TRIPOS>ATOM
      1  N        -81.7100  -24.5820   23.4420 N.3    15  ASN15      -0.1225
      2  CA       -82.4270  -24.3240   24.6870 C.3    15  ASN15       0.1785
      3  C        -83.1210  -25.5810   25.1780 C.2    15  ASN15       0.2597
      4  O        -83.5490  -26.4260   24.3840 O.2    15  ASN15      -0.2718
      5  CB       -83.4450  -23.2230   24.5100 C.3    15  ASN15       0.1169
      6  CG       -82.8040  -21.9310   24.1010 C.2    15  ASN15       0.2627
      7  OD1      -82.5140  -21.7210   22.9290 O.2    15  ASN15      -0.2716
      8  ND2      -82.5650  -21.0570   25.0630 N.am   15  ASN15      -0.0877
      9  N        -83.2230  -25.6960   26.5020 N.am   16  LEU16      -0.1966
     10  CA       -83.8650  -26.8490   27.1120 C.3    16  LEU16       0.1728
     11  C        -85.3680  -26.7320   26.9520 C.2    16  LEU16       0.2617
     12  O        -85.9440  -25.6570   27.1450 O.2    16  LEU16      -0.2715
     13  CB       -83.5080  -26.9670   28.5940 C.3    16  LEU16       0.0311
     14  CG       -82.0680  -27.3250   28.9830 C.3    16  LEU16       0.0022
     15  CD1      -81.9810  -27.6320   30.4790 C.3    16  LEU16       0.0001
     16  CD2      -81.5660  -28.4980   28.1580 C.3    16  LEU16       0.0001
     17  N        -86.0010  -27.8460   26.5710 N.am   17  GLY17      -0.1940
     18  CA       -87.4390  -27.8580   26.4280 C.3    17  GLY17       0.2014
     19  C        -88.1770  -28.0660   27.7230 C.2    17  GLY17       0.2638
     20  O        -89.3600  -27.7210   27.8080 O.2    17  GLY17      -0.2714
     21  N        -87.5020  -28.6230   28.7290 N.am   18  ASP18      -0.1971
     22  CA       -88.0700  -28.8130   30.0570 C.3    18  ASP18       0.1709
     23  C        -86.9360  -28.7650   31.0720 C.2    18  ASP18       0.2293
     24  O        -85.7570  -28.7480   30.7080 O.2    18  ASP18      -0.2864
     25  CB       -88.8420  -30.1300   30.1520 C.3    18  ASP18       0.1436
     26  CG       -89.9240  -30.0870   31.2020 C.2    18  ASP18       0.3671
     27  OD1      -89.8020  -29.2900   32.1570 O.co2  18  ASP18      -0.2456
     28  OD2      -90.9090  -30.8370   31.0630 O.co2  18  ASP18      -0.2456
     29  N        -83.5540  -32.5830   27.4060 N.3    35  SER35      -0.1217
     30  CA       -84.0910  -32.4710   26.0600 C.3    35  SER35       0.1889
     31  C        -83.7380  -31.0840   25.5380 C.2    35  SER35       0.2288
     32  O        -84.1650  -30.0760   26.1100 O.2    35  SER35      -0.2866
     33  CB       -85.6040  -32.6980   26.0670 C.3    35  SER35       0.2089
     34  OG       -86.0960  -32.8410   24.7540 O.3    35  SER35      -0.2183
     35  N        -83.5620  -28.3160   22.4200 N.3    37  ALA37      -0.1245
     36  CA       -84.0470  -27.8500   21.1260 C.3    37  ALA37       0.1562
     37  C        -82.9590  -27.0210   20.4640 C.2    37  ALA37       0.2260
     38  O        -82.3990  -26.1130   21.0890 O.2    37  ALA37      -0.2867
     39  CB       -85.3250  -27.0080   21.2620 C.3    37  ALA37       0.0290
     40  N        -82.5440  -24.6150   17.0550 N.3    39  ASN39      -0.1240
     41  CA       -83.4000  -23.8550   16.1680 C.3    39  ASN39       0.1653
     42  C        -82.6140  -23.3900   14.9590 C.2    39  ASN39       0.2266
     43  O        -81.4150  -23.1250   15.0430 O.2    39  ASN39      -0.2867
     44  CB       -83.9890  -22.6510   16.9030 C.3    39  ASN39       0.1155
     45  CG       -84.9350  -23.0640   18.0220 C.2    39  ASN39       0.2627
     46  OD1      -86.1220  -23.2890   17.7940 O.2    39  ASN39      -0.2716
     47  ND2      -84.4060  -23.1820   19.2340 N.am   39  ASN39      -0.0877
     48  N        -88.8540  -22.0070    9.5860 N.3    43  GLN43      -0.1245
     49  CA       -88.7500  -22.0420   11.0440 C.3    43  GLN43       0.1566
     50  C        -88.7840  -23.5080   11.4690 C.2    43  GLN43       0.2260
     51  O        -89.8570  -24.1160   11.5290 O.2    43  GLN43      -0.2867
     52  CB       -89.8740  -21.2410   11.6950 C.3    43  GLN43       0.0367
     53  CG       -89.9580  -21.4190   13.1990 C.3    43  GLN43       0.0905
     54  CD       -89.0160  -20.5860   14.0280 C.2    43  GLN43       0.2608
     55  OE1      -88.7500  -19.3730   13.9270 O.2    43  GLN43      -0.2717
     56  NE2      -88.3520  -21.2360   14.9560 N.am   43  GLN43      -0.0878
     57  N        -87.1920  -26.6830   14.1590 N.3    45  THR45      -0.1218
     58  CA       -86.5730  -27.0570   15.4150 C.3    45  THR45       0.1862
     59  C        -86.1520  -28.5150   15.3330 C.2    45  THR45       0.2287
     60  O        -86.7570  -29.3080   14.6030 O.2    45  THR45      -0.2866
     61  CB       -87.5420  -26.8560   16.5860 C.3    45  THR45       0.1770
     62  OG1      -88.0400  -25.5130   16.5700 O.3    45  THR45      -0.2211
     63  CG2      -86.8530  -27.1180   17.9200 C.3    45  THR45       0.0375
     64  N        -84.9350  -31.7180   18.1330 N.3    47  TRP47      -0.1241
     65  CA       -84.8970  -32.1050   19.5410 C.3    47  TRP47       0.1605
     66  C        -83.8920  -33.2230   19.7770 C.2    47  TRP47       0.2264
     67  O        -83.9310  -34.2550   19.0930 O.2    47  TRP47      -0.2867
     68  CB       -86.2730  -32.5510   20.0210 C.3    47  TRP47       0.0550
     69  CG       -87.2400  -31.4520   20.0630 C.ar   47  TRP47       0.0003
     70  CD1      -88.1220  -31.1140   19.0980 C.ar   47  TRP47       0.0946
     71  CD2      -87.4150  -30.5110   21.1200 C.ar   47  TRP47       0.0152
     72  NE1      -88.8630  -30.0300   19.4900 N.ar   47  TRP47      -0.2442
     73  CE2      -88.4490  -29.6380   20.7320 C.ar   47  TRP47       0.0810
     74  CE3      -86.8060  -30.3260   22.3620 C.ar   47  TRP47       0.0012
     75  CZ2      -88.8860  -28.5890   21.5330 C.ar   47  TRP47       0.0191
     76  CZ3      -87.2470  -29.2830   23.1660 C.ar   47  TRP47       0.0001
     77  CH2      -88.2720  -28.4250   22.7440 C.ar   47  TRP47       0.0015
     78  N        -85.9280  -24.9940   32.2030 N.3    66  LYS66      -0.1231
     79  CA       -86.5780  -24.8830   30.9000 C.3    66  LYS66       0.1693
     80  C        -86.2000  -23.5520   30.2580 C.2    66  LYS66       0.2592
     81  O        -86.1140  -22.5230   30.9350 O.2    66  LYS66      -0.2718
     82  CB       -88.1040  -25.0060   31.0320 C.3    66  LYS66       0.0285
     83  CG       -88.6420  -23.9470   32.0360 C.3    66  LYS66       0.0035
     84  CD       -90.1430  -24.2060   32.2550 C.3    66  LYS66       0.0206
     85  CE       -90.8290  -24.4520   30.9030 C.3    66  LYS66       0.1093
     86  NZ       -92.3120  -24.6420   31.1680 N.3    66  LYS66      -0.1314
     87  N        -85.9080  -23.5880   28.9570 N.am   67  GLY67      -0.1957
     88  CA       -85.5360  -22.4010   28.2090 C.3    67  GLY67       0.1869
     89  C        -84.0840  -21.9680   28.3070 C.2    67  GLY67       0.2309
     90  O        -83.7000  -21.0050   27.6320 O.2    67  GLY67      -0.2863
@<TRIPOS>BOND
     1    48    49    1
     2    49    50    1
     3    49    52    1
     4    50    51    2
     5    52    53    1
     6    53    54    1
     7    55    54    2
     8    54    56   am
     9    57    58    1
    10    60    59    2
    11    42    43    2
    12    42    41    1
    13    59    58    1
    14    58    61    1
    15    41    44    1
    16    41    40    1
    17    62    61    1
    18    61    63    1
    19    44    45    1
    20    46    45    2
    21    45    47   am
    22    64    65    1
    23    67    66    2
    24    70    72   ar
    25    70    69   ar
    26    72    73   ar
    27    65    66    1
    28    65    68    1
    29    68    69    1
    30    69    71   ar
    31    37    38    2
    32    37    36    1
    33    73    71   ar
    34    73    75   ar
    35    71    74   ar
    36    36    39    1
    37    36    35    1
    38    75    77   ar
    39    74    76   ar
    40    77    76   ar
    41     7     6    2
    42     1     2    1
    43     6     5    1
    44     6     8   am
    45     4     3    2
    46     5     2    1
    47     2     3    1
    48    34    33    1
    49     3     9   am
    50    31    30    1
    51    31    32    2
    52    30    33    1
    53    30    29    1
    54    18    17    1
    55    18    19    1
    56     9    10    1
    57    17    11   am
    58    11    10    1
    59    11    12    2
    60    10    13    1
    61    90    89    2
    62    19    20    2
    63    19    21   am
    64    16    14    1
    65    88    89    1
    66    88    87    1
    67    13    14    1
    68    21    22    1
    69    87    80   am
    70    14    15    1
    71    22    25    1
    72    22    23    1
    73    25    26    1
    74    80    79    1
    75    80    81    2
    76    24    23    2
    77    79    82    1
    78    79    78    1
    79    85    86    1
    80    85    84    1
    81    82    83    1
    82    28    26   ar
    83    26    27   ar
    84    83    84    1
