@<TRIPOS>MOLECULE
tmp/5odpB00.pdb
 117 110 0 0 0
SMALL
GASTEIGER

@<TRIPOS>ATOM
      1  N        108.7010   81.6130  143.6590 N.3    20  ARG20      -0.1231
      2  CA       108.3200   82.6100  144.6510 C.3    20  ARG20       0.1694
      3  C        108.3010   83.9990  144.0210 C.2    20  ARG20       0.2592
      4  O        108.8630   84.2050  142.9460 O.2    20  ARG20      -0.2718
      5  CB       109.2690   82.5740  145.8520 C.3    20  ARG20       0.0321
      6  CG       109.5490   81.1680  146.3610 C.3    20  ARG20       0.0489
      7  CD       109.5340   81.0890  147.8790 C.3    20  ARG20       0.2205
      8  NE       109.5090   79.7080  148.3640 N.pl3  20  ARG20      -0.0865
      9  CZ       108.5520   78.8160  148.1050 C.cat  20  ARG20       0.5346
     10  NH1      107.4890   79.1370  147.3730 N.pl3  20  ARG20       0.1354
     11  NH2      108.6530   77.5910  148.6040 N.pl3  20  ARG20       0.1354
     12  N        107.6500   84.9460  144.6880 N.am   21  TYR21      -0.1962
     13  CA       107.4990   86.2930  144.1470 C.3    21  TYR21       0.1771
     14  C        108.2950   87.3180  144.9500 C.2    21  TYR21       0.2620
     15  O        108.3880   87.2230  146.1730 O.2    21  TYR21      -0.2715
     16  CB       106.0210   86.6980  144.1150 C.3    21  TYR21       0.0574
     17  CG       105.1520   85.8330  143.2280 C.ar   21  TYR21      -0.0198
     18  CD1      104.6290   84.6330  143.6920 C.ar   21  TYR21      -0.0009
     19  CD2      104.8460   86.2220  141.9300 C.ar   21  TYR21      -0.0009
     20  CE1      103.8330   83.8400  142.8870 C.ar   21  TYR21       0.0417
     21  CE2      104.0490   85.4370  141.1170 C.ar   21  TYR21       0.0417
     22  CZ       103.5460   84.2460  141.6000 C.ar   21  TYR21       0.1957
     23  OH       102.7540   83.4600  140.7930 O.3    21  TYR21      -0.2866
     24  N        108.8680   88.2980  144.2570 N.am   22  THR22      -0.1937
     25  CA       109.5590   89.3980  144.9240 C.3    22  THR22       0.2028
     26  C        108.5540   90.3790  145.5100 C.2    22  THR22       0.2642
     27  O        107.3510   90.2650  145.2720 O.2    22  THR22      -0.2714
     28  CB       110.4960   90.1630  143.9670 C.3    22  THR22       0.1808
     29  OG1      109.7560   90.6090  142.8230 O.3    22  THR22      -0.2208
     30  CG2      111.6440   89.2810  143.5160 C.3    22  THR22       0.0379
     31  N        109.0560   91.3480  146.2700 N.am   23  GLY23      -0.1954
     32  CA       108.2150   92.3810  146.8450 C.3    23  GLY23       0.1869
     33  C        107.5190   93.2080  145.7800 C.2    23  GLY23       0.2309
     34  O        106.4920   93.8350  146.0390 O.2    23  GLY23      -0.2863
     35  N        107.2880   90.2230  141.0980 N.3    26  THR26      -0.1218
     36  CA       107.9280   89.5480  139.9730 C.3    26  THR26       0.1862
     37  C        108.1980   88.0770  140.2830 C.2    26  THR26       0.2287
     38  O        108.7530   87.7450  141.3300 O.2    26  THR26      -0.2866
     39  CB       109.2520   90.2350  139.5850 C.3    26  THR26       0.1770
     40  OG1      109.0100   91.6200  139.3080 O.3    26  THR26      -0.2211
     41  CG2      109.8590   89.5750  138.3560 C.3    26  THR26       0.0375
     42  N        109.8460   84.5870  140.5240 N.3    28  VAL28      -0.1245
     43  CA       111.2050   84.0600  140.5940 C.3    28  VAL28       0.1561
     44  C        111.1670   82.5520  140.8060 C.2    28  VAL28       0.2260
     45  O        110.6160   82.0730  141.7970 O.2    28  VAL28      -0.2867
     46  CB       112.0210   84.6990  141.7340 C.3    28  VAL28       0.0252
     47  CG1      113.5000   84.7180  141.3730 C.3    28  VAL28       0.0019
     48  CG2      111.5280   86.0960  142.0240 C.3    28  VAL28       0.0019
     49  N        113.3490   79.0460  141.2360 N.3    30  ASN30      -0.1240
     50  CA       114.6370   78.4230  141.5110 C.3    30  ASN30       0.1653
     51  C        114.5960   76.9210  141.2730 C.2    30  ASN30       0.2266
     52  O        113.6360   76.2480  141.6480 O.2    30  ASN30      -0.2867
     53  CB       115.0790   78.7150  142.9450 C.3    30  ASN30       0.1155
     54  CG       115.4910   80.1600  143.1420 C.2    30  ASN30       0.2627
     55  OD1      114.6620   81.0190  143.4430 O.2    30  ASN30      -0.2716
     56  ND2      116.7790   80.4370  142.9690 N.am   30  ASN30      -0.0877
     57  N        118.0990   79.7600  137.9370 N.3    56  VAL56      -0.1245
     58  CA       117.0110   80.6740  138.2520 C.3    56  VAL56       0.1561
     59  C        116.3810   81.2340  136.9770 C.2    56  VAL56       0.2260
     60  O        117.0810   81.6360  136.0460 O.2    56  VAL56      -0.2867
     61  CB       117.4940   81.8330  139.1610 C.3    56  VAL56       0.0252
     62  CG1      118.6970   82.5400  138.5490 C.3    56  VAL56       0.0019
     63  CG2      116.3630   82.8130  139.4350 C.3    56  VAL56       0.0019
     64  N        113.4060   84.0360  135.6620 N.3    58  TRP58      -0.1227
     65  CA       112.6070   85.1770  136.0930 C.3    58  TRP58       0.1737
     66  C        111.3490   85.3590  135.2520 C.2    58  TRP58       0.2596
     67  O        111.2800   84.9040  134.1100 O.2    58  TRP58      -0.2718
     68  CB       113.4470   86.4550  136.0500 C.3    58  TRP58       0.0564
     69  CG       114.5070   86.5050  137.1010 C.ar   58  TRP58       0.0003
     70  CD1      115.7600   85.9740  137.0270 C.ar   58  TRP58       0.0946
     71  CD2      114.4080   87.1200  138.3920 C.ar   58  TRP58       0.0152
     72  NE1      116.4480   86.2180  138.1910 N.ar   58  TRP58      -0.2442
     73  CE2      115.6390   86.9210  139.0440 C.ar   58  TRP58       0.0810
     74  CE3      113.3960   87.8200  139.0560 C.ar   58  TRP58       0.0012
     75  CZ2      115.8860   87.3950  140.3300 C.ar   58  TRP58       0.0191
     76  CZ3      113.6450   88.2920  140.3320 C.ar   58  TRP58       0.0001
     77  CH2      114.8780   88.0760  140.9560 C.ar   58  TRP58       0.0015
     78  N        110.3610   86.0320  135.8350 N.am   59  GLY59      -0.1957
     79  CA       109.1460   86.4080  135.1350 C.3    59  GLY59       0.1869
     80  C        108.3890   85.2700  134.4780 C.2    59  GLY59       0.2309
     81  O        108.1750   84.2170  135.0800 O.2    59  GLY59      -0.2863
     82  N        123.3010   82.9580  131.5320 N.3    80  LYS80      -0.1245
     83  CA       124.5510   83.5990  131.9250 C.3    80  LYS80       0.1561
     84  C        124.9250   83.2850  133.3690 C.2    80  LYS80       0.2260
     85  O        124.0560   83.0570  134.2090 O.2    80  LYS80      -0.2867
     86  CB       124.4530   85.1140  131.7360 C.3    80  LYS80       0.0271
     87  CG       123.2340   85.7460  132.3880 C.3    80  LYS80       0.0035
     88  CD       123.3000   87.2670  132.3200 C.3    80  LYS80       0.0206
     89  CE       124.4880   87.8010  133.1050 C.3    80  LYS80       0.1093
     90  NZ       124.4680   89.2840  133.2080 N.3    80  LYS80      -0.1314
     91  N        126.1330   84.2340  137.0530 N.3    82  GLN82      -0.1245
     92  CA       126.0210   85.3730  137.9560 C.3    82  GLN82       0.1566
     93  C        126.4340   84.9990  139.3740 C.2    82  GLN82       0.2260
     94  O        125.9160   84.0430  139.9510 O.2    82  GLN82      -0.2867
     95  CB       124.5950   85.9270  137.9610 C.3    82  GLN82       0.0367
     96  CG       124.2390   86.7480  136.7360 C.3    82  GLN82       0.0905
     97  CD       122.8610   87.3700  136.8390 C.2    82  GLN82       0.2608
     98  OE1      122.0490   86.9760  137.6770 O.2    82  GLN82      -0.2717
     99  NE2      122.5940   88.3590  135.9920 N.am   82  GLN82      -0.0878
    100  N        125.1360   81.5810  140.3780 N.3    86  GLU86      -0.1245
    101  CA       123.9040   81.1010  139.7630 C.3    86  GLU86       0.1567
    102  C        123.9080   81.1910  138.2420 C.2    86  GLU86       0.2260
    103  O        124.5310   82.0780  137.6570 O.2    86  GLU86      -0.2867
    104  CB       122.7080   81.8860  140.3020 C.3    86  GLU86       0.0388
    105  CG       121.7480   81.0690  141.1430 C.3    86  GLU86       0.1160
    106  CD       120.5790   81.8920  141.6440 C.2    86  GLU86       0.3649
    107  OE1      120.5110   83.0930  141.3060 O.co2  86  GLU86      -0.2457
    108  OE2      119.7280   81.3390  142.3710 O.co2  86  GLU86      -0.2457
    109  N        121.5180   82.1930  135.4070 N.3    88  LYS88      -0.1245
    110  CA       120.2500   82.8390  135.0950 C.3    88  LYS88       0.1561
    111  C        119.7610   82.3860  133.7270 C.2    88  LYS88       0.2260
    112  O        120.3930   82.6670  132.7100 O.2    88  LYS88      -0.2867
    113  CB       120.3740   84.3610  135.1270 C.3    88  LYS88       0.0271
    114  CG       119.0830   85.0630  134.7360 C.3    88  LYS88       0.0035
    115  CD       119.3360   86.3890  134.0460 C.3    88  LYS88       0.0206
    116  CE       119.6170   87.4910  135.0480 C.3    88  LYS88       0.1093
    117  NZ       119.7980   88.8090  134.3780 N.3    88  LYS88      -0.1314
@<TRIPOS>BOND
     1    82    83    1
     2    86    83    1
     3    86    87    1
     4    83    84    1
     5    88    87    1
     6    88    89    1
     7   112   111    2
     8    89    90    1
     9    84    85    2
    10   111   110    1
    11   115   114    1
    12   115   116    1
    13    67    66    2
    14   117   116    1
    15    80    81    2
    16    80    79    1
    17   114   113    1
    18   110   113    1
    19   110   109    1
    20    79    78    1
    21    66    78   am
    22    66    65    1
    23    64    65    1
    24    99    97   am
    25    60    59    2
    26    68    65    1
    27    68    69    1
    28    96    97    1
    29    96    95    1
    30    97    98    2
    31    59    58    1
    32    70    69   ar
    33    70    72   ar
    34    91    92    1
    35    69    71   ar
    36   103   102    2
    37    57    58    1
    38    92    95    1
    39    92    93    1
    40    72    73   ar
    41   102   101    1
    42    58    61    1
    43    41    39    1
    44    71    73   ar
    45    71    74   ar
    46    62    61    1
    47    73    75   ar
    48    74    76   ar
    49    61    63    1
    50    40    39    1
    51    93    94    2
    52    39    36    1
    53   101   104    1
    54   101   100    1
    55    36    37    1
    56    36    35    1
    57    37    38    2
    58   104   105    1
    59    75    77   ar
    60    76    77   ar
    61    42    43    1
    62    43    44    1
    63    43    46    1
    64    23    22    1
    65    44    45    2
    66    21    22   ar
    67    21    19   ar
    68   105   106    1
    69    49    50    1
    70    51    50    1
    71    51    52    2
    72   107   106   ar
    73    47    46    1
    74    50    53    1
    75    22    20   ar
    76   106   108   ar
    77    46    48    1
    78    19    17   ar
    79    29    28    1
    80    20    18   ar
    81    53    54    1
    82     4     3    2
    83    56    54   am
    84    54    55    2
    85    17    18   ar
    86    17    16    1
    87    30    28    1
    88     1     2    1
    89    28    25    1
    90     3     2    1
    91     3    12   am
    92    16    13    1
    93    13    12    1
    94    13    14    1
    95    24    25    1
    96    24    14   am
    97     2     5    1
    98    25    26    1
    99    14    15    2
   100    27    26    2
   101    26    31   am
   102    33    34    2
   103    33    32    1
   104     5     6    1
   105    31    32    1
   106     6     7    1
   107    10     9    1
   108     7     8    1
   109     9     8    2
   110     9    11    1
