@<TRIPOS>MOLECULE
tmp/5odpA00.pdb
 81 76 0 0 0
SMALL
GASTEIGER

@<TRIPOS>ATOM
      1  N        138.3160   90.1440  130.3260 N.3    11  ASN11      -0.1225
      2  CA       139.6910   90.4740  130.6800 C.3    11  ASN11       0.1785
      3  C        140.0470   89.9870  132.0770 C.2    11  ASN11       0.2597
      4  O        139.1920   89.9250  132.9590 O.2    11  ASN11      -0.2718
      5  CB       139.9240   91.9820  130.5800 C.3    11  ASN11       0.1169
      6  CG       139.5900   92.5340  129.2080 C.2    11  ASN11       0.2627
      7  OD1      138.4410   92.8770  128.9280 O.2    11  ASN11      -0.2716
      8  ND2      140.5950   92.6250  128.3460 N.am   11  ASN11      -0.0877
      9  N        141.3140   89.6350  132.2700 N.am   12  LEU12      -0.1966
     10  CA       141.7900   89.1680  133.5660 C.3    12  LEU12       0.1728
     11  C        141.8760   90.3080  134.5730 C.2    12  LEU12       0.2617
     12  O        142.3320   91.4030  134.2490 O.2    12  LEU12      -0.2715
     13  CB       143.1560   88.4950  133.4240 C.3    12  LEU12       0.0311
     14  CG       143.1390   87.1110  132.7780 C.3    12  LEU12       0.0022
     15  CD1      144.5400   86.5240  132.7300 C.3    12  LEU12       0.0001
     16  CD2      142.1910   86.2040  133.5420 C.3    12  LEU12       0.0001
     17  N        141.4360   90.0410  135.7980 N.am   13  GLY13      -0.1940
     18  CA       141.4640   91.0380  136.8500 C.3    13  GLY13       0.2014
     19  C        142.8240   91.1570  137.5080 C.2    13  GLY13       0.2638
     20  O        143.1280   92.1670  138.1430 O.2    13  GLY13      -0.2714
     21  N        143.6430   90.1220  137.3510 N.am   14  ASP14      -0.1971
     22  CA       144.9700   90.0930  137.9550 C.3    14  ASP14       0.1709
     23  C        145.8320   89.0470  137.2520 C.2    14  ASP14       0.2293
     24  O        145.3350   88.2730  136.4280 O.2    14  ASP14      -0.2864
     25  CB       144.8660   89.7960  139.4580 C.3    14  ASP14       0.1436
     26  CG       146.2000   89.9150  140.1830 C.2    14  ASP14       0.3671
     27  OD1      147.2030   90.2990  139.5430 O.co2  14  ASP14      -0.2456
     28  OD2      146.2420   89.6230  141.3970 O.co2  14  ASP14      -0.2456
     29  N        140.8820   85.2110  137.6950 N.3    31  SER31      -0.1217
     30  CA       139.6620   85.9940  137.8270 C.3    31  SER31       0.1889
     31  C        139.3690   86.7170  136.5210 C.2    31  SER31       0.2288
     32  O        140.1530   87.5550  136.0770 O.2    31  SER31      -0.2866
     33  CB       139.7800   86.9970  138.9770 C.3    31  SER31       0.2089
     34  OG       139.9810   86.3350  140.2140 O.3    31  SER31      -0.2183
     35  N        136.7790   89.1030  134.2310 N.3    33  ALA33      -0.1245
     36  CA       135.6790   90.0560  134.2710 C.3    33  ALA33       0.1562
     37  C        134.9480   90.1110  132.9370 C.2    33  ALA33       0.2260
     38  O        135.5310   90.4600  131.9110 O.2    33  ALA33      -0.2867
     39  CB       136.1850   91.4360  134.6480 C.3    33  ALA33       0.0290
     40  N        132.0400   92.1500  131.1270 N.3    35  ASN35      -0.1240
     41  CA       131.3570   93.4210  131.3090 C.3    35  ASN35       0.1653
     42  C        130.0840   93.5470  130.4870 C.2    35  ASN35       0.2266
     43  O        130.0960   93.4050  129.2660 O.2    35  ASN35      -0.2867
     44  CB       132.2990   94.5780  130.9740 C.3    35  ASN35       0.1155
     45  CG       133.3260   94.8220  132.0610 C.2    35  ASN35       0.2627
     46  OD1      133.0610   95.5300  133.0330 O.2    35  ASN35      -0.2716
     47  ND2      134.5050   94.2320  131.9050 N.am   35  ASN35      -0.0877
     48  N        129.7360   94.6020  135.9900 N.3    49  THR49      -0.1218
     49  CA       130.8610   93.6880  135.8260 C.3    49  THR49       0.1862
     50  C        130.6490   92.3760  136.5730 C.2    49  THR49       0.2287
     51  O        130.5040   92.3630  137.7950 O.2    49  THR49      -0.2866
     52  CB       132.1760   94.3280  136.3120 C.3    49  THR49       0.1770
     53  OG1      132.4860   95.4670  135.4990 O.3    49  THR49      -0.2211
     54  CG2      133.3180   93.3260  136.2300 C.3    49  THR49       0.0375
     55  N        132.2800   88.8990  137.7720 N.3    51  TRP51      -0.1241
     56  CA       133.5730   88.2710  138.0120 C.3    51  TRP51       0.1605
     57  C        133.4440   86.7550  138.0630 C.2    51  TRP51       0.2264
     58  O        132.5080   86.2200  138.6590 O.2    51  TRP51      -0.2867
     59  CB       134.1940   88.8000  139.3060 C.3    51  TRP51       0.0550
     60  CG       134.6090   90.2320  139.2050 C.ar   51  TRP51       0.0003
     61  CD1      133.9030   91.3240  139.6190 C.ar   51  TRP51       0.0946
     62  CD2      135.8230   90.7320  138.6340 C.ar   51  TRP51       0.0152
     63  NE1      134.6070   92.4720  139.3480 N.ar   51  TRP51      -0.2442
     64  CE2      135.7890   92.1350  138.7430 C.ar   51  TRP51       0.0810
     65  CE3      136.9360   90.1260  138.0430 C.ar   51  TRP51       0.0012
     66  CZ2      136.8250   92.9430  138.2840 C.ar   51  TRP51       0.0191
     67  CZ3      137.9640   90.9310  137.5890 C.ar   51  TRP51       0.0001
     68  CH2      137.9010   92.3230  137.7090 C.ar   51  TRP51       0.0015
     69  N        147.7240   90.4890  133.5730 N.3    70  LYS70      -0.1231
     70  CA       146.5970   91.2270  134.1290 C.3    70  LYS70       0.1693
     71  C        146.0020   92.1560  133.0780 C.2    70  LYS70       0.2592
     72  O        146.6840   93.0410  132.5630 O.2    70  LYS70      -0.2718
     73  CB       147.0220   92.0340  135.3570 C.3    70  LYS70       0.0285
     74  CG       145.9440   92.9820  135.8650 C.3    70  LYS70       0.0035
     75  CD       146.4470   93.8450  137.0090 C.3    70  LYS70       0.0206
     76  CE       145.3770   94.8300  137.4600 C.3    70  LYS70       0.1093
     77  NZ       145.8740   95.7490  138.5230 N.3    70  LYS70      -0.1314
     78  N        144.7310   91.9440  132.7560 N.am   71  GLY71      -0.1957
     79  CA       144.0500   92.7720  131.7780 C.3    71  GLY71       0.1869
     80  C        144.0310   92.1670  130.3880 C.2    71  GLY71       0.2309
     81  O        143.4600   92.7430  129.4610 O.2    71  GLY71      -0.2863
@<TRIPOS>BOND
     1     8     6   am
     2     7     6    2
     3     6     5    1
     4    43    42    2
     5    81    80    2
     6     1     2    1
     7    80    79    1
     8    42    41    1
     9     5     2    1
    10     2     3    1
    11    44    41    1
    12    44    45    1
    13    40    41    1
    14    79    78    1
    15    47    45   am
    16    38    37    2
    17    45    46    2
    18     3     9   am
    19     3     4    2
    20     9    10    1
    21    72    71    2
    22    15    14    1
    23    78    71   am
    24    14    13    1
    25    14    16    1
    26    37    36    1
    27    71    70    1
    28    13    10    1
    29    10    11    1
    30    69    70    1
    31    70    73    1
    32    35    36    1
    33    12    11    2
    34    36    39    1
    35    11    17   am
    36    73    74    1
    37    53    52    1
    38    17    18    1
    39    49    48    1
    40    49    52    1
    41    49    50    1
    42    74    75    1
    43    32    31    2
    44    54    52    1
    45    24    23    2
    46    31    30    1
    47    50    51    2
    48    18    19    1
    49    75    76    1
    50    23    22    1
    51    21    19   am
    52    21    22    1
    53    76    77    1
    54    19    20    2
    55    67    68   ar
    56    67    65   ar
    57    29    30    1
    58    68    66   ar
    59    55    56    1
    60    30    33    1
    61    22    25    1
    62    56    57    1
    63    56    59    1
    64    65    62   ar
    65    57    58    2
    66    66    64   ar
    67    62    64   ar
    68    62    60   ar
    69    64    63   ar
    70    33    34    1
    71    60    59    1
    72    60    61   ar
    73    63    61   ar
    74    25    26    1
    75    27    26   ar
    76    26    28   ar
