@<TRIPOS>MOLECULE
tmp/5odpA01.pdb
 130 122 0 0 0
SMALL
GASTEIGER

@<TRIPOS>ATOM
      1  N        149.7380   77.4050  141.1940 N.3    19  ARG19      -0.1231
      2  CA       150.0570   76.6330  142.3850 C.3    19  ARG19       0.1694
      3  C        150.2460   75.1710  142.0010 C.2    19  ARG19       0.2592
      4  O        149.9780   74.7830  140.8630 O.2    19  ARG19      -0.2718
      5  CB       148.9530   76.7760  143.4380 C.3    19  ARG19       0.0321
      6  CG       148.6560   78.2130  143.8500 C.3    19  ARG19       0.0489
      7  CD       149.7970   78.8050  144.6610 C.3    19  ARG19       0.2205
      8  NE       149.5800   80.2110  144.9900 N.pl3  19  ARG19      -0.0865
      9  CZ       150.1480   81.2260  144.3470 C.cat  19  ARG19       0.5346
     10  NH1      150.9740   80.9950  143.3350 N.pl3  19  ARG19       0.1354
     11  NH2      149.8920   82.4740  144.7160 N.pl3  19  ARG19       0.1354
     12  N        150.7110   74.3640  142.9460 N.am   20  TYR20      -0.1962
     13  CA       150.8510   72.9330  142.7150 C.3    20  TYR20       0.1771
     14  C        150.1990   72.1470  143.8450 C.2    20  TYR20       0.2620
     15  O        150.3160   72.5100  145.0150 O.2    20  TYR20      -0.2715
     16  CB       152.3250   72.5460  142.5740 C.3    20  TYR20       0.0574
     17  CG       152.9540   72.9930  141.2740 C.ar   20  TYR20      -0.0198
     18  CD1      153.5090   74.2590  141.1470 C.ar   20  TYR20      -0.0009
     19  CD2      152.9910   72.1480  140.1730 C.ar   20  TYR20      -0.0009
     20  CE1      154.0830   74.6710  139.9590 C.ar   20  TYR20       0.0417
     21  CE2      153.5640   72.5520  138.9800 C.ar   20  TYR20       0.0417
     22  CZ       154.1090   73.8150  138.8800 C.ar   20  TYR20       0.1957
     23  OH       154.6790   74.2240  137.6960 O.3    20  TYR20      -0.2866
     24  N        149.5080   71.0710  143.4860 N.am   21  THR21      -0.1937
     25  CA       148.8200   70.2410  144.4670 C.3    21  THR21       0.2028
     26  C        149.8100   69.4250  145.2900 C.2    21  THR21       0.2642
     27  O        151.0220   69.5220  145.0970 O.2    21  THR21      -0.2714
     28  CB       147.8200   69.2830  143.7920 C.3    21  THR21       0.1808
     29  OG1      148.5250   68.3700  142.9420 O.3    21  THR21      -0.2208
     30  CG2      146.8090   70.0620  142.9650 C.3    21  THR21       0.0379
     31  N        149.2860   68.6180  146.2060 N.am   22  GLY22      -0.1954
     32  CA       150.1160   67.7300  146.9980 C.3    22  GLY22       0.1869
     33  C        150.7400   66.6610  146.1230 C.2    22  GLY22       0.2309
     34  O        151.8290   66.1650  146.4090 O.2    22  GLY22      -0.2863
     35  N        150.4520   68.3750  140.8180 N.3    25  THR25      -0.1218
     36  CA       149.7360   68.7570  139.6060 C.3    25  THR25       0.1862
     37  C        149.5780   70.2710  139.5410 C.2    25  THR25       0.2287
     38  O        149.2570   70.9140  140.5480 O.2    25  THR25      -0.2866
     39  CB       148.3450   68.0880  139.5320 C.3    25  THR25       0.1770
     40  OG1      148.4880   66.6670  139.6610 O.3    25  THR25      -0.2211
     41  CG2      147.6660   68.4050  138.2070 C.3    25  THR25       0.0375
     42  N        148.0340   73.7900  139.0310 N.3    27  VAL27      -0.1245
     43  CA       146.7120   74.3940  139.0860 C.3    27  VAL27       0.1561
     44  C        146.8140   75.9170  138.9760 C.2    27  VAL27       0.2260
     45  O        147.5430   76.5590  139.7330 O.2    27  VAL27      -0.2867
     46  CB       145.9510   74.0020  140.3820 C.3    27  VAL27       0.0252
     47  CG1      146.8280   74.2030  141.5940 C.3    27  VAL27       0.0019
     48  CG2      144.6510   74.7950  140.4960 C.3    27  VAL27       0.0019
     49  N        144.7420   79.4700  138.9750 N.3    29  ASN29      -0.1240
     50  CA       143.5020   80.1380  139.3380 C.3    29  ASN29       0.1653
     51  C        143.4570   81.5570  138.7940 C.2    29  ASN29       0.2266
     52  O        144.4200   82.3120  138.9320 O.2    29  ASN29      -0.2867
     53  CB       143.3370   80.1460  140.8560 C.3    29  ASN29       0.1155
     54  CG       143.5390   78.7750  141.4630 C.2    29  ASN29       0.2627
     55  OD1      142.6080   77.9760  141.5430 O.2    29  ASN29      -0.2716
     56  ND2      144.7640   78.4930  141.8910 N.am   29  ASN29      -0.0877
     57  N        139.5630   78.0910  136.5090 N.3    55  VAL55      -0.1245
     58  CA       140.6340   77.1890  136.9130 C.3    55  VAL55       0.1561
     59  C        141.1640   76.3860  135.7310 C.2    55  VAL55       0.2260
     60  O        140.3960   75.7710  134.9890 O.2    55  VAL55      -0.2867
     61  CB       140.1650   76.2120  138.0110 C.3    55  VAL55       0.0252
     62  CG1      141.3240   75.3500  138.4830 C.3    55  VAL55       0.0019
     63  CG2      139.5620   76.9770  139.1790 C.3    55  VAL55       0.0019
     64  N        144.0160   73.3730  134.7750 N.3    57  TRP57      -0.1241
     65  CA       144.8910   72.3440  135.3250 C.3    57  TRP57       0.1605
     66  C        145.9530   71.9050  134.3240 C.2    57  TRP57       0.2264
     67  O        145.7960   72.0890  133.1170 O.2    57  TRP57      -0.2867
     68  CB       144.0730   71.1290  135.7680 C.3    57  TRP57       0.0550
     69  CG       143.1300   71.4030  136.8970 C.ar   57  TRP57       0.0003
     70  CD1      141.8940   71.9720  136.8130 C.ar   57  TRP57       0.0946
     71  CD2      143.3400   71.1030  138.2820 C.ar   57  TRP57       0.0152
     72  NE1      141.3230   72.0530  138.0600 N.ar   57  TRP57      -0.2442
     73  CE2      142.1900   71.5270  138.9790 C.ar   57  TRP57       0.0810
     74  CE3      144.3890   70.5220  139.0000 C.ar   57  TRP57       0.0012
     75  CZ2      142.0620   71.3870  140.3600 C.ar   57  TRP57       0.0191
     76  CZ3      144.2590   70.3850  140.3710 C.ar   57  TRP57       0.0001
     77  CH2      143.1040   70.8160  141.0360 C.ar   57  TRP57       0.0015
     78  N        133.8440   73.6750  131.7890 N.3    79  LYS79      -0.1245
     79  CA       132.7220   73.1430  132.5500 C.3    79  LYS79       0.1561
     80  C        132.4150   73.9840  133.7830 C.2    79  LYS79       0.2260
     81  O        133.3120   74.5720  134.3860 O.2    79  LYS79      -0.2867
     82  CB       133.0060   71.7050  132.9890 C.3    79  LYS79       0.0271
     83  CG       133.1450   70.6910  131.8700 C.3    79  LYS79       0.0035
     84  CD       133.6200   69.3570  132.4340 C.3    79  LYS79       0.0206
     85  CE       132.8150   68.9670  133.6670 C.3    79  LYS79       0.1093
     86  NZ       133.3180   67.7210  134.3050 N.3    79  LYS79      -0.1314
     87  N        131.5350   73.8950  137.6180 N.3    81  GLN81      -0.1245
     88  CA       131.6900   72.9610  138.7300 C.3    81  GLN81       0.1566
     89  C        131.9820   73.6560  140.0600 C.2    81  GLN81       0.2260
     90  O        132.5830   74.7300  140.0990 O.2    81  GLN81      -0.2867
     91  CB       132.7930   71.9430  138.4230 C.3    81  GLN81       0.0367
     92  CG       134.1820   72.5310  138.2550 C.3    81  GLN81       0.0905
     93  CD       135.2280   71.4640  137.9850 C.2    81  GLN81       0.2608
     94  OE1      134.9810   70.5110  137.2450 O.2    81  GLN81      -0.2717
     95  NE2      136.4010   71.6170  138.5900 N.am   81  GLN81      -0.0878
     96  N        133.6180   73.3150  143.9680 N.3    83  ARG83      -0.1231
     97  CA       134.6220   72.5610  144.7190 C.3    83  ARG83       0.1694
     98  C        134.9560   73.1640  146.0840 C.2    83  ARG83       0.2592
     99  O        134.6250   74.3140  146.3690 O.2    83  ARG83      -0.2718
    100  CB       135.9050   72.4340  143.8940 C.3    83  ARG83       0.0321
    101  CG       135.7720   71.5330  142.6810 C.3    83  ARG83       0.0489
    102  CD       135.4130   70.1160  143.0950 C.3    83  ARG83       0.2205
    103  NE       135.2500   69.2330  141.9450 N.pl3  83  ARG83      -0.0865
    104  CZ       134.0910   69.0050  141.3370 C.cat  83  ARG83       0.5346
    105  NH1      132.9860   69.5980  141.7690 N.pl3  83  ARG83       0.1354
    106  NH2      134.0360   68.1860  140.2960 N.pl3  83  ARG83       0.1354
    107  N        135.6260   72.3610  146.9090 N.am   84  SER84      -0.1952
    108  CA       136.0500   72.7390  148.2580 C.3    84  SER84       0.1924
    109  C        134.9140   73.3450  149.0770 C.2    84  SER84       0.2314
    110  O        134.2760   72.6600  149.8760 O.2    84  SER84      -0.2863
    111  CB       137.2280   73.7140  148.1980 C.3    84  SER84       0.2116
    112  OG       136.7870   75.0600  148.2280 O.3    84  SER84      -0.2180
    113  N        133.1950   77.3010  140.2060 N.3    87  GLU87      -0.1245
    114  CA       134.2490   77.7500  139.3040 C.3    87  GLU87       0.1567
    115  C        134.0290   77.2500  137.8790 C.2    87  GLU87       0.2260
    116  O        133.2190   76.3570  137.6380 O.2    87  GLU87      -0.2867
    117  CB       135.6140   77.2700  139.8010 C.3    87  GLU87       0.0388
    118  CG       135.9020   77.5650  141.2650 C.3    87  GLU87       0.1160
    119  CD       136.9770   76.6660  141.8390 C.2    87  GLU87       0.3649
    120  OE1      137.0880   75.5100  141.3800 O.co2  87  GLU87      -0.2457
    121  OE2      137.7060   77.1140  142.7500 O.co2  87  GLU87      -0.2457
    122  N        136.0170   75.2750  135.1340 N.3    89  LYS89      -0.1245
    123  CA       137.1940   74.4920  134.7890 C.3    89  LYS89       0.1561
    124  C        137.4770   74.6230  133.3000 C.2    89  LYS89       0.2260
    125  O        136.7530   74.0720  132.4730 O.2    89  LYS89      -0.2867
    126  CB       137.0100   73.0220  135.1660 C.3    89  LYS89       0.0271
    127  CG       138.1470   72.1250  134.6980 C.3    89  LYS89       0.0035
    128  CD       137.8940   70.6710  135.0490 C.3    89  LYS89       0.0206
    129  CE       138.9380   69.7660  134.4130 C.3    89  LYS89       0.1093
    130  NZ       138.6530   68.3270  134.6670 N.3    89  LYS89      -0.1314
@<TRIPOS>BOND
     1    78    79    1
     2    83    84    1
     3    83    82    1
     4    84    85    1
     5   125   124    2
     6    79    82    1
     7    79    80    1
     8    67    66    2
     9   124   123    1
    10    85    86    1
    11    80    81    2
    12    66    65    1
    13   129   130    1
    14   129   128    1
    15   127   128    1
    16   127   126    1
    17    64    65    1
    18   123   122    1
    19   123   126    1
    20    60    59    2
    21    65    68    1
    22    59    58    1
    23    68    69    1
    24    57    58    1
    25    70    69   ar
    26    70    72   ar
    27    69    71   ar
    28    58    61    1
    29    94    93    2
    30    87    88    1
    31   116   115    2
    32    23    22    1
    33   115   114    1
    34    93    92    1
    35    93    95   am
    36    61    62    1
    37    61    63    1
    38    72    73   ar
    39    41    39    1
    40    92    91    1
    41    71    73   ar
    42    71    74   ar
    43    91    88    1
    44    88    89    1
    45    51    52    2
    46    51    50    1
    47    22    21   ar
    48    22    20   ar
    49    49    50    1
    50    44    43    1
    51    44    45    2
    52    73    75   ar
    53    21    19   ar
    54    74    76   ar
    55    42    43    1
    56    43    46    1
    57   114   117    1
    58   114   113    1
    59    50    53    1
    60    39    36    1
    61    39    40    1
    62    37    36    1
    63    37    38    2
    64    36    35    1
    65   117   118    1
    66    20    18   ar
    67    89    90    2
    68    19    17   ar
    69   106   104    1
    70    75    77   ar
    71    76    77   ar
    72    46    48    1
    73    46    47    1
    74    53    54    1
    75     4     3    2
    76    18    17   ar
    77     1     2    1
    78   118   119    1
    79    17    16    1
    80   104   105    1
    81   104   103    2
    82   120   119   ar
    83    54    55    2
    84    54    56   am
    85   119   121   ar
    86   103   102    1
    87     3     2    1
    88     3    12   am
    89     2     5    1
    90    16    13    1
    91   101   102    1
    92   101   100    1
    93    13    12    1
    94    13    14    1
    95    29    28    1
    96    30    28    1
    97    10     9    1
    98     5     6    1
    99    24    14   am
   100    24    25    1
   101    28    25    1
   102    14    15    2
   103     6     7    1
   104   100    97    1
   105    96    97    1
   106     9    11    1
   107     9     8    2
   108    25    26    1
   109     7     8    1
   110    97    98    1
   111    27    26    2
   112    26    31   am
   113    98    99    2
   114    98   107   am
   115    33    34    2
   116    33    32    1
   117    31    32    1
   118   107   108    1
   119   111   112    1
   120   111   108    1
   121   108   109    1
   122   109   110    2
