@<TRIPOS>MOLECULE
tmp/5odrF01.pdb
 87 82 0 0 0
SMALL
GASTEIGER

@<TRIPOS>ATOM
      1  N         66.0720   10.6910  152.4180 N.3   116  MET116     -0.1230
      2  CA        65.1330   11.0230  153.4830 C.3   116  MET116      0.1702
      3  C         64.7720    9.7680  154.2800 C.2   116  MET116      0.2592
      4  O         64.7110    9.8220  155.5050 O.2   116  MET116     -0.2718
      5  CB        63.8620   11.6510  152.8960 C.3   116  MET116      0.0401
      6  CG        62.9250   12.1950  153.9580 C.3   116  MET116      0.0596
      7  SD        61.6200   13.2620  153.3120 S.3   116  MET116     -0.1393
      8  CE        62.5740   14.7080  152.8500 C.3   116  MET116      0.0692
      9  N         64.5330    8.6340  153.5880 N.am  117  PHE117     -0.1976
     10  CA        64.1770    7.3740  154.2470 C.3   117  PHE117      0.1639
     11  C         65.1740    6.2550  153.8830 C.2   117  PHE117      0.2290
     12  O         64.8130    5.2930  153.2060 O.2   117  PHE117     -0.2864
     13  CB        62.7480    6.9620  153.8540 C.3   117  PHE117      0.0560
     14  CG        61.7310    8.0750  153.9210 C.ar  117  PHE117     -0.0200
     15  CD1       61.3230    8.5920  155.1420 C.ar  117  PHE117     -0.0042
     16  CD2       61.1680    8.5930  152.7650 C.ar  117  PHE117     -0.0042
     17  CE1       60.3750    9.6120  155.2060 C.ar  117  PHE117     -0.0003
     18  CE2       60.2250    9.6140  152.8290 C.ar  117  PHE117     -0.0003
     19  CZ        59.8330   10.1170  154.0510 C.ar  117  PHE117     -0.0000
     20  N         56.4890   16.3360  153.8610 N.3   135  HIS135     -0.1241
     21  CA        57.1910   17.5670  153.4970 C.3   135  HIS135      0.1621
     22  C         56.6730   18.0450  152.1330 C.2   135  HIS135      0.2264
     23  O         57.3660   17.9170  151.1260 O.2   135  HIS135     -0.2867
     24  CB        58.7010   17.3220  153.4320 C.3   135  HIS135      0.0745
     25  CG        59.3190   16.9610  154.7480 C.ar  135  HIS135      0.0817
     26  ND1       59.7160   17.9380  155.6510 N.ar  135  HIS135     -0.2268
     27  CD2       59.5980   15.7450  155.2710 C.ar  135  HIS135      0.1154
     28  CE1       60.2160   17.2870  156.6880 C.ar  135  HIS135      0.1986
     29  NE2       60.1670   15.9650  156.5050 N.ar  135  HIS135     -0.2212
     30  N         56.2470   21.0760  150.9490 N.3   137  GLU137     -0.1231
     31  CA        57.0280   22.2340  150.5030 C.3   137  GLU137      0.1699
     32  C         58.1800   21.8050  149.5900 C.2   137  GLU137      0.2592
     33  O         58.4680   22.4750  148.6010 O.2   137  GLU137     -0.2718
     34  CB        57.5670   22.9670  151.7510 C.3   137  GLU137      0.0402
     35  CG        58.5780   24.0680  151.4970 C.3   137  GLU137      0.1161
     36  CD        58.8870   24.8700  152.7480 C.2   137  GLU137      0.3649
     37  OE1       57.9300   25.2390  153.4670 O.co2 137  GLU137     -0.2457
     38  OE2       60.0800   25.1500  153.0000 O.co2 137  GLU137     -0.2457
     39  N         58.8340   20.6880  149.9290 N.am  138  ILE138     -0.1980
     40  CA        59.9630   20.1430  149.1670 C.3   138  ILE138      0.1595
     41  C         59.5720   19.7050  147.7450 C.2   138  ILE138      0.2287
     42  O         60.3130   19.9750  146.7960 O.2   138  ILE138     -0.2864
     43  CB        60.6230   18.9990  149.9950 C.3   138  ILE138      0.0276
     44  CG1       61.5810   19.6150  151.0290 C.3   138  ILE138      0.0022
     45  CG2       61.3490   17.9860  149.1100 C.3   138  ILE138      0.0022
     46  CD1       62.0370   18.6940  152.1140 C.3   138  ILE138      0.0001
     47  N         67.9600   26.9810  148.0080 N.3   196  LYS196     -0.1245
     48  CA        67.1830   26.2710  149.0170 C.3   196  LYS196      0.1561
     49  C         67.4260   24.7680  148.8900 C.2   196  LYS196      0.2260
     50  O         67.5710   24.0810  149.8920 O.2   196  LYS196     -0.2867
     51  CB        65.6930   26.5700  148.8290 C.3   196  LYS196      0.0271
     52  CG        64.8520   26.3040  150.0560 C.3   196  LYS196      0.0035
     53  CD        63.3970   26.5580  149.7700 C.3   196  LYS196      0.0206
     54  CE        62.5460   26.2930  150.9670 C.3   196  LYS196      0.1093
     55  NZ        61.1150   26.2930  150.6120 N.3   196  LYS196     -0.1314
     56  N         68.6940   21.5740  151.5000 N.3   200  VAL200     -0.1245
     57  CA        67.9130   20.3600  151.7330 C.3   200  VAL200      0.1561
     58  C         68.8830   19.1770  151.5770 C.2   200  VAL200      0.2260
     59  O         68.8170   18.2180  152.3350 O.2   200  VAL200     -0.2867
     60  CB        66.7200   20.2560  150.7480 C.3   200  VAL200      0.0252
     61  CG1       66.0740   18.8750  150.7940 C.3   200  VAL200      0.0019
     62  CG2       65.6910   21.3340  151.0400 C.3   200  VAL200      0.0019
     63  N         71.3100   18.6670  154.6860 N.3   203  LYS203     -0.1231
     64  CA        70.5560   17.9940  155.7500 C.3   203  LYS203      0.1693
     65  C         70.3830   16.5110  155.4720 C.2   203  LYS203      0.2591
     66  O         70.6670   15.6830  156.3350 O.2   203  LYS203     -0.2718
     67  CB        69.1600   18.6190  155.9060 C.3   203  LYS203      0.0285
     68  CG        69.1380   20.0480  156.4310 C.3   203  LYS203      0.0035
     69  CD        67.6880   20.5280  156.5850 C.3   203  LYS203      0.0206
     70  CE        67.5030   22.0040  156.3390 C.3   203  LYS203      0.1093
     71  NZ        68.1720   22.8340  157.3630 N.3   203  LYS203     -0.1314
     72  N         69.9120   16.1740  154.2700 N.am  204  LEU204     -0.1980
     73  CA        69.6910   14.7840  153.8850 C.3   204  LEU204      0.1596
     74  C         70.9930   13.9910  153.8020 C.2   204  LEU204      0.2287
     75  O         71.0050   12.8250  154.1760 O.2   204  LEU204     -0.2864
     76  CB        68.9170   14.7070  152.5640 C.3   204  LEU204      0.0297
     77  CG        67.4990   15.2720  152.5890 C.3   204  LEU204      0.0022
     78  CD1       66.9050   15.2850  151.1970 C.3   204  LEU204      0.0001
     79  CD2       66.6030   14.4740  153.5090 C.3   204  LEU204      0.0001
     80  N         72.0850   13.0700  157.2820 N.3   207  ASN207     -0.1240
     81  CA        71.2950   11.9260  157.7360 C.3   207  ASN207      0.1653
     82  C         71.9060   10.6350  157.1760 C.2   207  ASN207      0.2266
     83  O         71.9020    9.6060  157.8480 O.2   207  ASN207     -0.2867
     84  CB        69.8460   12.0860  157.2620 C.3   207  ASN207      0.1155
     85  CG        68.8900   11.0570  157.8060 C.2   207  ASN207      0.2627
     86  OD1       68.8960   10.7370  159.0020 O.2   207  ASN207     -0.2716
     87  ND2       68.0060   10.5580  156.9520 N.am  207  ASN207     -0.0877
@<TRIPOS>BOND
     1    42    41    2
     2    41    40    1
     3    47    48    1
     4    33    32    2
     5    51    48    1
     6    51    52    1
     7    49    48    1
     8    49    50    2
     9    45    43    1
    10    40    39    1
    11    40    43    1
    12    32    39   am
    13    32    31    1
    14    53    52    1
    15    53    54    1
    16    43    44    1
    17    31    30    1
    18    31    34    1
    19    55    54    1
    20    60    61    1
    21    60    62    1
    22    60    57    1
    23    44    46    1
    24    23    22    2
    25    78    77    1
    26    35    34    1
    27    35    36    1
    28    56    57    1
    29    58    57    1
    30    58    59    2
    31    22    21    1
    32     1     2    1
    33    76    77    1
    34    76    73    1
    35    77    79    1
    36    36    38   ar
    37    36    37   ar
    38    16    18   ar
    39    16    14   ar
    40    18    19   ar
    41     8     7    1
    42     5     2    1
    43     5     6    1
    44    12    11    2
    45     7     6    1
    46    24    21    1
    47    24    25    1
    48     2     3    1
    49    21    20    1
    50     9    10    1
    51     9     3   am
    52    74    73    1
    53    74    75    2
    54    13    14    1
    55    13    10    1
    56    11    10    1
    57    73    72    1
    58    14    15   ar
    59    19    17   ar
    60    72    65   am
    61     3     4    2
    62    63    64    1
    63    25    27   ar
    64    25    26   ar
    65    15    17   ar
    66    27    29   ar
    67    65    64    1
    68    65    66    2
    69    26    28   ar
    70    64    67    1
    71    67    68    1
    72    70    69    1
    73    70    71    1
    74    68    69    1
    75    29    28   ar
    76    87    85   am
    77    82    81    1
    78    82    83    2
    79    84    81    1
    80    84    85    1
    81    80    81    1
    82    85    86    2
