@<TRIPOS>MOLECULE
tmp/5oduD00.pdb
 83 77 0 0 0
SMALL
GASTEIGER

@<TRIPOS>ATOM
      1  N        -46.4790   -7.6020  -12.5390 N.3    37  TYR37      -0.1241
      2  CA       -46.8460   -6.3190  -11.9560 C.3    37  TYR37       0.1605
      3  C        -46.4950   -6.2500  -10.4770 C.2    37  TYR37       0.2264
      4  O        -46.8260   -5.2630   -9.8140 O.2    37  TYR37      -0.2867
      5  CB       -48.3330   -6.0230  -12.1800 C.3    37  TYR37       0.0534
      6  CG       -49.2920   -6.9940  -11.5280 C.ar   37  TYR37      -0.0201
      7  CD1      -49.7880   -6.7560  -10.2530 C.ar   37  TYR37      -0.0009
      8  CD2      -49.7210   -8.1230  -12.2000 C.ar   37  TYR37      -0.0009
      9  CE1      -50.6870   -7.6220   -9.6520 C.ar   37  TYR37       0.0417
     10  CE2      -50.6050   -9.0220  -11.6090 C.ar   37  TYR37       0.0417
     11  CZ       -51.0840   -8.7600  -10.3360 C.ar   37  TYR37       0.1957
     12  OH       -51.9690   -9.6220   -9.7630 O.3    37  TYR37      -0.2866
     13  N        -48.0650  -12.6120   -9.0450 N.3    43  GLU43      -0.1245
     14  CA       -48.3590  -11.3070   -9.6340 C.3    43  GLU43       0.1567
     15  C        -47.9310  -11.2600  -11.1000 C.2    43  GLU43       0.2260
     16  O        -47.1010  -10.4520  -11.5220 O.2    43  GLU43      -0.2867
     17  CB       -47.7120  -10.2050   -8.8030 C.3    43  GLU43       0.0388
     18  CG       -48.4650  -10.0020   -7.5000 C.3    43  GLU43       0.1160
     19  CD       -47.7990   -9.0420   -6.5420 C.2    43  GLU43       0.3649
     20  OE1      -46.5590   -9.0870   -6.4080 O.co2  43  GLU43      -0.2457
     21  OE2      -48.5290   -8.2450   -5.9150 O.co2  43  GLU43      -0.2457
     22  N        -55.4510  -13.5740   -8.5110 N.3    54  ASN54      -0.1240
     23  CA       -55.0660  -12.4020   -7.7400 C.3    54  ASN54       0.1653
     24  C        -55.5640  -11.1720   -8.4870 C.2    54  ASN54       0.2266
     25  O        -54.7610  -10.3460   -8.9400 O.2    54  ASN54      -0.2867
     26  CB       -53.5500  -12.3530   -7.5380 C.3    54  ASN54       0.1155
     27  CG       -53.1350  -11.3540   -6.4750 C.2    54  ASN54       0.2627
     28  OD1      -53.3140  -11.5930   -5.2810 O.2    54  ASN54      -0.2716
     29  ND2      -52.5670  -10.2330   -6.9040 N.am   54  ASN54      -0.0877
     30  N        -57.2580   -7.5850   -9.7670 N.3    56  GLN56      -0.1231
     31  CA       -57.0780   -6.1920   -9.3840 C.3    56  GLN56       0.1683
     32  C        -58.2900   -5.3940   -9.8520 C.2    56  GLN56       0.2434
     33  O        -59.1330   -5.9280  -10.5840 O.2    56  GLN56      -0.2733
     34  CB       -55.7880   -5.6350   -9.9920 C.3    56  GLN56       0.0380
     35  CG       -54.5470   -6.4670   -9.6980 C.3    56  GLN56       0.0905
     36  CD       -54.2270   -6.5450   -8.2170 C.2    56  GLN56       0.2608
     37  OE1      -54.2730   -5.5420   -7.5040 O.2    56  GLN56      -0.2717
     38  NE2      -53.9000   -7.7420   -7.7480 N.am   56  GLN56      -0.0878
     39  N        -58.4220   -4.1280   -9.4550 N.am   57  PRO57      -0.2729
     40  CA       -59.5800   -3.3390   -9.8900 C.3    57  PRO57       0.1401
     41  C        -59.6920   -3.2830  -11.4060 C.2    57  PRO57       0.2269
     42  O        -58.7690   -3.6230  -12.1510 O.2    57  PRO57      -0.2865
     43  CB       -59.3120   -1.9540   -9.2930 C.3    57  PRO57       0.0296
     44  CG       -58.4780   -2.2220   -8.1040 C.3    57  PRO57       0.0237
     45  CD       -57.6060   -3.3960   -8.4710 C.3    57  PRO57       0.0939
     46  N        -57.0440   -2.4350  -14.3230 N.3    60  ILE60      -0.1245
     47  CA       -55.7130   -2.3440  -13.7330 C.3    60  ILE60       0.1561
     48  C        -54.8510   -3.5000  -14.2170 C.2    60  ILE60       0.2260
     49  O        -55.2900   -4.6550  -14.2610 O.2    60  ILE60      -0.2867
     50  CB       -55.8110   -2.3270  -12.1970 C.3    60  ILE60       0.0252
     51  CG1      -56.5370   -1.0630  -11.7170 C.3    60  ILE60       0.0019
     52  CG2      -54.4240   -2.4400  -11.5590 C.3    60  ILE60       0.0019
     53  CD1      -55.8350    0.2430  -12.0520 C.3    60  ILE60       0.0001
     54  N        -51.0060   -0.3130  -14.9680 N.3    95  ASP95      -0.1225
     55  CA       -50.8500   -0.6010  -13.5520 C.3    95  ASP95       0.1805
     56  C        -51.2710    0.6150  -12.7260 C.2    95  ASP95       0.2597
     57  O        -51.4440    1.7230  -13.2420 O.2    95  ASP95      -0.2718
     58  CB       -49.4050   -0.9980  -13.2390 C.3    95  ASP95       0.1424
     59  CG       -49.2810   -1.7980  -11.9530 C.2    95  ASP95       0.3668
     60  OD1      -50.3160   -2.0120  -11.2840 O.co2  95  ASP95      -0.2456
     61  OD2      -48.1530   -2.2240  -11.6120 O.co2  95  ASP95      -0.2456
     62  N        -51.4490    0.3980  -11.4270 N.am   96  VAL96      -0.1980
     63  CA       -51.8540    1.5080  -10.5580 C.3    96  VAL96       0.1595
     64  C        -50.7460    2.5560  -10.5420 C.2    96  VAL96       0.2287
     65  O        -49.5670    2.2030  -10.3450 O.2    96  VAL96      -0.2864
     66  CB       -52.1540    1.0030   -9.1350 C.3    96  VAL96       0.0276
     67  CG1      -52.4600    2.1680   -8.1990 C.3    96  VAL96       0.0022
     68  CG2      -53.3210    0.0330   -9.1600 C.3    96  VAL96       0.0022
     69  N        -47.0500    2.3500   -8.8020 N.3    99  THR99      -0.1218
     70  CA       -46.7110    0.9560   -8.5310 C.3    99  THR99       0.1862
     71  C        -46.0030    0.2880   -9.7050 C.2    99  THR99       0.2287
     72  O        -46.0150   -0.9410   -9.8060 O.2    99  THR99      -0.2866
     73  CB       -47.9620    0.1510   -8.1770 C.3    99  THR99       0.1770
     74  OG1      -48.7340   -0.0770   -9.3620 O.3    99  THR99      -0.2211
     75  CG2      -48.8090    0.8920   -7.1530 C.3    99  THR99       0.0375
     76  N        -42.1550   -2.1450   -9.1570 N.3   102  ASP102     -0.1239
     77  CA       -41.9790   -3.5740   -8.9360 C.3   102  ASP102      0.1674
     78  C        -42.4210   -4.4060  -10.1380 C.2   102  ASP102      0.2266
     79  O        -42.6290   -5.6160  -10.0040 O.2   102  ASP102     -0.2867
     80  CB       -42.7200   -4.0170   -7.6690 C.3   102  ASP102      0.1410
     81  CG       -44.2220   -3.7540   -7.7270 C.2   102  ASP102      0.3668
     82  OD1      -44.7120   -3.2260   -8.7430 O.co2 102  ASP102     -0.2456
     83  OD2      -44.9200   -4.0820   -6.7410 O.co2 102  ASP102     -0.2456
@<TRIPOS>BOND
     1    54    55    1
     2    46    47    1
     3    49    48    2
     4    48    47    1
     5    47    50    1
     6    55    58    1
     7    55    56    1
     8    57    56    2
     9    58    59    1
    10    56    62   am
    11     1     2    1
    12     8    10   ar
    13     8     6   ar
    14    50    51    1
    15    50    52    1
    16     5     2    1
    17     5     6    1
    18    42    41    2
    19    53    51    1
    20     2     3    1
    21    59    61   ar
    22    59    60   ar
    23    10    11   ar
    24     6     7   ar
    25    16    15    2
    26    62    63    1
    27    41    40    1
    28    15    14    1
    29    33    32    2
    30    63    64    1
    31    63    66    1
    32    64    65    2
    33     3     4    2
    34    11    12    1
    35    11     9   ar
    36     7     9   ar
    37    78    79    2
    38    78    77    1
    39    34    35    1
    40    34    31    1
    41    40    39    1
    42    40    43    1
    43    32    39   am
    44    32    31    1
    45    72    71    2
    46    30    31    1
    47    71    70    1
    48    35    36    1
    49    14    13    1
    50    14    17    1
    51    39    45    1
    52    74    73    1
    53    43    44    1
    54    68    66    1
    55    76    77    1
    56    66    67    1
    57    25    24    2
    58    77    80    1
    59    17    18    1
    60    69    70    1
    61    82    81   ar
    62    70    73    1
    63    22    23    1
    64    24    23    1
    65    45    44    1
    66    36    38   am
    67    36    37    2
    68    73    75    1
    69    23    26    1
    70    81    80    1
    71    81    83   ar
    72    26    27    1
    73    18    19    1
    74    29    27   am
    75    19    20   ar
    76    19    21   ar
    77    27    28    2
