@<TRIPOS>MOLECULE
tmp/5odxA00.pdb
 174 162 0 0 0
SMALL
GASTEIGER

@<TRIPOS>ATOM
      1  N         -0.5890   32.6160   32.6820 N.3    33  LEU33      -0.1245
      2  CA        -1.0630   32.0460   31.4130 C.3    33  LEU33       0.1561
      3  C         -2.3820   32.6550   30.9380 C.2    33  LEU33       0.2260
      4  O         -2.4950   32.9750   29.7620 O.2    33  LEU33      -0.2867
      5  CB        -1.1280   30.5140   31.4840 C.3    33  LEU33       0.0270
      6  CG         0.2380   29.8600   31.7320 C.3    33  LEU33       0.0019
      7  CD1        0.0820   28.3850   31.9420 C.3    33  LEU33       0.0001
      8  CD2        1.2320   30.1760   30.5820 C.3    33  LEU33       0.0001
      9  N         -1.6060   36.0800   29.5690 N.3    36  ASN36      -0.1225
     10  CA        -1.0280   35.9510   28.2210 C.3    36  ASN36       0.1785
     11  C         -2.1300   35.7290   27.1720 C.2    36  ASN36       0.2597
     12  O         -2.1340   36.4020   26.1420 O.2    36  ASN36      -0.2718
     13  CB         0.0380   34.8390   28.2010 C.3    36  ASN36       0.1169
     14  CG         1.2770   35.1910   29.0120 C.2    36  ASN36       0.2627
     15  OD1        1.4130   36.2980   29.5580 O.2    36  ASN36      -0.2716
     16  ND2        2.2260   34.2660   29.0940 N.am   36  ASN36      -0.0877
     17  N         -3.1090   34.8600   27.4880 N.am   37  SER37      -0.1952
     18  CA        -4.2820   34.5620   26.6360 C.3    37  SER37       0.1924
     19  C         -5.0930   35.8560   26.4050 C.2    37  SER37       0.2314
     20  O         -5.5000   36.1400   25.2740 O.2    37  SER37      -0.2863
     21  CB        -5.1730   33.5080   27.3100 C.3    37  SER37       0.2116
     22  OG        -4.5730   32.2170   27.2370 O.3    37  SER37      -0.2180
     23  N         -3.9860   38.9620   26.4820 N.3    39  ASP39      -0.1225
     24  CA        -3.1960   39.8210   25.5680 C.3    39  ASP39       0.1805
     25  C         -3.3990   39.3800   24.1010 C.2    39  ASP39       0.2597
     26  O         -3.6160   40.2220   23.2390 O.2    39  ASP39      -0.2718
     27  CB        -1.7090   39.7860   25.9360 C.3    39  ASP39       0.1424
     28  CG        -1.3260   40.3990   27.2870 C.2    39  ASP39       0.3668
     29  OD1       -2.1830   41.0760   27.9070 O.co2  39  ASP39      -0.2456
     30  OD2       -0.1750   40.2170   27.7060 O.co2  39  ASP39      -0.2456
     31  N         -3.4160   38.0590   23.8370 N.am   40  ALA40      -0.1979
     32  CA        -3.6130   37.5220   22.4810 C.3    40  ALA40       0.1597
     33  C         -5.0340   37.8270   21.9780 C.2    40  ALA40       0.2287
     34  O         -5.2290   38.1350   20.8000 O.2    40  ALA40      -0.2864
     35  CB        -3.3500   36.0230   22.4750 C.3    40  ALA40       0.0319
     36  N         -5.2480   41.5360   21.0480 N.3    43  LYS43      -0.1245
     37  CA        -4.6160   41.7740   19.7470 C.3    43  LYS43       0.1561
     38  C         -5.5390   41.4590   18.5580 C.2    43  LYS43       0.2260
     39  O         -5.6930   42.3140   17.6860 O.2    43  LYS43      -0.2867
     40  CB        -3.2720   41.0500   19.6260 C.3    43  LYS43       0.0271
     41  CG        -2.4090   41.7560   18.5880 C.3    43  LYS43       0.0035
     42  CD        -0.9630   41.3690   18.6560 C.3    43  LYS43       0.0206
     43  CE        -0.2160   41.8890   17.4510 C.3    43  LYS43       0.1093
     44  NZ         1.2440   41.6270   17.5770 N.3    43  LYS43      -0.1314
     45  N         -7.1490   29.4070   24.1160 N.3    78  ASP78      -0.1239
     46  CA        -7.7260   30.7060   23.7910 C.3    78  ASP78       0.1674
     47  C         -7.9070   30.8290   22.2670 C.2    78  ASP78       0.2266
     48  O         -7.2560   30.1060   21.5070 O.2    78  ASP78      -0.2867
     49  CB        -6.9520   31.8740   24.3980 C.3    78  ASP78       0.1410
     50  CG        -5.6000   32.1110   23.7540 C.2    78  ASP78       0.3668
     51  OD1       -5.5690   32.4770   22.5490 O.co2  78  ASP78      -0.2456
     52  OD2       -4.5860   31.8960   24.4330 O.co2  78  ASP78      -0.2456
     53  N         -4.9640   35.9160   18.7600 N.3    81  ILE81      -0.1231
     54  CA        -4.2550   36.1250   17.4990 C.3    81  ILE81       0.1692
     55  C         -3.3810   34.9160   17.0660 C.2    81  ILE81       0.2593
     56  O         -3.1650   34.7470   15.8700 O.2    81  ILE81      -0.2718
     57  CB        -3.4650   37.4560   17.5150 C.3    81  ILE81       0.0266
     58  CG1       -3.1050   37.9010   16.0650 C.3    81  ILE81       0.0019
     59  CG2       -2.2440   37.4200   18.4760 C.3    81  ILE81       0.0020
     60  CD1       -2.8380   39.3490   15.9080 C.3    81  ILE81       0.0001
     61  N         -2.8570   34.1510   18.0240 N.am   82  GLY82      -0.1942
     62  CA        -2.0050   32.9980   17.7450 C.3    82  GLY82       0.2014
     63  C         -0.5860   33.4390   17.4240 C.2    82  GLY82       0.2638
     64  O         -0.2730   34.6420   17.4240 O.2    82  GLY82      -0.2714
     65  N          0.2970   32.4640   17.1650 N.am   83  MET83      -0.1976
     66  CA         1.7000   32.7580   16.9090 C.3    83  MET83       0.1605
     67  C          2.1900   32.1570   15.6130 C.2    83  MET83       0.2287
     68  O          1.8450   31.0230   15.2660 O.2    83  MET83      -0.2864
     69  CB         2.5880   32.2810   18.0800 C.3    83  MET83       0.0413
     70  CG         2.3600   33.0520   19.3730 C.3    83  MET83       0.0598
     71  SD         3.1140   32.2810   20.8440 S.3    83  MET83      -0.1393
     72  CE         1.9960   30.8550   21.0590 C.3    83  MET83       0.0692
     73  N          7.5710   33.8630   15.5710 N.3    87  ASP87      -0.1225
     74  CA         7.2830   34.1530   16.9830 C.3    87  ASP87       0.1805
     75  C          7.8670   33.0630   17.8770 C.2    87  ASP87       0.2597
     76  O          8.5930   33.3560   18.8340 O.2    87  ASP87      -0.2718
     77  CB         5.7730   34.1770   17.2240 C.3    87  ASP87       0.1424
     78  CG         5.0830   35.4330   16.7660 C.2    87  ASP87       0.3668
     79  OD1        5.7740   36.4650   16.6090 O.co2  87  ASP87      -0.2456
     80  OD2        3.8680   35.3680   16.5040 O.co2  87  ASP87      -0.2456
     81  N          7.4980   31.8040   17.5680 N.am   88  LEU88      -0.1979
     82  CA         7.9150   30.6100   18.2980 C.3    88  LEU88       0.1596
     83  C          9.4360   30.4260   18.3660 C.2    88  LEU88       0.2287
     84  O          9.9600   30.1740   19.4490 O.2    88  LEU88      -0.2864
     85  CB         7.2660   29.3460   17.7120 C.3    88  LEU88       0.0297
     86  CG         5.7340   29.2480   17.7980 C.3    88  LEU88       0.0022
     87  CD1        5.2630   27.9590   17.1490 C.3    88  LEU88       0.0001
     88  CD2        5.2430   29.3010   19.2490 C.3    88  LEU88       0.0001
     89  N          9.6470   36.1200   19.9120 N.3    92  LEU92      -0.1245
     90  CA         9.2060   36.2220   21.3040 C.3    92  LEU92       0.1561
     91  C         10.3780   36.0550   22.2740 C.2    92  LEU92       0.2260
     92  O         10.4600   36.8120   23.2310 O.2    92  LEU92      -0.2867
     93  CB         8.0300   35.2870   21.6180 C.3    92  LEU92       0.0270
     94  CG         6.7120   35.6150   20.8620 C.3    92  LEU92       0.0019
     95  CD1        5.6330   34.5750   21.1470 C.3    92  LEU92       0.0001
     96  CD2        6.2080   36.9930   21.1920 C.3    92  LEU92       0.0001
     97  N         12.6320   39.3960   22.3240 N.3    95  ILE95      -0.1245
     98  CA        11.9770   40.4030   23.1640 C.3    95  ILE95       0.1561
     99  C         12.1040   40.0340   24.6620 C.2    95  ILE95       0.2260
    100  O         12.3450   40.9170   25.4810 O.2    95  ILE95      -0.2867
    101  CB        10.5040   40.5510   22.7080 C.3    95  ILE95       0.0252
    102  CG1       10.4350   41.2440   21.3400 C.3    95  ILE95       0.0019
    103  CG2        9.6240   41.2730   23.7470 C.3    95  ILE95       0.0019
    104  CD1        9.1450   41.0250   20.6340 C.3    95  ILE95       0.0001
    105  N          5.6000   38.2700   35.8910 N.3   117  GLY117     -0.1225
    106  CA         4.7440   38.9100   34.8930 C.3   117  GLY117      0.1811
    107  C          5.0840   40.3550   34.6010 C.2   117  GLY117      0.2280
    108  O          4.9100   40.8100   33.4710 O.2   117  GLY117     -0.2866
    109  N          7.5200   40.5380   31.5780 N.3   120  GLY120     -0.1225
    110  CA         7.1030   39.9520   30.3070 C.3   120  GLY120      0.1811
    111  C          7.5440   38.5140   30.0740 C.2   120  GLY120      0.2280
    112  O          7.6470   38.0860   28.9200 O.2   120  GLY120     -0.2866
    113  N          6.2250   35.8180   32.2390 N.3   122  GLY122     -0.1210
    114  CA         5.2590   35.0560   33.0270 C.3   122  GLY122      0.1956
    115  C          5.0620   33.6130   32.5790 C.2   122  GLY122      0.2612
    116  O          4.9090   32.7220   33.4150 O.2   122  GLY122     -0.2717
    117  N          5.0920   33.3620   31.2490 N.am  123  PHE123     -0.1962
    118  CA         4.9430   32.0220   30.6690 C.3   123  PHE123      0.1771
    119  C          5.8110   30.9640   31.3650 C.2   123  PHE123      0.2619
    120  O          5.3280   29.8740   31.6340 O.2   123  PHE123     -0.2715
    121  CB         5.2930   32.0510   29.1650 C.3   123  PHE123      0.0574
    122  CG         5.4330   30.6730   28.5610 C.ar  123  PHE123     -0.0200
    123  CD1        4.3080   29.9270   28.2200 C.ar  123  PHE123     -0.0042
    124  CD2        6.6960   30.1070   28.3570 C.ar  123  PHE123     -0.0042
    125  CE1        4.4400   28.6560   27.6480 C.ar  123  PHE123     -0.0003
    126  CE2        6.8260   28.8210   27.8080 C.ar  123  PHE123     -0.0003
    127  CZ         5.6980   28.0970   27.4810 C.ar  123  PHE123     -0.0000
    128  N          7.0850   31.2900   31.6360 N.am  124  TYR124     -0.1974
    129  CA         8.0770   30.3770   32.1950 C.3   124  TYR124      0.1639
    130  C          7.7330   29.8970   33.6170 C.2   124  TYR124      0.2290
    131  O          8.2780   28.8730   34.0420 O.2   124  TYR124     -0.2864
    132  CB         9.4850   30.9800   32.0770 C.3   124  TYR124      0.0560
    133  CG         9.8420   31.1650   30.6100 C.ar  124  TYR124     -0.0198
    134  CD1       10.1770   30.0710   29.8120 C.ar  124  TYR124     -0.0009
    135  CD2        9.7310   32.4120   29.9950 C.ar  124  TYR124     -0.0009
    136  CE1       10.4250   30.2160   28.4480 C.ar  124  TYR124      0.0417
    137  CE2        9.9660   32.5660   28.6240 C.ar  124  TYR124      0.0417
    138  CZ        10.3070   31.4620   27.8550 C.ar  124  TYR124      0.1957
    139  OH        10.5780   31.5930   26.5150 O.3   124  TYR124     -0.2866
    140  N          2.7330   23.5820   23.3300 N.3   135  VAL135     -0.1245
    141  CA         1.9440   24.7250   22.9130 C.3   135  VAL135      0.1561
    142  C          1.5800   24.5730   21.4290 C.2   135  VAL135      0.2260
    143  O          2.4720   24.5290   20.5700 O.2   135  VAL135     -0.2867
    144  CB         2.6560   26.0720   23.2130 C.3   135  VAL135      0.0252
    145  CG1        1.8580   27.2600   22.6650 C.3   135  VAL135      0.0019
    146  CG2        2.9780   26.2450   24.7070 C.3   135  VAL135      0.0019
    147  N          4.9210   23.6800   19.5240 N.3   147  TRP147     -0.1241
    148  CA         6.1430   24.0390   20.2630 C.3   147  TRP147      0.1605
    149  C          6.1430   23.1380   21.4980 C.2   147  TRP147      0.2264
    150  O          5.0750   22.9040   22.0860 O.2   147  TRP147     -0.2867
    151  CB         6.0670   25.5090   20.7100 C.3   147  TRP147      0.0550
    152  CG         7.2180   26.0290   21.5460 C.ar  147  TRP147      0.0003
    153  CD1        8.2030   26.8750   21.1230 C.ar  147  TRP147      0.0946
    154  CD2        7.3730   25.9210   22.9790 C.ar  147  TRP147      0.0152
    155  NE1        8.9980   27.2510   22.1860 N.ar  147  TRP147     -0.2442
    156  CE2        8.5110   26.6810   23.3370 C.ar  147  TRP147      0.0810
    157  CE3        6.6350   25.2880   24.0030 C.ar  147  TRP147      0.0012
    158  CZ2        8.9810   26.7550   24.6550 C.ar  147  TRP147      0.0191
    159  CZ3        7.1060   25.3560   25.3160 C.ar  147  TRP147      0.0001
    160  CH2        8.2450   26.1130   25.6340 C.ar  147  TRP147      0.0015
    161  N         -4.2540   29.8250   20.5770 N.3   169  THR169     -0.1218
    162  CA        -3.1860   29.0900   21.2620 C.3   169  THR169      0.1862
    163  C         -3.7530   28.1740   22.3280 C.2   169  THR169      0.2287
    164  O         -4.6100   28.5810   23.1140 O.2   169  THR169     -0.2866
    165  CB        -2.1630   30.0880   21.8350 C.3   169  THR169      0.1770
    166  OG1       -1.5480   30.7520   20.7300 O.3   169  THR169     -0.2211
    167  CG2       -1.0890   29.4200   22.7720 C.3   169  THR169      0.0375
    168  N         -2.2280   25.8510   25.4250 N.3   171  VAL171     -0.1245
    169  CA        -1.0650   25.5730   26.2840 C.3   171  VAL171      0.1561
    170  C         -1.3850   24.2790   27.0640 C.2   171  VAL171      0.2260
    171  O         -2.3090   24.2700   27.8770 O.2   171  VAL171     -0.2867
    172  CB        -0.6960   26.7520   27.2400 C.3   171  VAL171      0.0252
    173  CG1        0.4470   26.3710   28.2050 C.3   171  VAL171      0.0019
    174  CG2       -0.3730   28.0370   26.4660 C.3   171  VAL171      0.0019
@<TRIPOS>BOND
     1    68    67    2
     2    73    74    1
     3    67    66    1
     4    56    55    2
     5    60    58    1
     6    58    57    1
     7    80    78   ar
     8    79    78   ar
     9    78    77    1
    10    66    65    1
    11    66    69    1
    12    74    77    1
    13    74    75    1
    14    55    54    1
    15    55    61   am
    16    87    86    1
    17    65    63   am
    18    64    63    2
    19    63    62    1
    20    43    44    1
    21    43    42    1
    22    54    57    1
    23    54    53    1
    24    57    59    1
    25    81    75   am
    26    81    82    1
    27    39    38    2
    28    85    86    1
    29    85    82    1
    30    62    61    1
    31    86    88    1
    32    75    76    2
    33    69    70    1
    34    82    83    1
    35    83    84    2
    36    38    37    1
    37    41    42    1
    38    41    40    1
    39    70    71    1
    40   147   148    1
    41    40    37    1
    42    37    36    1
    43    89    90    1
    44   148   151    1
    45   148   149    1
    46   143   142    2
    47   161   162    1
    48   104   102    1
    49   151   152    1
    50   166   165    1
    51    34    33    2
    52    71    72    1
    53    94    95    1
    54    94    96    1
    55    94    93    1
    56   153   152   ar
    57   153   155   ar
    58   162   165    1
    59   162   163    1
    60    90    93    1
    61    90    91    1
    62   102   101    1
    63   142   141    1
    64   149   150    2
    65    48    47    2
    66   152   154   ar
    67   165   167    1
    68    33    32    1
    69   155   156   ar
    70    47    46    1
    71    91    92    2
    72    97    98    1
    73   163   164    2
    74    35    32    1
    75    32    31    1
    76    51    50   ar
    77   145   144    1
    78   101    98    1
    79   101   103    1
    80   141   144    1
    81   141   140    1
    82   154   156   ar
    83   154   157   ar
    84    98    99    1
    85   144   146    1
    86    26    25    2
    87   156   158   ar
    88    50    49    1
    89    50    52   ar
    90    46    45    1
    91    46    49    1
    92    31    25   am
    93   157   159   ar
    94    25    24    1
    95   158   160   ar
    96    99   100    2
    97    20    19    2
    98   159   160   ar
    99   168   169    1
   100    24    27    1
   101    24    23    1
   102    27    28    1
   103    12    11    2
   104   169   170    1
   105   169   172    1
   106    19    18    1
   107   174   172    1
   108   139   138    1
   109    18    21    1
   110    18    17    1
   111   170   171    2
   112    11    17   am
   113    11    10    1
   114    22    21    1
   115   172   173    1
   116    28    30   ar
   117    28    29   ar
   118   127   125   ar
   119   127   126   ar
   120   125   123   ar
   121   126   124   ar
   122   138   136   ar
   123   138   137   ar
   124    13    10    1
   125    13    14    1
   126   123   122   ar
   127    10     9    1
   128   124   122   ar
   129   136   134   ar
   130   122   121    1
   131   137   135   ar
   132   112   111    2
   133    14    16   am
   134    14    15    2
   135   121   118    1
   136     4     3    2
   137   134   133   ar
   138   135   133   ar
   139   111   110    1
   140   110   109    1
   141     8     6    1
   142   133   132    1
   143   118   117    1
   144   118   119    1
   145     3     2    1
   146   117   115   am
   147   119   120    2
   148   119   128   am
   149     2     5    1
   150     2     1    1
   151     5     6    1
   152   128   129    1
   153     6     7    1
   154   132   129    1
   155   129   130    1
   156   113   114    1
   157   115   114    1
   158   115   116    2
   159   108   107    2
   160   130   131    2
   161   107   106    1
   162   106   105    1
