@<TRIPOS>MOLECULE
tmp/5oe3A02.pdb
 95 92 0 0 0
SMALL
GASTEIGER

@<TRIPOS>ATOM
      1  N         22.0270   -5.2580    0.9870 N.3    58  ALA58      -0.1245
      2  CA        23.2410   -4.8740    0.2760 C.3    58  ALA58       0.1562
      3  C         23.0360   -3.4710   -0.2860 C.2    58  ALA58       0.2260
      4  O         22.8490   -3.2740   -1.4900 O.2    58  ALA58      -0.2867
      5  CB        23.5330   -5.8820   -0.8320 C.3    58  ALA58       0.0290
      6  N         28.3080   -4.9130    2.3500 N.3    83  ASN83      -0.1226
      7  CA        28.8190   -3.9860    1.3550 C.3    83  ASN83       0.1770
      8  C         27.9370   -4.0170    0.1080 C.2    83  ASN83       0.2439
      9  O         27.7850   -5.0830   -0.5060 O.2    83  ASN83      -0.2733
     10  CB        30.2470   -4.4020    0.9920 C.3    83  ASN83       0.1168
     11  CG        30.8460   -3.5780   -0.1480 C.2    83  ASN83       0.2627
     12  OD1       30.3320   -2.5220   -0.5200 O.2    83  ASN83      -0.2716
     13  ND2       31.9430   -4.0740   -0.7120 N.am   83  ASN83      -0.0877
     14  N         27.3320   -2.8930   -0.2850 N.am   84  PRO84      -0.2718
     15  CA        26.5220   -2.8990   -1.5090 C.3    84  PRO84       0.1535
     16  C         27.3270   -3.2250   -2.7470 C.2    84  PRO84       0.2598
     17  O         26.7520   -3.7020   -3.7350 O.2    84  PRO84      -0.2715
     18  CB        25.9480   -1.4770   -1.5590 C.3    84  PRO84       0.0310
     19  CG        26.9020   -0.6620   -0.7600 C.3    84  PRO84       0.0237
     20  CD        27.3790   -1.5590    0.3340 C.3    84  PRO84       0.0939
     21  N         28.6390   -2.9870   -2.7210 N.am   85  LYS85      -0.1964
     22  CA        29.5130   -3.2660   -3.8480 C.3    85  LYS85       0.1728
     23  C         30.1970   -4.6310   -3.7320 C.2    85  LYS85       0.2617
     24  O         31.2210   -4.8640   -4.3850 O.2    85  LYS85      -0.2715
     25  CB        30.5360   -2.1420   -4.0420 C.3    85  LYS85       0.0311
     26  CG        29.9190   -0.7660   -4.3570 C.3    85  LYS85       0.0038
     27  CD        28.7760   -0.8390   -5.3650 C.3    85  LYS85       0.0206
     28  CE        28.5390    0.5040   -6.0430 C.3    85  LYS85       0.1093
     29  NZ        27.1760    0.6060   -6.6370 N.3    85  LYS85      -0.1314
     30  N         29.6400   -5.5430   -2.9310 N.am   86  SER86      -0.1936
     31  CA        30.1860   -6.8930   -2.8430 C.3    86  SER86       0.2055
     32  C         30.1010   -7.5760   -4.1980 C.2    86  SER86       0.2643
     33  O         29.1070   -7.4320   -4.9120 O.2    86  SER86      -0.2714
     34  CB        29.3540   -7.7350   -1.8700 C.3    86  SER86       0.2130
     35  OG        29.4400   -7.2760   -0.5370 O.3    86  SER86      -0.2179
     36  N         31.1280   -8.3470   -4.5510 N.am   87  ARG87      -0.1963
     37  CA        31.0460   -9.1600   -5.7530 C.3    87  ARG87       0.1729
     38  C         29.8850  -10.1460   -5.6330 C.2    87  ARG87       0.2616
     39  O         29.4580  -10.5120   -4.5350 O.2    87  ARG87      -0.2715
     40  CB        32.3630   -9.9050   -5.9820 C.3    87  ARG87       0.0348
     41  CG        32.7550  -10.8420   -4.8530 C.3    87  ARG87       0.0492
     42  CD        34.2020  -11.2990   -4.9670 C.3    87  ARG87       0.2205
     43  NE        34.5520  -12.2260   -3.8930 N.pl3  87  ARG87      -0.0865
     44  CZ        34.5850  -13.5510   -4.0090 C.cat  87  ARG87       0.5346
     45  NH1       34.3020  -14.1420   -5.1640 N.pl3  87  ARG87       0.1354
     46  NH2       34.9100  -14.2930   -2.9590 N.pl3  87  ARG87       0.1354
     47  N         29.3680  -10.5720   -6.7880 N.am   88  GLU88      -0.1977
     48  CA        28.1970  -11.4470   -6.7870 C.3    88  GLU88       0.1602
     49  C         28.4290  -12.7170   -5.9740 C.2    88  GLU88       0.2287
     50  O         27.5510  -13.1360   -5.2080 O.2    88  GLU88      -0.2864
     51  CB        27.7650  -11.7830   -8.2130 C.3    88  GLU88       0.0415
     52  CG        27.1650  -10.6140   -8.9890 C.3    88  GLU88       0.1163
     53  CD        25.9550   -9.9990   -8.2980 C.2    88  GLU88       0.3649
     54  OE1       25.0310  -10.7490   -7.9170 O.co2  88  GLU88      -0.2457
     55  OE2       25.9180   -8.7610   -8.1410 O.co2  88  GLU88      -0.2457
     56  N         28.2450  -11.9880   -2.1750 N.3    91  LEU91      -0.1245
     57  CA        26.8680  -11.8230   -1.7270 C.3    91  LEU91       0.1561
     58  C         26.1490  -13.1650   -1.6870 C.2    91  LEU91       0.2260
     59  O         25.4040  -13.4520   -0.7400 O.2    91  LEU91      -0.2867
     60  CB        26.1440  -10.8350   -2.6440 C.3    91  LEU91       0.0270
     61  CG        24.6140  -10.7430   -2.5880 C.3    91  LEU91       0.0019
     62  CD1       24.0860  -10.5780   -1.1770 C.3    91  LEU91       0.0001
     63  CD2       24.1480   -9.5820   -3.4510 C.3    91  LEU91       0.0001
     64  N         18.6540   -4.8710   -2.6260 N.3   105  ARG105     -0.1231
     65  CA        19.8380   -4.4170   -3.3410 C.3   105  ARG105      0.1694
     66  C         19.6200   -3.0330   -3.9260 C.2   105  ARG105      0.2591
     67  O         18.5120   -2.4880   -3.9210 O.2   105  ARG105     -0.2718
     68  CB        20.1870   -5.3860   -4.4760 C.3   105  ARG105      0.0321
     69  CG        20.3950   -6.8010   -4.0060 C.3   105  ARG105      0.0489
     70  CD        21.0550   -7.6360   -5.0760 C.3   105  ARG105      0.2205
     71  NE        22.4310   -7.2090   -5.3000 N.pl3 105  ARG105     -0.0865
     72  CZ        23.2720   -7.8050   -6.1340 C.cat 105  ARG105      0.5346
     73  NH1       22.8980   -8.8530   -6.8490 N.pl3 105  ARG105      0.1354
     74  NH2       24.4910   -7.3440   -6.2520 N.pl3 105  ARG105      0.1354
     75  N         20.7090   -2.4790   -4.4520 N.am  106  GLU106     -0.1979
     76  CA        20.6510   -1.2150   -5.1620 C.3   106  GLU106      0.1602
     77  C         19.8470   -1.3640   -6.4520 C.2   106  GLU106      0.2287
     78  O         19.6990   -2.4560   -7.0110 O.2   106  GLU106     -0.2864
     79  CB        22.0660   -0.7410   -5.5040 C.3   106  GLU106      0.0415
     80  CG        22.9850   -0.6480   -4.3020 C.3   106  GLU106      0.1163
     81  CD        24.3360   -0.0550   -4.6410 C.2   106  GLU106      0.3649
     82  OE1       25.0180   -0.5970   -5.5390 O.co2 106  GLU106     -0.2457
     83  OE2       24.7120    0.9570   -4.0120 O.co2 106  GLU106     -0.2457
     84  N         20.4480   -3.7870   -9.7000 N.3   109  ALA109     -0.1231
     85  CA        21.2940   -4.9080   -9.3300 C.3   109  ALA109      0.1679
     86  C         20.7550   -6.2170   -9.9120 C.2   109  ALA109      0.2434
     87  O         19.5430   -6.3870  -10.0650 O.2   109  ALA109     -0.2733
     88  CB        21.3550   -5.0260   -7.8080 C.3   109  ALA109      0.0304
     89  N         21.6410   -7.1670  -10.2140 N.am  110  PRO110     -0.2729
     90  CA        21.2030   -8.4860  -10.6870 C.3   110  PRO110      0.1401
     91  C         20.4990   -9.3090   -9.6150 C.2   110  PRO110      0.2269
     92  O         20.6280   -9.0790   -8.4100 O.2   110  PRO110     -0.2865
     93  CB        22.5080   -9.1610  -11.1390 C.3   110  PRO110      0.0296
     94  CG        23.5810   -8.4440  -10.4160 C.3   110  PRO110      0.0237
     95  CD        23.1090   -7.0350  -10.2460 C.3   110  PRO110      0.0939
@<TRIPOS>BOND
     1    93    90    1
     2    93    94    1
     3    90    89    1
     4    90    91    1
     5    94    95    1
     6    95    89    1
     7    89    86   am
     8    87    86    2
     9    86    85    1
    10    84    85    1
    11    91    92    2
    12    85    88    1
    13    52    53    1
    14    52    51    1
    15    53    55   ar
    16    53    54   ar
    17    51    48    1
    18    78    77    2
    19    73    72    1
    20    47    48    1
    21    47    38   am
    22    48    49    1
    23    29    28    1
    24    77    76    1
    25    74    72    1
    26    72    71    2
    27    28    27    1
    28    40    37    1
    29    40    41    1
    30    49    50    2
    31    37    38    1
    32    37    36    1
    33    38    39    2
    34    82    81   ar
    35    79    76    1
    36    79    80    1
    37    27    26    1
    38    71    70    1
    39    45    44    1
    40    76    75    1
    41    70    69    1
    42    42    41    1
    43    42    43    1
    44    33    32    2
    45    81    80    1
    46    81    83   ar
    47    36    32   am
    48    68    69    1
    49    68    65    1
    50    75    66   am
    51    24    23    2
    52    26    25    1
    53    32    31    1
    54    25    22    1
    55    44    43    2
    56    44    46    1
    57    66    67    2
    58    66    65    1
    59    22    23    1
    60    22    21    1
    61    17    16    2
    62    23    30   am
    63    63    61    1
    64    65    64    1
    65    30    31    1
    66    31    34    1
    67    16    21   am
    68    16    15    1
    69    60    61    1
    70    60    57    1
    71    61    62    1
    72    56    57    1
    73    34    35    1
    74    57    58    1
    75    58    59    2
    76    18    15    1
    77    18    19    1
    78    15    14    1
    79     4     3    2
    80     5     2    1
    81    19    20    1
    82    13    11   am
    83    12    11    2
    84     9     8    2
    85     3     2    1
    86    14     8   am
    87    14    20    1
    88    11    10    1
    89     8     7    1
    90     2     1    1
    91    10     7    1
    92     7     6    1
