@<TRIPOS>MOLECULE
tmp/5oe6C01.pdb
 129 122 0 0 0
SMALL
GASTEIGER

@<TRIPOS>ATOM
      1  N         15.2630   27.7840    6.0780 N.3    24  TYR24      -0.1241
      2  CA        15.0180   28.4300    4.7890 C.3    24  TYR24       0.1605
      3  C         15.2890   27.4530    3.6580 C.2    24  TYR24       0.2264
      4  O         16.4190   26.9800    3.5100 O.2    24  TYR24      -0.2867
      5  CB        15.8970   29.6710    4.6550 C.3    24  TYR24       0.0534
      6  CG        15.8120   30.3650    3.3190 C.ar   24  TYR24      -0.0201
      7  CD1       14.6820   31.0820    2.9590 C.ar   24  TYR24      -0.0009
      8  CD2       16.8820   30.3380    2.4360 C.ar   24  TYR24      -0.0009
      9  CE1       14.6080   31.7320    1.7440 C.ar   24  TYR24       0.0417
     10  CE2       16.8190   30.9850    1.2200 C.ar   24  TYR24       0.0417
     11  CZ        15.6800   31.6810    0.8790 C.ar   24  TYR24       0.1957
     12  OH        15.6130   32.3320   -0.3310 O.3    24  TYR24      -0.2866
     13  N         12.7380   43.4700    0.6930 N.3    59  LEU59      -0.1231
     14  CA        13.1510   42.1030    0.4330 C.3    59  LEU59       0.1693
     15  C         12.1230   41.1280    0.9930 C.2    59  LEU59       0.2592
     16  O         11.4600   41.4100    1.9930 O.2    59  LEU59      -0.2718
     17  CB        14.5160   41.8230    1.0710 C.3    59  LEU59       0.0284
     18  CG        15.7300   42.6280    0.6000 C.3    59  LEU59       0.0019
     19  CD1       16.9420   42.3470    1.4850 C.3    59  LEU59       0.0001
     20  CD2       16.0550   42.3120   -0.8470 C.3    59  LEU59       0.0001
     21  N         12.0010   39.9750    0.3370 N.am   60  ASN60      -0.1974
     22  CA        11.2150   38.8620    0.8540 C.3    60  ASN60       0.1688
     23  C         11.8680   38.2700    2.1050 C.2    60  ASN60       0.2292
     24  O         13.0670   38.4260    2.3460 O.2    60  ASN60      -0.2864
     25  CB        11.0690   37.7740   -0.2110 C.3    60  ASN60       0.1181
     26  CG        10.4500   38.2870   -1.5020 C.2    60  ASN60       0.2629
     27  OD1        9.5120   39.0800   -1.4860 O.2    60  ASN60      -0.2716
     28  ND2       10.9760   37.8260   -2.6300 N.am   60  ASN60      -0.0877
     29  N         13.8310   36.0430    4.3710 N.3    62  SER62      -0.1217
     30  CA        14.9500   35.1310    4.1670 C.3    62  SER62       0.1889
     31  C         15.9520   35.3390    5.2960 C.2    62  SER62       0.2288
     32  O         15.9580   36.3960    5.9330 O.2    62  SER62      -0.2866
     33  CB        15.6400   35.3650    2.8180 C.3    62  SER62       0.2089
     34  OG        16.5110   36.4760    2.9180 O.3    62  SER62      -0.2183
     35  N         19.0020   35.9670    4.8830 N.3    64  SER64      -0.1202
     36  CA        19.8450   37.0870    4.4810 C.3    64  SER64       0.2020
     37  C         19.1890   38.4170    4.8350 C.2    64  SER64       0.2618
     38  O         19.8790   39.3780    5.1910 O.2    64  SER64      -0.2717
     39  CB        20.1510   37.0000    2.9860 C.3    64  SER64       0.2103
     40  OG        20.9310   35.8460    2.7120 O.3    64  SER64      -0.2182
     41  N         17.8610   38.5000    4.7240 N.am   65  LEU65      -0.1979
     42  CA        17.1550   39.6970    5.1750 C.3    65  LEU65       0.1596
     43  C         17.3320   39.8980    6.6750 C.2    65  LEU65       0.2287
     44  O         17.7350   40.9760    7.1280 O.2    65  LEU65      -0.2864
     45  CB        15.6710   39.6070    4.8180 C.3    65  LEU65       0.0297
     46  CG        14.7480   40.6420    5.4840 C.3    65  LEU65       0.0022
     47  CD1       15.2630   42.0480    5.2440 C.3    65  LEU65       0.0001
     48  CD2       13.2990   40.5240    4.9950 C.3    65  LEU65       0.0001
     49  N         15.1030   43.1500   -3.9740 N.3   106  GLU106     -0.1231
     50  CA        15.1070   41.7560   -4.3730 C.3   106  GLU106      0.1699
     51  C         15.6720   41.5820   -5.7780 C.2   106  GLU106      0.2592
     52  O         15.7520   42.5220   -6.5720 O.2   106  GLU106     -0.2718
     53  CB        13.6950   41.1840   -4.3090 C.3   106  GLU106      0.0402
     54  CG        12.6920   41.9370   -5.1380 C.3   106  GLU106      0.1161
     55  CD        11.3460   41.2580   -5.1400 C.2   106  GLU106      0.3649
     56  OE1       11.0730   40.4990   -4.1880 O.co2 106  GLU106     -0.2457
     57  OE2       10.5690   41.4690   -6.0930 O.co2 106  GLU106     -0.2457
     58  N         16.0650   40.3450   -6.0770 N.am  107  ALA107     -0.1966
     59  CA        16.5490   40.0250   -7.4130 C.3   107  ALA107      0.1728
     60  C         15.4980   40.3630   -8.4630 C.2   107  ALA107      0.2616
     61  O         15.7900   41.0430   -9.4540 O.2   107  ALA107     -0.2715
     62  CB        16.9350   38.5470   -7.4830 C.3   107  ALA107      0.0334
     63  N         14.2570   39.9140   -8.2520 N.am  108  ASP108     -0.1971
     64  CA        13.1810   40.2100   -9.1930 C.3   108  ASP108      0.1709
     65  C         12.8040   41.6860   -9.2280 C.2   108  ASP108      0.2293
     66  O         11.9300   42.0600  -10.0190 O.2   108  ASP108     -0.2864
     67  CB        11.9450   39.3800   -8.8430 C.3   108  ASP108      0.1436
     68  CG        11.9250   37.9980   -9.3970 C.2   108  ASP108      0.3671
     69  OD1       12.7930   37.6190  -10.1550 O.co2 108  ASP108     -0.2456
     70  OD2       10.8990   37.2840   -9.0530 O.co2 108  ASP108     -0.2456
     71  N         19.6170   41.9490   -4.2970 N.3   123  ALA123     -0.1231
     72  CA        20.0110   40.5990   -3.9470 C.3   123  ALA123      0.1694
     73  C         20.3980   39.8320   -5.2070 C.2   123  ALA123      0.2591
     74  O         20.1110   40.2480   -6.3330 O.2   123  ALA123     -0.2718
     75  CB        18.8790   39.8860   -3.2090 C.3   123  ALA123      0.0304
     76  N         21.0880   38.7170   -5.0080 N.am  124  ALA124     -0.1980
     77  CA        21.4810   37.8700   -6.1210 C.3   124  ALA124      0.1597
     78  C         20.3170   36.9870   -6.5530 C.2   124  ALA124      0.2287
     79  O         19.4600   36.6130   -5.7480 O.2   124  ALA124     -0.2864
     80  CB        22.6780   37.0000   -5.7390 C.3   124  ALA124      0.0319
     81  N         18.7230   33.4130   -7.7250 N.3   126  GLY126     -0.1210
     82  CA        18.9360   32.0420   -7.3150 C.3   126  GLY126      0.1956
     83  C         18.6590   31.7760   -5.8530 C.2   126  GLY126      0.2612
     84  O         18.8590   30.6420   -5.4000 O.2   126  GLY126     -0.2717
     85  N         18.2110   32.7800   -5.1060 N.am  127  ARG127     -0.1966
     86  CA        17.8360   32.6250   -3.7050 C.3   127  ARG127      0.1714
     87  C         18.9130   31.8870   -2.9070 C.2   127  ARG127      0.2458
     88  O         18.6440   30.8330   -2.3220 O.2   127  ARG127     -0.2730
     89  CB        16.4900   31.9290   -3.5610 C.3   127  ARG127      0.0347
     90  CG        15.3310   32.7200   -4.1410 C.3   127  ARG127      0.0492
     91  CD        14.0190   31.9450   -4.1320 C.3   127  ARG127      0.2205
     92  NE        13.6250   31.6350   -2.7590 N.pl3 127  ARG127     -0.0865
     93  CZ        12.8020   30.6540   -2.3990 C.cat 127  ARG127      0.5346
     94  NH1       12.2310   29.8770   -3.3070 N.pl3 127  ARG127      0.1354
     95  NH2       12.5280   30.4710   -1.1120 N.pl3 127  ARG127      0.1354
     96  N         20.1360   32.4080   -2.8660 N.am  128  PRO128     -0.2727
     97  CA        21.1740   31.7480   -2.0710 C.3   128  PRO128      0.1402
     98  C         20.8270   31.7900   -0.5940 C.2   128  PRO128      0.2269
     99  O         20.1530   32.7050   -0.1150 O.2   128  PRO128     -0.2865
    100  CB        22.4310   32.5690   -2.3790 C.3   128  PRO128      0.0296
    101  CG        21.9090   33.9270   -2.7250 C.3   128  PRO128      0.0237
    102  CD        20.6090   33.6790   -3.4450 C.3   128  PRO128      0.0939
    103  N         23.4130   35.8650    1.2290 N.3   131  ASP131     -0.1239
    104  CA        23.6220   36.7800    0.1170 C.3   131  ASP131      0.1674
    105  C         24.5170   37.9260    0.5660 C.2   131  ASP131      0.2266
    106  O         24.3270   38.4820    1.6520 O.2   131  ASP131     -0.2867
    107  CB        22.2730   37.3120   -0.3880 C.3   131  ASP131      0.1410
    108  CG        22.3490   37.8820   -1.7910 C.2   131  ASP131      0.3668
    109  OD1       23.4400   38.3270   -2.2010 O.co2 131  ASP131     -0.2456
    110  OD2       21.3110   37.8750   -2.4860 O.co2 131  ASP131     -0.2456
    111  N         24.7300   40.7340   -1.2180 N.3   133  PHE133     -0.1241
    112  CA        24.0930   41.9610   -1.7000 C.3   133  PHE133      0.1605
    113  C         25.0850   42.8680   -2.4190 C.2   133  PHE133      0.2264
    114  O         24.9880   44.0960   -2.3510 O.2   133  PHE133     -0.2867
    115  CB        23.4080   42.7100   -0.5580 C.3   133  PHE133      0.0534
    116  CG        22.3210   41.9250    0.1040 C.ar  133  PHE133     -0.0203
    117  CD1       21.0780   41.8060   -0.4920 C.ar  133  PHE133     -0.0042
    118  CD2       22.5470   41.2900    1.3100 C.ar  133  PHE133     -0.0042
    119  CE1       20.0740   41.0820    0.1110 C.ar  133  PHE133     -0.0003
    120  CE2       21.5480   40.5650    1.9190 C.ar  133  PHE133     -0.0003
    121  CZ        20.3100   40.4570    1.3180 C.ar  133  PHE133     -0.0000
    122  N         10.2690   32.9230    1.3820 N.3   226  ASP226     -0.1239
    123  CA        10.1900   34.1640    0.6200 C.3   226  ASP226      0.1674
    124  C          9.0330   34.1770   -0.3690 C.2   226  ASP226      0.2266
    125  O          8.9010   35.1450   -1.1270 O.2   226  ASP226     -0.2867
    126  CB        11.5020   34.4330   -0.1230 C.3   226  ASP226      0.1410
    127  CG        11.9070   33.2940   -1.0000 C.2   226  ASP226      0.3668
    128  OD1       11.1440   32.3090   -1.0640 O.co2 226  ASP226     -0.2456
    129  OD2       12.9780   33.3790   -1.6330 O.co2 226  ASP226     -0.2456
@<TRIPOS>BOND
     1    69    68   ar
     2    66    65    2
     3    61    60    2
     4    68    70   ar
     5    68    67    1
     6    65    64    1
     7    64    67    1
     8    64    63    1
     9    60    63   am
    10    60    59    1
    11    81    82    1
    12    62    59    1
    13    59    58    1
    14    82    83    1
    15    52    51    2
    16    78    77    1
    17    78    79    2
    18    74    73    2
    19    77    80    1
    20    77    76    1
    21    57    55   ar
    22    58    51   am
    23    83    84    2
    24    83    85   am
    25    51    50    1
    26    73    76   am
    27    73    72    1
    28    55    54    1
    29    55    56   ar
    30    54    53    1
    31    85    86    1
    32    50    53    1
    33    50    49    1
    34    71    72    1
    35    90    91    1
    36    90    89    1
    37    91    92    1
    38    72    75    1
    39    86    89    1
    40    86    87    1
    41   102    96    1
    42   102   101    1
    43    94    93    1
    44    87    96   am
    45    87    88    2
    46    96    97    1
    47    92    93    2
    48   101   100    1
    49    28    26   am
    50   110   108   ar
    51   113   114    2
    52   113   112    1
    53    93    95    1
    54   100    97    1
    55   109   108   ar
    56    97    98    1
    57   108   107    1
    58   112   111    1
    59   112   115    1
    60   129   127   ar
    61    26    27    2
    62    26    25    1
    63   125   124    2
    64   128   127   ar
    65   127   126    1
    66    20    18    1
    67    98    99    2
    68   115   116    1
    69   117   116   ar
    70   117   119   ar
    71   107   104    1
    72   124   123    1
    73    12    11    1
    74    25    22    1
    75   126   123    1
    76   116   118   ar
    77   119   121   ar
    78   104   105    1
    79   104   103    1
    80    21    22    1
    81    21    15   am
    82    14    13    1
    83    14    15    1
    84    14    17    1
    85   105   106    2
    86    18    17    1
    87    18    19    1
    88   123   122    1
    89    22    23    1
    90    11    10   ar
    91    11     9   ar
    92    15    16    2
    93    10     8   ar
    94   118   120   ar
    95   121   120   ar
    96     9     7   ar
    97    23    24    2
    98     8     6   ar
    99    40    39    1
   100    33    34    1
   101    33    30    1
   102     7     6   ar
   103    39    36    1
   104     6     5    1
   105     4     3    2
   106     3     2    1
   107    30    29    1
   108    30    31    1
   109    36    37    1
   110    36    35    1
   111     5     2    1
   112    41    37   am
   113    41    42    1
   114     2     1    1
   115    45    42    1
   116    45    46    1
   117    37    38    2
   118    48    46    1
   119    42    43    1
   120    47    46    1
   121    31    32    2
   122    43    44    2
