@<TRIPOS>MOLECULE
tmp/5oe6A00.pdb
 188 183 0 0 0
SMALL
GASTEIGER

@<TRIPOS>ATOM
      1  N         31.6190   -9.8130    9.0550 N.3   162  THR162     -0.1218
      2  CA        32.7930   -8.9540    9.0000 C.3   162  THR162      0.1862
      3  C         33.3580   -8.9510    7.5840 C.2   162  THR162      0.2287
      4  O         33.4910  -10.0050    6.9620 O.2   162  THR162     -0.2866
      5  CB        33.8880   -9.4020    9.9780 C.3   162  THR162      0.1770
      6  OG1       33.3240   -9.5740   11.2820 O.3   162  THR162     -0.2211
      7  CG2       34.9960   -8.3570   10.0380 C.3   162  THR162      0.0375
      8  N         29.8340   -2.0550    8.2550 N.3   204  PHE204     -0.1227
      9  CA        30.8910   -2.2970    9.2290 C.3   204  PHE204      0.1736
     10  C         30.2900   -2.1440   10.6210 C.2   204  PHE204      0.2596
     11  O         29.6080   -1.1540   10.8950 O.2   204  PHE204     -0.2718
     12  CB        32.0490   -1.3090    9.0270 C.3   204  PHE204      0.0547
     13  CG        33.3220   -1.6630    9.7660 C.ar  204  PHE204     -0.0202
     14  CD1       33.4920   -2.8950   10.3830 C.ar  204  PHE204     -0.0042
     15  CD2       34.3570   -0.7390    9.8370 C.ar  204  PHE204     -0.0042
     16  CE1       34.6690   -3.1940   11.0510 C.ar  204  PHE204     -0.0003
     17  CE2       35.5300   -1.0360   10.5060 C.ar  204  PHE204     -0.0003
     18  CZ        35.6860   -2.2620   11.1120 C.ar  204  PHE204     -0.0000
     19  N         30.5440   -3.1220   11.4980 N.am  205  GLY205     -0.1942
     20  CA        29.9650   -3.0780   12.8300 C.3   205  GLY205      0.2014
     21  C         30.1600   -1.7390   13.5170 C.2   205  GLY205      0.2638
     22  O         29.2500   -1.2230   14.1730 O.2   205  GLY205     -0.2714
     23  N         31.3590   -1.1710   13.3910 N.am  206  TYR206     -0.1973
     24  CA        31.6520    0.1510   13.9310 C.3   206  TYR206      0.1639
     25  C         30.6250    1.1610   13.4400 C.2   206  TYR206      0.2290
     26  O         30.0520    1.9190   14.2280 O.2   206  TYR206     -0.2864
     27  CB        33.0740    0.5340   13.5220 C.3   206  TYR206      0.0560
     28  CG        33.6600    1.8410   14.0250 C.ar  206  TYR206     -0.0198
     29  CD1       33.4820    2.2890   15.3330 C.ar  206  TYR206     -0.0009
     30  CD2       34.4600    2.5950   13.1840 C.ar  206  TYR206     -0.0009
     31  CE1       34.0620    3.4860   15.7600 C.ar  206  TYR206      0.0417
     32  CE2       35.0380    3.7710   13.5960 C.ar  206  TYR206      0.0417
     33  CZ        34.8420    4.2140   14.8800 C.ar  206  TYR206      0.1957
     34  OH        35.4410    5.3970   15.2450 O.3   206  TYR206     -0.2866
     35  N         38.9470    4.0810   15.4990 N.3   273  ALA273     -0.1231
     36  CA        38.9140    2.6480   15.7470 C.3   273  ALA273      0.1694
     37  C         39.3360    1.9400   14.4660 C.2   273  ALA273      0.2593
     38  O         39.5720    2.5740   13.4340 O.2   273  ALA273     -0.2718
     39  CB        37.5260    2.1870   16.2080 C.3   273  ALA273      0.0304
     40  N         39.4240    0.6150   14.5380 N.am  274  GLY274     -0.1942
     41  CA        39.7680   -0.1880   13.3800 C.3   274  GLY274      0.2014
     42  C         41.2150   -0.6410   13.3720 C.2   274  GLY274      0.2640
     43  O         41.5080   -1.8000   13.0600 O.2   274  GLY274     -0.2714
     44  N         42.1240    0.2610   13.7270 N.am  275  SER275     -0.1936
     45  CA        43.5500   -0.0340   13.7590 C.3   275  SER275      0.2040
     46  C         44.2090    0.9430   14.7210 C.2   275  SER275      0.2485
     47  O         43.5950    1.9400   15.1240 O.2   275  SER275     -0.2729
     48  CB        44.1770    0.0700   12.3550 C.3   275  SER275      0.2129
     49  OG        43.9090    1.3280   11.7670 O.3   275  SER275     -0.2179
     50  N         45.4420    0.6730   15.1410 N.am  276  PRO276     -0.2726
     51  CA        46.0590    1.5310   16.1590 C.3   276  PRO276      0.1402
     52  C         46.2890    2.9420   15.6430 C.2   276  PRO276      0.2269
     53  O         46.7700    3.1430   14.5270 O.2   276  PRO276     -0.2865
     54  CB        47.3870    0.8260   16.4710 C.3   276  PRO276      0.0296
     55  CG        47.2410   -0.5610   15.9380 C.3   276  PRO276      0.0237
     56  CD        46.3060   -0.4640   14.7800 C.3   276  PRO276      0.0939
     57  N         41.4210    6.7450   20.8770 N.3   294  ASP294     -0.1225
     58  CA        41.6090    5.4500   20.2390 C.3   294  ASP294      0.1805
     59  C         40.9050    4.3540   21.0350 C.2   294  ASP294      0.2598
     60  O         41.1200    4.2260   22.2430 O.2   294  ASP294     -0.2718
     61  CB        43.0990    5.1380   20.1290 C.3   294  ASP294      0.1424
     62  CG        43.3700    3.8800   19.3430 C.2   294  ASP294      0.3668
     63  OD1       42.4120    3.3410   18.7430 O.co2 294  ASP294     -0.2456
     64  OD2       44.5340    3.4170   19.3530 O.co2 294  ASP294     -0.2456
     65  N         40.0680    3.5730   20.3610 N.am  295  GLY295     -0.1942
     66  CA        39.4400    2.4170   20.9800 C.3   295  GLY295      0.2014
     67  C         39.3390    1.2500   20.0170 C.2   295  GLY295      0.2639
     68  O         39.2970    1.4260   18.7970 O.2   295  GLY295     -0.2714
     69  N         39.2910    0.0430   20.5830 N.am  296  ILE296     -0.1963
     70  CA        39.1820   -1.1920   19.8120 C.3   296  ILE296      0.1727
     71  C         37.7870   -1.7710   19.9890 C.2   296  ILE296      0.2617
     72  O         37.2670   -1.8350   21.1070 O.2   296  ILE296     -0.2715
     73  CB        40.2420   -2.2350   20.2160 C.3   296  ILE296      0.0290
     74  CG1       40.0610   -3.4970   19.3670 C.3   296  ILE296      0.0022
     75  CG2       40.1320   -2.5940   21.6830 C.3   296  ILE296      0.0023
     76  CD1       41.1690   -4.5230   19.4930 C.3   296  ILE296      0.0001
     77  N         37.1780   -2.1770   18.8740 N.am  297  GLY297     -0.1940
     78  CA        36.0040   -3.0180   18.9090 C.3   297  GLY297      0.2014
     79  C         36.2040   -4.2050   17.9830 C.2   297  GLY297      0.2639
     80  O         37.1640   -4.2550   17.2130 O.2   297  GLY297     -0.2714
     81  N         35.2800   -5.1570   18.0700 N.am  298  ALA298     -0.1963
     82  CA        35.2780   -6.3180   17.1910 C.3   298  ALA298      0.1728
     83  C         33.8420   -6.7670   16.9900 C.2   298  ALA298      0.2617
     84  O         33.0180   -6.6780   17.9050 O.2   298  ALA298     -0.2715
     85  CB        36.1060   -7.4780   17.7590 C.3   298  ALA298      0.0334
     86  N         33.5550   -7.2750   15.7890 N.am  299  THR299     -0.1937
     87  CA        32.1860   -7.6680   15.4710 C.3   299  THR299      0.2028
     88  C         31.6390   -8.6140   16.5320 C.2   299  THR299      0.2642
     89  O         30.5060   -8.4550   17.0050 O.2   299  THR299     -0.2714
     90  CB        32.1290   -8.3120   14.0850 C.3   299  THR299      0.1808
     91  OG1       32.7590   -7.4480   13.1290 O.3   299  THR299     -0.2208
     92  CG2       30.6860   -8.5260   13.6570 C.3   299  THR299      0.0379
     93  N         32.4560   -9.5660   16.9690 N.am  300  GLU300     -0.1976
     94  CA        31.9980  -10.5530   17.9350 C.3   300  GLU300      0.1602
     95  C         31.6660   -9.9400   19.2930 C.2   300  GLU300      0.2287
     96  O         31.0270  -10.6100   20.1140 O.2   300  GLU300     -0.2864
     97  CB        33.0650  -11.6390   18.0830 C.3   300  GLU300      0.0415
     98  CG        33.1840  -12.5700   16.8660 C.3   300  GLU300      0.1163
     99  CD        34.0450  -12.0120   15.7450 C.2   300  GLU300      0.3649
    100  OE1       34.4440  -10.8290   15.8110 O.co2 300  GLU300     -0.2457
    101  OE2       34.3240  -12.7700   14.7850 O.co2 300  GLU300     -0.2457
    102  N         30.2340   -6.6440   19.4340 N.3   302  GLY302     -0.1210
    103  CA        29.2440   -5.6030   19.2660 C.3   302  GLY302      0.1956
    104  C         29.8280   -4.2550   18.8980 C.2   302  GLY302      0.2612
    105  O         29.4670   -3.6910   17.8580 O.2   302  GLY302     -0.2717
    106  N         30.7150   -3.7130   19.7320 N.am  303  HIS303     -0.1961
    107  CA        31.3110   -2.4170   19.4090 C.3   303  HIS303      0.1787
    108  C         32.6090   -2.2470   20.2080 C.2   303  HIS303      0.2620
    109  O         33.2730   -3.2350   20.5350 O.2   303  HIS303     -0.2715
    110  CB        30.2680   -1.3080   19.6600 C.3   303  HIS303      0.0785
    111  CG        30.4440   -0.1020   18.7890 C.ar  303  HIS303      0.0821
    112  ND1       31.0970    1.0360   19.2100 N.ar  303  HIS303     -0.2267
    113  CD2       30.0510    0.1390   17.5160 C.ar  303  HIS303      0.1154
    114  CE1       31.0980    1.9270   18.2350 C.ar  303  HIS303      0.1986
    115  NE2       30.4670    1.4090   17.1970 N.ar  303  HIS303     -0.2212
    116  N         32.9700   -0.9980   20.5020 N.am  304  VAL304     -0.1977
    117  CA        34.1950   -0.7080   21.2350 C.3   304  VAL304      0.1596
    118  C         34.0550   -1.2220   22.6600 C.2   304  VAL304      0.2287
    119  O         33.0670   -0.9340   23.3490 O.2   304  VAL304     -0.2864
    120  CB        34.4900    0.8010   21.2110 C.3   304  VAL304      0.0276
    121  CG1       35.6710    1.1250   22.1140 C.3   304  VAL304      0.0022
    122  CG2       34.7750    1.2840   19.7890 C.3   304  VAL304      0.0022
    123  N         45.5780    2.0150   23.6110 N.3   318  THR318     -0.1218
    124  CA        44.1770    1.6790   23.3860 C.3   318  THR318      0.1862
    125  C         43.2860    1.9920   24.5790 C.2   318  THR318      0.2287
    126  O         42.0660    1.8270   24.4780 O.2   318  THR318     -0.2866
    127  CB        44.0300    0.1870   23.0430 C.3   318  THR318      0.1770
    128  OG1       45.1140   -0.2310   22.2050 O.3   318  THR318     -0.2211
    129  CG2       42.7030   -0.0880   22.3280 C.3   318  THR318      0.0375
    130  N         35.6400  -13.9750   24.1800 N.3   373  TYR373     -0.1241
    131  CA        36.0120  -13.8750   22.7790 C.3   373  TYR373      0.1605
    132  C         37.5240  -13.7350   22.6750 C.2   373  TYR373      0.2264
    133  O         38.1190  -12.8660   23.3210 O.2   373  TYR373     -0.2867
    134  CB        35.3460  -12.6780   22.1010 C.3   373  TYR373      0.0534
    135  CG        35.8730  -12.4510   20.7010 C.ar  373  TYR373     -0.0201
    136  CD1       35.6440  -13.3830   19.6990 C.ar  373  TYR373     -0.0009
    137  CD2       36.6370  -11.3360   20.3940 C.ar  373  TYR373     -0.0009
    138  CE1       36.1320  -13.1950   18.4210 C.ar  373  TYR373      0.0417
    139  CE2       37.1310  -11.1390   19.1210 C.ar  373  TYR373      0.0417
    140  CZ        36.8810  -12.0740   18.1370 C.ar  373  TYR373      0.1957
    141  OH        37.3630  -11.8960   16.8610 O.3   373  TYR373     -0.2866
    142  N         40.3520  -12.4250   20.6860 N.3   375  THR375     -0.1218
    143  CA        40.4970  -11.4380   19.6180 C.3   375  THR375      0.1862
    144  C         41.4940  -11.8800   18.5590 C.2   375  THR375      0.2287
    145  O         41.3840  -11.4680   17.3980 O.2   375  THR375     -0.2866
    146  CB        40.9370  -10.0900   20.1760 C.3   375  THR375      0.1770
    147  OG1       42.2400  -10.2090   20.7700 O.3   375  THR375     -0.2211
    148  CG2       39.9500   -9.6140   21.2170 C.3   375  THR375      0.0375
    149  N         44.3820  -10.7390   18.8030 N.3   377  ASP377     -0.1239
    150  CA        45.2750   -9.5920   18.8720 C.3   377  ASP377      0.1674
    151  C         46.2370   -9.7730   20.0340 C.2   377  ASP377      0.2266
    152  O         45.8180  -10.1110   21.1460 O.2   377  ASP377     -0.2867
    153  CB        44.4810   -8.2970   19.0590 C.3   377  ASP377      0.1410
    154  CG        43.6260   -7.9530   17.8570 C.2   377  ASP377      0.3668
    155  OD1       44.1870   -7.7530   16.7630 O.co2 377  ASP377     -0.2456
    156  OD2       42.3870   -7.8960   18.0080 O.co2 377  ASP377     -0.2456
    157  N         48.4070   -8.1000   22.8580 N.3   379  PHE379     -0.1241
    158  CA        48.3330   -6.8700   23.6330 C.3   379  PHE379      0.1605
    159  C         49.2760   -6.9720   24.8240 C.2   379  PHE379      0.2264
    160  O         49.6350   -8.0650   25.2600 O.2   379  PHE379     -0.2867
    161  CB        46.9040   -6.6020   24.1360 C.3   379  PHE379      0.0534
    162  CG        46.0410   -5.8250   23.1740 C.ar  379  PHE379     -0.0203
    163  CD1       45.1890   -6.4770   22.2950 C.ar  379  PHE379     -0.0042
    164  CD2       46.0550   -4.4410   23.1780 C.ar  379  PHE379     -0.0042
    165  CE1       44.3840   -5.7580   21.4250 C.ar  379  PHE379     -0.0003
    166  CE2       45.2520   -3.7190   22.3100 C.ar  379  PHE379     -0.0003
    167  CZ        44.4200   -4.3810   21.4330 C.ar  379  PHE379     -0.0000
    168  N         48.3200   -2.2890   21.6330 N.3   389  HIS389     -0.1241
    169  CA        48.2990   -3.3550   20.6380 C.3   389  HIS389      0.1621
    170  C         49.7130   -3.7130   20.1960 C.2   389  HIS389      0.2264
    171  O         50.5530   -2.8350   19.9840 O.2   389  HIS389     -0.2867
    172  CB        47.4670   -2.9220   19.4330 C.3   389  HIS389      0.0745
    173  CG        47.1820   -4.0250   18.4650 C.ar  389  HIS389      0.0817
    174  ND1       47.9650   -4.2550   17.3550 N.ar  389  HIS389     -0.2268
    175  CD2       46.1830   -4.9370   18.4160 C.ar  389  HIS389      0.1154
    176  CE1       47.4770   -5.2800   16.6790 C.ar  389  HIS389      0.1986
    177  NE2       46.3940   -5.7100   17.2990 N.ar  389  HIS389     -0.2212
    178  N         49.3850   -9.5040   15.8660 N.3   392  ARG392     -0.1245
    179  CA        48.4260  -10.5940   15.7800 C.3   392  ARG392      0.1563
    180  C         49.0530  -11.9040   16.2460 C.2   392  ARG392      0.2260
    181  O         50.2740  -12.0810   16.2340 O.2   392  ARG392     -0.2867
    182  CB        47.8860  -10.7550   14.3510 C.3   392  ARG392      0.0307
    183  CG        47.0750   -9.5620   13.8460 C.3   392  ARG392      0.0489
    184  CD        45.6650   -9.5020   14.4630 C.3   392  ARG392      0.2205
    185  NE        44.8330  -10.6500   14.0960 N.pl3 392  ARG392     -0.0865
    186  CZ        43.6360  -10.9140   14.6200 C.cat 392  ARG392      0.5346
    187  NH1       43.1150  -10.1210   15.5480 N.pl3 392  ARG392      0.1354
    188  NH2       42.9560  -11.9770   14.2180 N.pl3 392  ARG392      0.1354
@<TRIPOS>BOND
     1     4     3    2
     2     3     2    1
     3     8     9    1
     4     2     1    1
     5     2     5    1
     6    12     9    1
     7    12    13    1
     8     9    10    1
     9    13    15   ar
    10    13    14   ar
    11    15    17   ar
    12     5     7    1
    13     5     6    1
    14    14    16   ar
    15    17    18   ar
    16    10    11    2
    17    10    19   am
    18    16    18   ar
    19    19    20    1
    20    49    48    1
    21    48    45    1
    22    20    21    1
    23    43    42    2
    24    91    90    1
    25    30    32   ar
    26    30    28   ar
    27    42    41    1
    28    42    44   am
    29    41    40    1
    30    23    21   am
    31    23    24    1
    32    38    37    2
    33    25    24    1
    34    25    26    2
    35    21    22    2
    36    27    24    1
    37    27    28    1
    38    32    33   ar
    39    92    90    1
    40    44    45    1
    41    45    46    1
    42   183   182    1
    43   183   184    1
    44    28    29   ar
    45    90    87    1
    46   185   184    1
    47   185   186    2
    48   188   186    1
    49   182   179    1
    50    37    40   am
    51    37    36    1
    52    53    52    2
    53   186   187    1
    54    46    47    2
    55    46    50   am
    56    56    50    1
    57    56    55    1
    58   101    99   ar
    59    33    34    1
    60    33    31   ar
    61    50    51    1
    62    29    31   ar
    63    87    86    1
    64    87    88    1
    65    35    36    1
    66    52    51    1
    67    99   100   ar
    68    99    98    1
    69    36    39    1
    70   179   178    1
    71   179   180    1
    72    86    83   am
    73    55    54    1
    74    51    54    1
    75   181   180    2
    76    88    93   am
    77    88    89    2
    78   176   177   ar
    79   176   174   ar
    80   155   154   ar
    81   141   140    1
    82    98    97    1
    83    93    94    1
    84    83    82    1
    85    83    84    2
    86    82    85    1
    87    82    81    1
    88   115   113   ar
    89   115   114   ar
    90    80    79    2
    91   177   175   ar
    92   174   173   ar
    93   145   144    2
    94   113   111   ar
    95   154   156   ar
    96   154   153    1
    97   105   104    2
    98    94    97    1
    99    94    95    1
   100    79    81   am
   101    79    78    1
   102   140   138   ar
   103   140   139   ar
   104   114   112   ar
   105   175   173   ar
   106   138   136   ar
   107   173   172    1
   108   144   143    1
   109    63    62   ar
   110   111   112   ar
   111   111   110    1
   112    68    67    2
   113   149   150    1
   114   150   153    1
   115   150   151    1
   116    77    78    1
   117    77    71   am
   118   104   103    1
   119   104   106   am
   120   139   137   ar
   121   103   102    1
   122    95    96    2
   123    62    64   ar
   124    62    61    1
   125    74    76    1
   126    74    73    1
   127   107   110    1
   128   107   106    1
   129   107   108    1
   130   172   169    1
   131   143   146    1
   132   143   142    1
   133   136   135   ar
   134   122   120    1
   135    70    71    1
   136    70    73    1
   137    70    69    1
   138   171   170    2
   139    71    72    2
   140    67    69   am
   141    67    66    1
   142   151   152    2
   143    61    58    1
   144   146   147    1
   145   146   148    1
   146   170   169    1
   147   108   116   am
   148   108   109    2
   149    73    75    1
   150    58    57    1
   151    58    59    1
   152    65    66    1
   153    65    59   am
   154   137   135   ar
   155   116   117    1
   156   169   168    1
   157   135   134    1
   158    59    60    2
   159   120   117    1
   160   120   121    1
   161   117   118    1
   162   165   167   ar
   163   165   163   ar
   164   167   166   ar
   165   134   131    1
   166   128   127    1
   167   163   162   ar
   168   166   164   ar
   169   129   127    1
   170   118   119    2
   171   132   131    1
   172   132   133    2
   173   131   130    1
   174   157   158    1
   175   127   124    1
   176   162   164   ar
   177   162   161    1
   178   124   123    1
   179   124   125    1
   180   158   161    1
   181   158   159    1
   182   126   125    2
   183   159   160    2
