@<TRIPOS>MOLECULE
tmp/5oeaD00.pdb
 101 95 0 0 0
SMALL
GASTEIGER

@<TRIPOS>ATOM
      1  N         28.5760  108.0690  -11.1560 N.3    30  ILE30      -0.1231
      2  CA        28.8890  107.2070  -10.0130 C.3    30  ILE30       0.1692
      3  C         28.9880  105.7540  -10.4650 C.2    30  ILE30       0.2592
      4  O         28.2190  105.3110  -11.3150 O.2    30  ILE30      -0.2718
      5  CB        27.8660  107.3310   -8.8550 C.3    30  ILE30       0.0266
      6  CG1       26.4230  107.0400   -9.3110 C.3    30  ILE30       0.0019
      7  CG2       27.9400  108.7190   -8.2350 C.3    30  ILE30       0.0020
      8  CD1       25.7040  106.0220   -8.4550 C.3    30  ILE30       0.0001
      9  N         29.9500  105.0300   -9.9000 N.am   31  ARG31      -0.1966
     10  CA        30.2290  103.6390  -10.2730 C.3    31  ARG31       0.1729
     11  C         30.4120  103.4590  -11.7790 C.2    31  ARG31       0.2616
     12  O         29.5730  102.8580  -12.4590 O.2    31  ARG31      -0.2715
     13  CB        29.1560  102.7050   -9.7120 C.3    31  ARG31       0.0348
     14  CG        29.2490  102.5870   -8.2040 C.3    31  ARG31       0.0492
     15  CD        28.0670  101.8380   -7.6360 C.3    31  ARG31       0.2205
     16  NE        28.2830  101.4420   -6.2420 N.pl3  31  ARG31      -0.0865
     17  CZ        29.0310  100.4130   -5.8320 C.cat  31  ARG31       0.5346
     18  NH1       29.6740   99.6290   -6.7000 N.pl3  31  ARG31       0.1354
     19  NH2       29.1410  100.1640   -4.5290 N.pl3  31  ARG31       0.1354
     20  N         31.5140  104.0230  -12.2720 N.am   32  ALA32      -0.1963
     21  CA        31.9300  103.9120  -13.6710 C.3    32  ALA32       0.1728
     22  C         33.2490  103.1430  -13.8730 C.2    32  ALA32       0.2617
     23  O         33.6620  102.9310  -15.0140 O.2    32  ALA32      -0.2715
     24  CB        32.0450  105.3010  -14.2700 C.3    32  ALA32       0.0334
     25  N         33.8950  102.7170  -12.7850 N.am   33  GLY33      -0.1940
     26  CA        35.1890  102.0340  -12.8580 C.3    33  GLY33       0.2014
     27  C         36.3580  102.9670  -13.1380 C.2    33  GLY33       0.2639
     28  O         37.3160  102.5720  -13.8040 O.2    33  GLY33      -0.2714
     29  N         36.2860  104.1900  -12.6020 N.am   34  LYS34      -0.1963
     30  CA        37.2750  105.2520  -12.8700 C.3    34  LYS34       0.1728
     31  C         38.1980  105.5870  -11.6850 C.2    34  LYS34       0.2617
     32  O         39.3440  105.9740  -11.9000 O.2    34  LYS34      -0.2715
     33  CB        36.5880  106.5230  -13.3950 C.3    34  LYS34       0.0311
     34  CG        35.5100  107.1080  -12.5020 C.3    34  LYS34       0.0038
     35  CD        35.0970  108.4880  -12.9710 C.3    34  LYS34       0.0206
     36  CE        33.9890  109.0590  -12.0980 C.3    34  LYS34       0.1093
     37  NZ        34.4480  109.3950  -10.7190 N.3    34  LYS34      -0.1314
     38  N         37.7100  105.4550  -10.4520 N.am   35  THR35      -0.1937
     39  CA        38.5570  105.6200   -9.2620 C.3    35  THR35       0.2028
     40  C         39.5960  104.5060   -9.1400 C.2    35  THR35       0.2642
     41  O         40.7380  104.7650   -8.7550 O.2    35  THR35      -0.2714
     42  CB        37.7340  105.6330   -7.9550 C.3    35  THR35       0.1808
     43  OG1       36.7110  106.6350   -8.0270 O.3    35  THR35      -0.2208
     44  CG2       38.6330  105.9140   -6.7450 C.3    35  THR35       0.0379
     45  N         39.1930  103.2740   -9.4450 N.am   36  ILE36      -0.1977
     46  CA        40.0980  102.1270   -9.3410 C.3    36  ILE36       0.1596
     47  C         41.1660  102.1260  -10.4430 C.2    36  ILE36       0.2287
     48  O         42.3500  101.9580  -10.1400 O.2    36  ILE36      -0.2864
     49  CB        39.3350  100.7660   -9.2660 C.3    36  ILE36       0.0276
     50  CG1       40.2570   99.6420   -8.7720 C.3    36  ILE36       0.0022
     51  CG2       38.7060  100.3640  -10.5990 C.3    36  ILE36       0.0022
     52  CD1       40.8100   99.8530   -7.3750 C.3    36  ILE36       0.0001
     53  N         37.7180  104.2220   -0.3390 N.3    68  ASN68      -0.1240
     54  CA        37.4210  104.3000   -1.7780 C.3    68  ASN68       0.1653
     55  C         38.5730  103.8510   -2.6680 C.2    68  ASN68       0.2266
     56  O         38.3250  103.2730   -3.7220 O.2    68  ASN68      -0.2867
     57  CB        37.0460  105.7290   -2.1910 C.3    68  ASN68       0.1155
     58  CG        35.8070  106.2440   -1.4880 C.2    68  ASN68       0.2627
     59  OD1       34.9290  105.4750   -1.0960 O.2    68  ASN68      -0.2716
     60  ND2       35.7280  107.5610   -1.3310 N.am   68  ASN68      -0.0877
     61  N         41.2830  112.1980   -5.7570 N.3   129  ASP129     -0.1225
     62  CA        40.0380  111.4320   -5.7780 C.3   129  ASP129      0.1805
     63  C         38.9240  112.2960   -5.1960 C.2   129  ASP129      0.2597
     64  O         39.0530  112.7810   -4.0700 O.2   129  ASP129     -0.2718
     65  CB        40.1970  110.1620   -4.9400 C.3   129  ASP129      0.1424
     66  CG        38.9650  109.2720   -4.9810 C.2   129  ASP129      0.3668
     67  OD1       38.5120  108.9520   -6.0980 O.co2 129  ASP129     -0.2456
     68  OD2       38.4560  108.8920   -3.8990 O.co2 129  ASP129     -0.2456
     69  N         37.8360  112.4630   -5.9510 N.am  130  GLU130     -0.1979
     70  CA        36.7120  113.3610   -5.5930 C.3   130  GLU130      0.1602
     71  C         37.1360  114.8410   -5.5020 C.2   130  GLU130      0.2287
     72  O         36.6130  115.5930   -4.6750 O.2   130  GLU130     -0.2864
     73  CB        36.0210  112.9380   -4.2770 C.3   130  GLU130      0.0415
     74  CG        35.7020  111.4560   -4.1150 C.3   130  GLU130      0.1163
     75  CD        35.4520  111.0750   -2.6600 C.2   130  GLU130      0.3649
     76  OE1       36.3300  111.3530   -1.8010 O.co2 130  GLU130     -0.2457
     77  OE2       34.3820  110.4890   -2.3770 O.co2 130  GLU130     -0.2457
     78  N         39.9910  113.2970  -10.6220 N.3   156  ASN156     -0.1240
     79  CA        38.9570  112.2780  -10.6190 C.3   156  ASN156      0.1653
     80  C         37.7790  112.8250   -9.8390 C.2   156  ASN156      0.2266
     81  O         37.9430  113.1880   -8.6770 O.2   156  ASN156     -0.2867
     82  CB        39.5150  111.0270   -9.9430 C.3   156  ASN156      0.1155
     83  CG        38.5780  109.8540  -10.0220 C.2   156  ASN156      0.2627
     84  OD1       37.9560  109.4850   -9.0280 O.2   156  ASN156     -0.2716
     85  ND2       38.4650  109.2620  -11.2040 N.am  156  ASN156     -0.0877
     86  N         33.0430  113.5230   -9.6510 N.3   158  ASN158     -0.1240
     87  CA        31.6780  113.4820  -10.1380 C.3   158  ASN158      0.1653
     88  C         31.2160  114.9250  -10.3300 C.2   158  ASN158      0.2266
     89  O         31.6690  115.8110   -9.6010 O.2   158  ASN158     -0.2867
     90  CB        30.7730  112.7620   -9.1410 C.3   158  ASN158      0.1155
     91  CG        31.1730  111.3160   -8.9260 C.2   158  ASN158      0.2627
     92  OD1       31.4460  110.9010   -7.8000 O.2   158  ASN158     -0.2716
     93  ND2       31.2140  110.5420  -10.0060 N.am  158  ASN158     -0.0877
     94  N         31.4510  100.8160  -17.7570 N.3   189  ASN189     -0.1240
     95  CA        31.8050   99.8900  -16.6820 C.3   189  ASN189      0.1653
     96  C         31.2480   98.5010  -17.0300 C.2   189  ASN189      0.2266
     97  O         30.0370   98.2660  -16.9580 O.2   189  ASN189     -0.2867
     98  CB        31.2170  100.3920  -15.3540 C.3   189  ASN189      0.1155
     99  CG        31.6870   99.5920  -14.1450 C.2   189  ASN189      0.2627
    100  OD1       32.1990   98.4800  -14.2670 O.2   189  ASN189     -0.2716
    101  ND2       31.4930  100.1600  -12.9610 N.am  189  ASN189     -0.0877
@<TRIPOS>BOND
     1    94    95    1
     2    96    97    2
     3    96    95    1
     4    95    98    1
     5    98    99    1
     6    23    22    2
     7    24    21    1
     8   100    99    2
     9    99   101   am
    10    22    21    1
    11    22    25   am
    12    28    27    2
    13    21    20    1
    14    33    30    1
    15    33    34    1
    16    27    26    1
    17    27    29   am
    18    35    34    1
    19    35    36    1
    20    30    29    1
    21    30    31    1
    22    26    25    1
    23    12    11    2
    24    20    11   am
    25    36    37    1
    26    32    31    2
    27    11    10    1
    28    31    38   am
    29     4     3    2
    30    85    83   am
    31     1     2    1
    32    78    79    1
    33    79    82    1
    34    79    80    1
    35    51    49    1
    36     3     2    1
    37     3     9   am
    38    38    39    1
    39    47    48    2
    40    47    46    1
    41    88    87    1
    42    88    89    2
    43    10     9    1
    44    10    13    1
    45    87    86    1
    46    87    90    1
    47    83    82    1
    48    83    84    2
    49     2     5    1
    50    93    91   am
    51    80    81    2
    52    13    14    1
    53    45    46    1
    54    45    40   am
    55    46    49    1
    56     6     5    1
    57     6     8    1
    58    49    50    1
    59    39    40    1
    60    39    42    1
    61    90    91    1
    62    40    41    2
    63    91    92    2
    64     5     7    1
    65    50    52    1
    66    14    15    1
    67    43    42    1
    68    42    44    1
    69    15    16    1
    70    18    17    1
    71    16    17    2
    72    67    66   ar
    73    69    70    1
    74    69    63   am
    75    17    19    1
    76    62    61    1
    77    62    63    1
    78    62    65    1
    79    70    71    1
    80    70    73    1
    81    71    72    2
    82    63    64    2
    83    66    65    1
    84    66    68   ar
    85    73    74    1
    86    74    75    1
    87    56    55    2
    88    55    54    1
    89    75    77   ar
    90    75    76   ar
    91    57    54    1
    92    57    58    1
    93    54    53    1
    94    58    60   am
    95    58    59    2
