@<TRIPOS>MOLECULE
tmp/5oeaB00.pdb
 209 205 0 0 0
SMALL
GASTEIGER

@<TRIPOS>ATOM
      1  N         71.7260   92.4890   -4.3990 N.3     1  PHE1       -0.1227
      2  CA        72.8750   92.7260   -3.4690 C.3     1  PHE1        0.1736
      3  C         73.0630   91.5970   -2.4460 C.2     1  PHE1        0.2595
      4  O         72.1250   91.2030   -1.7410 O.2     1  PHE1       -0.2718
      5  CB        72.7240   94.0600   -2.7230 C.3     1  PHE1        0.0547
      6  CG        73.7090   94.2390   -1.5960 C.ar    1  PHE1       -0.0202
      7  CD1       74.9710   94.7710   -1.8390 C.ar    1  PHE1       -0.0042
      8  CD2       73.3780   93.8610   -0.2900 C.ar    1  PHE1       -0.0042
      9  CE1       75.8830   94.9330   -0.8060 C.ar    1  PHE1       -0.0003
     10  CE2       74.2880   94.0180    0.7440 C.ar    1  PHE1       -0.0003
     11  CZ        75.5430   94.5550    0.4840 C.ar    1  PHE1       -0.0000
     12  N         74.3080   91.1410   -2.3450 N.am    2  TYR2       -0.1962
     13  CA        74.7260   90.0890   -1.4230 C.3     2  TYR2        0.1771
     14  C         76.1020   90.4610   -0.8510 C.2     2  TYR2        0.2620
     15  O         76.9140   91.1020   -1.5300 O.2     2  TYR2       -0.2715
     16  CB        74.7920   88.7450   -2.1580 C.3     2  TYR2        0.0574
     17  CG        75.6570   88.7780   -3.4010 C.ar    2  TYR2       -0.0198
     18  CD1       75.1290   89.1560   -4.6360 C.ar    2  TYR2       -0.0009
     19  CD2       77.0150   88.4570   -3.3370 C.ar    2  TYR2       -0.0009
     20  CE1       75.9250   89.1990   -5.7720 C.ar    2  TYR2        0.0417
     21  CE2       77.8190   88.4980   -4.4680 C.ar    2  TYR2        0.0417
     22  CZ        77.2720   88.8680   -5.6830 C.ar    2  TYR2        0.1957
     23  OH        78.0750   88.8970   -6.8010 O.3     2  TYR2       -0.2866
     24  N         76.3570   90.0660    0.3920 N.am    3  PHE3       -0.1960
     25  CA        77.6620   90.2910    1.0050 C.3     3  PHE3        0.1771
     26  C         78.7210   89.4390    0.3170 C.2     3  PHE3        0.2619
     27  O         78.4520   88.3030   -0.0720 O.2     3  PHE3       -0.2715
     28  CB        77.6410   89.9610    2.5000 C.3     3  PHE3        0.0574
     29  CG        77.2740   91.1240    3.3840 C.ar    3  PHE3       -0.0200
     30  CD1       78.0490   92.2800    3.3960 C.ar    3  PHE3       -0.0042
     31  CD2       76.1780   91.0500    4.2380 C.ar    3  PHE3       -0.0042
     32  CE1       77.7250   93.3440    4.2220 C.ar    3  PHE3       -0.0003
     33  CE2       75.8520   92.1110    5.0700 C.ar    3  PHE3       -0.0003
     34  CZ        76.6340   93.2540    5.0680 C.ar    3  PHE3       -0.0000
     35  N         79.9160   90.0070    0.1710 N.am    4  GLN4       -0.1964
     36  CA        81.0810   89.3110   -0.3720 C.3     4  GLN4        0.1718
     37  C         82.1240   89.2500    0.7370 C.2     4  GLN4        0.2458
     38  O         82.0710   90.0650    1.6580 O.2     4  GLN4       -0.2730
     39  CB        81.6180   90.0320   -1.6150 C.3     4  GLN4        0.0407
     40  CG        81.2320   89.3560   -2.9280 C.3     4  GLN4        0.0908
     41  CD        81.1090   90.3210   -4.0930 C.2     4  GLN4        0.2608
     42  OE1       80.1530   91.0930   -4.1710 O.2     4  GLN4       -0.2717
     43  NE2       82.0650   90.2670   -5.0140 N.am    4  GLN4       -0.0878
     44  N         83.0660   88.2820    0.6670 N.am    5  PRO5       -0.2716
     45  CA        83.9890   88.0590    1.7840 C.3     5  PRO5        0.1536
     46  C         84.5520   89.3550    2.3560 C.2     5  PRO5        0.2598
     47  O         85.1200   90.1640    1.6150 O.2     5  PRO5       -0.2715
     48  CB        85.0870   87.1990    1.1580 C.3     5  PRO5        0.0310
     49  CG        84.3740   86.4160    0.1100 C.3     5  PRO5        0.0237
     50  CD        83.3390   87.3540   -0.4510 C.3     5  PRO5        0.0939
     51  N         84.3340   89.5710    3.6510 N.am    6  PHE6       -0.1974
     52  CA        84.8070   90.7820    4.3130 C.3     6  PHE6        0.1639
     53  C         86.3170   90.6780    4.4020 C.2     6  PHE6        0.2290
     54  O         86.8380   89.5980    4.6910 O.2     6  PHE6       -0.2864
     55  CB        84.2500   90.9060    5.7380 C.3     6  PHE6        0.0560
     56  CG        82.7550   91.0610    5.8160 C.ar    6  PHE6       -0.0200
     57  CD1       82.1330   92.1800    5.2850 C.ar    6  PHE6       -0.0042
     58  CD2       81.9730   90.1060    6.4630 C.ar    6  PHE6       -0.0042
     59  CE1       80.7580   92.3330    5.3710 C.ar    6  PHE6       -0.0003
     60  CE2       80.5970   90.2550    6.5520 C.ar    6  PHE6       -0.0003
     61  CZ        79.9870   91.3690    6.0040 C.ar    6  PHE6       -0.0000
     62  N         87.5170   95.2520    7.2230 N.3    10  GLN10      -0.1245
     63  CA        86.0540   95.2440    7.3350 C.3    10  GLN10       0.1566
     64  C         85.5480   94.4390    8.5450 C.2    10  GLN10       0.2260
     65  O         84.6900   94.9190    9.2810 O.2    10  GLN10      -0.2867
     66  CB        85.4060   94.7360    6.0350 C.3    10  GLN10       0.0367
     67  CG        85.4370   95.7620    4.9120 C.3    10  GLN10       0.0905
     68  CD        84.7070   95.3080    3.6630 C.2    10  GLN10       0.2608
     69  OE1       84.8930   94.1860    3.1870 O.2    10  GLN10      -0.2717
     70  NE2       83.8870   96.1880    3.1120 N.am   10  GLN10      -0.0878
     71  N         88.0930  106.2330   -1.6680 N.3    35  ILE35      -0.1231
     72  CA        86.7460  105.9900   -2.1730 C.3    35  ILE35       0.1692
     73  C         86.5080  104.5040   -2.3990 C.2    35  ILE35       0.2592
     74  O         87.4500  103.7320   -2.5990 O.2    35  ILE35      -0.2718
     75  CB        86.4470  106.7310   -3.4970 C.3    35  ILE35       0.0266
     76  CG1       87.5110  106.4480   -4.5690 C.3    35  ILE35       0.0019
     77  CG2       86.3270  108.2230   -3.2560 C.3    35  ILE35       0.0020
     78  CD1       86.9580  106.4990   -5.9720 C.3    35  ILE35       0.0001
     79  N         85.2340  104.1240   -2.3630 N.am   36  ARG36      -0.1966
     80  CA        84.7830  102.7900   -2.7390 C.3    36  ARG36       0.1729
     81  C         85.4440  101.6660   -1.9260 C.2    36  ARG36       0.2616
     82  O         85.5860  100.5470   -2.4130 O.2    36  ARG36      -0.2715
     83  CB        85.0100  102.5780   -4.2480 C.3    36  ARG36       0.0348
     84  CG        84.4480  103.6770   -5.1520 C.3    36  ARG36       0.0492
     85  CD        82.9270  103.6660   -5.1950 C.3    36  ARG36       0.2205
     86  NE        82.4240  102.4440   -5.8280 N.pl3  36  ARG36      -0.0865
     87  CZ        81.2020  101.9280   -5.6780 C.cat  36  ARG36       0.5346
     88  NH1       80.2880  102.5110   -4.8950 N.pl3  36  ARG36       0.1354
     89  NH2       80.8900  100.7970   -6.3170 N.pl3  36  ARG36       0.1354
     90  N         85.8160  101.9570   -0.6810 N.am   37  ALA37      -0.1963
     91  CA        86.5800  101.0160    0.1390 C.3    37  ALA37       0.1728
     92  C         85.7250  100.1450    1.0740 C.2    37  ALA37       0.2617
     93  O         86.2770   99.3400    1.8240 O.2    37  ALA37      -0.2715
     94  CB        87.6200  101.7770    0.9380 C.3    37  ALA37       0.0334
     95  N         84.3990  100.2910    1.0300 N.am   38  GLY38      -0.1940
     96  CA        83.4890   99.5160    1.8870 C.3    38  GLY38       0.2014
     97  C         83.3180  100.0050    3.3190 C.2    38  GLY38       0.2639
     98  O         82.8940   99.2450    4.1890 O.2    38  GLY38      -0.2714
     99  N         83.6360  101.2750    3.5620 N.am   39  LYS39      -0.1963
    100  CA        83.4880  101.8860    4.8820 C.3    39  LYS39       0.1728
    101  C         82.0280  102.0000    5.3160 C.2    39  LYS39       0.2617
    102  O         81.6430  101.4310    6.3310 O.2    39  LYS39      -0.2715
    103  CB        84.1390  103.2700    4.9060 C.3    39  LYS39       0.0311
    104  CG        85.6510  103.2200    4.8350 C.3    39  LYS39       0.0038
    105  CD        86.2530  104.6140    4.8490 C.3    39  LYS39       0.0206
    106  CE        86.6830  105.0580    3.4650 C.3    39  LYS39       0.1093
    107  NZ        85.5820  105.0380    2.4660 N.3    39  LYS39      -0.1314
    108  N         81.2250  102.7270    4.5420 N.am   40  THR40      -0.1937
    109  CA        79.8190  102.9820    4.8860 C.3    40  THR40       0.2028
    110  C         79.0060  101.7000    5.0160 C.2    40  THR40       0.2642
    111  O         78.2380  101.5500    5.9680 O.2    40  THR40      -0.2714
    112  CB        79.1290  103.8840    3.8400 C.3    40  THR40       0.1808
    113  OG1       79.8690  105.0980    3.6860 O.3    40  THR40      -0.2208
    114  CG2       77.7090  104.2370    4.2500 C.3    40  THR40       0.0379
    115  N         79.1840  100.7820    4.0680 N.am   41  ILE41      -0.1963
    116  CA        78.3520   99.5840    4.0070 C.3    41  ILE41       0.1727
    117  C         78.5330   98.6790    5.2400 C.2    41  ILE41       0.2616
    118  O         77.5400   98.1920    5.7800 O.2    41  ILE41      -0.2715
    119  CB        78.5400   98.8210    2.6670 C.3    41  ILE41       0.0290
    120  CG1       77.3620   97.8800    2.3880 C.3    41  ILE41       0.0022
    121  CG2       79.8490   98.0470    2.6310 C.3    41  ILE41       0.0023
    122  CD1       76.0870   98.5830    1.9550 C.3    41  ILE41       0.0001
    123  N         79.7730   98.4820    5.7000 N.am   42  VAL42      -0.1977
    124  CA        80.0320   97.6800    6.9150 C.3    42  VAL42       0.1596
    125  C         79.8650   98.4780    8.2070 C.2    42  VAL42       0.2287
    126  O         79.4660   97.9250    9.2220 O.2    42  VAL42      -0.2864
    127  CB        81.4300   97.0030    6.9330 C.3    42  VAL42       0.0276
    128  CG1       81.6550   96.2100    5.6550 C.3    42  VAL42       0.0022
    129  CG2       82.5570   98.0060    7.1650 C.3    42  VAL42       0.0022
    130  N         73.3110  107.6020    0.3330 N.3    73  ASN73      -0.1240
    131  CA        74.5460  106.8740    0.6700 C.3    73  ASN73       0.1653
    132  C         74.3770  105.7370    1.6850 C.2    73  ASN73       0.2266
    133  O         74.9000  104.6390    1.4740 O.2    73  ASN73      -0.2867
    134  CB        75.6170  107.8380    1.1960 C.3    73  ASN73       0.1155
    135  CG        76.1130  108.8020    0.1360 C.2    73  ASN73       0.2627
    136  OD1       76.5130  108.3920   -0.9530 O.2    73  ASN73      -0.2716
    137  ND2       76.1080  110.0910    0.4590 N.am   73  ASN73      -0.0877
    138  N         78.5290  109.8420    8.4160 N.3   134  ASP134     -0.1225
    139  CA        78.9190  109.4650    7.0510 C.3   134  ASP134      0.1805
    140  C         79.4270  110.7080    6.3160 C.2   134  ASP134      0.2597
    141  O         78.6920  111.6910    6.1860 O.2   134  ASP134     -0.2718
    142  CB        77.7230  108.8650    6.3090 C.3   134  ASP134      0.1424
    143  CG        78.1210  108.1550    5.0290 C.2   134  ASP134      0.3668
    144  OD1       78.7820  107.0980    5.1260 O.co2 134  ASP134     -0.2456
    145  OD2       77.7480  108.6400    3.9340 O.co2 134  ASP134     -0.2456
    146  N         80.6740  110.6460    5.8380 N.am  135  GLU135     -0.1979
    147  CA        81.3660  111.7790    5.2170 C.3   135  GLU135      0.1602
    148  C         81.5700  112.9230    6.2220 C.2   135  GLU135      0.2287
    149  O         81.2540  114.0780    5.9280 O.2   135  GLU135     -0.2864
    150  CB        80.6130  112.3030    3.9780 C.3   135  GLU135      0.0415
    151  CG        80.1180  111.2660    2.9770 C.3   135  GLU135      0.1163
    152  CD        79.1250  111.8610    1.9830 C.2   135  GLU135      0.3649
    153  OE1       78.0500  112.3510    2.4200 O.co2 135  GLU135     -0.2457
    154  OE2       79.4200  111.8350    0.7670 O.co2 135  GLU135     -0.2457
    155  N         83.0090  108.0150    9.4400 N.3   161  ASN161     -0.1225
    156  CA        83.7100  107.6710    8.2010 C.3   161  ASN161      0.1785
    157  C         83.7770  108.8800    7.2770 C.2   161  ASN161      0.2597
    158  O         82.8860  109.7300    7.2970 O.2   161  ASN161     -0.2718
    159  CB        83.1160  106.4260    7.5120 C.3   161  ASN161      0.1169
    160  CG        81.8780  106.7230    6.6860 C.2   161  ASN161      0.2627
    161  OD1       81.9660  107.2580    5.5830 O.2   161  ASN161     -0.2716
    162  ND2       80.7170  106.3400    7.2000 N.am  161  ASN161     -0.0877
    163  N         84.8480  108.9490    6.4850 N.am  162  CYS162     -0.1956
    164  CA        85.0850  110.0650    5.5630 C.3   162  CYS162      0.1843
    165  C         86.1960  109.7780    4.5730 C.2   162  CYS162      0.2625
    166  O         86.9790  108.8400    4.7430 O.2   162  CYS162     -0.2714
    167  CB        85.4950  111.3180    6.3320 C.3   162  CYS162      0.0997
    168  SG        87.1090  111.1750    7.1410 S.3   162  CYS162     -0.0797
    169  N         86.2650  110.6210    3.5490 N.am  163  ASN163     -0.1972
    170  CA        87.4260  110.6860    2.6670 C.3   163  ASN163      0.1688
    171  C         88.3400  111.7970    3.1670 C.2   163  ASN163      0.2292
    172  O         87.8840  112.6880    3.8870 O.2   163  ASN163     -0.2864
    173  CB        87.0020  110.9570    1.2230 C.3   163  ASN163      0.1181
    174  CG        86.2110  109.8100    0.6220 C.2   163  ASN163      0.2629
    175  OD1       85.0840  109.9940    0.1660 O.2   163  ASN163     -0.2716
    176  ND2       86.7970  108.6160    0.6260 N.am  163  ASN163     -0.0877
    177  N         88.2060   96.5920    0.1320 N.3   194  ASN194     -0.1240
    178  CA        86.9650   96.1450   -0.4800 C.3   194  ASN194      0.1653
    179  C         87.3020   94.9320   -1.3430 C.2   194  ASN194      0.2266
    180  O         87.7600   95.0670   -2.4800 O.2   194  ASN194     -0.2867
    181  CB        86.3060   97.2530   -1.3080 C.3   194  ASN194      0.1155
    182  CG        84.9010   96.8850   -1.7760 C.2   194  ASN194      0.2627
    183  OD1       84.4610   95.7400   -1.6440 O.2   194  ASN194     -0.2716
    184  ND2       84.1900   97.8630   -2.3310 N.am  194  ASN194     -0.0877
    185  N         85.1270   92.9400   -2.5780 N.3   196  SER196     -0.1202
    186  CA        84.1230   92.8370   -3.6430 C.3   196  SER196      0.2020
    187  C         84.6560   93.3060   -5.0010 C.2   196  SER196      0.2618
    188  O         84.1940   92.8220   -6.0420 O.2   196  SER196     -0.2717
    189  CB        82.8430   93.6170   -3.2910 C.3   196  SER196      0.2103
    190  OG        82.9820   95.0150   -3.5000 O.3   196  SER196     -0.2182
    191  N         85.6190   94.2340   -4.9820 N.am  197  LEU197     -0.1979
    192  CA        86.1520   94.8390   -6.2040 C.3   197  LEU197      0.1596
    193  C         87.1990   93.9640   -6.8740 C.2   197  LEU197      0.2287
    194  O         88.0940   93.4340   -6.2090 O.2   197  LEU197     -0.2864
    195  CB        86.7910   96.1860   -5.8980 C.3   197  LEU197      0.0297
    196  CG        85.9040   97.2260   -5.2300 C.3   197  LEU197      0.0022
    197  CD1       86.7610   98.4220   -4.8520 C.3   197  LEU197      0.0001
    198  CD2       84.7450   97.6340   -6.1300 C.3   197  LEU197      0.0001
    199  N         86.3400  118.6560   -8.2510 N.3   347  ARG347     -0.1245
    200  CA        86.6800  117.2350   -8.2510 C.3   347  ARG347      0.1563
    201  C         86.1390  116.4810   -9.4740 C.2   347  ARG347      0.2260
    202  O         86.7930  115.5580   -9.9650 O.2   347  ARG347     -0.2867
    203  CB        86.1530  116.6020   -6.9650 C.3   347  ARG347      0.0307
    204  CG        86.4560  115.1290   -6.7860 C.3   347  ARG347      0.0489
    205  CD        85.8950  114.6460   -5.4610 C.3   347  ARG347      0.2205
    206  NE        85.7790  113.1900   -5.4160 N.pl3 347  ARG347     -0.0865
    207  CZ        85.4790  112.4820   -4.3290 C.cat 347  ARG347      0.5346
    208  NH1       85.2660  113.0750   -3.1530 N.pl3 347  ARG347      0.1354
    209  NH2       85.3940  111.1590   -4.4150 N.pl3 347  ARG347      0.1354
@<TRIPOS>BOND
     1   202   201    2
     2   201   200    1
     3   200   199    1
     4   200   203    1
     5   203   204    1
     6   193   194    2
     7   193   192    1
     8    23    22    1
     9   204   205    1
    10    89    87    1
    11   192   195    1
    12   192   191    1
    13   198   196    1
    14   188   187    2
    15    78    76    1
    16   195   196    1
    17    86    87    2
    18    86    85    1
    19    20    22   ar
    20    20    18   ar
    21    22    21   ar
    22    87    88    1
    23   205   206    1
    24   206   207    2
    25   196   197    1
    26    85    84    1
    27    84    83    1
    28    43    41   am
    29   187   191   am
    30   187   186    1
    31    18    17   ar
    32    76    75    1
    33    21    19   ar
    34   209   207    1
    35     1     2    1
    36   207   208    1
    37    83    80    1
    38    42    41    2
    39    41    40    1
    40   186   189    1
    41   186   185    1
    42   190   189    1
    43    75    77    1
    44    75    72    1
    45     2     5    1
    46     2     3    1
    47    17    19   ar
    48    17    16    1
    49    40    39    1
    50    80    79    1
    51    80    81    1
    52     5     6    1
    53    74    73    2
    54   180   179    2
    55     3    12   am
    56     3     4    2
    57    82    81    2
    58    73    79   am
    59    73    72    1
    60    12    13    1
    61   184   182   am
    62    72    71    1
    63    16    13    1
    64    81    90   am
    65     7     6   ar
    66     7     9   ar
    67   182   183    2
    68   182   181    1
    69    39    36    1
    70     6     8   ar
    71    15    14    2
    72    13    14    1
    73   179   178    1
    74   181   178    1
    75   136   135    2
    76    14    24   am
    77     9    11   ar
    78    90    91    1
    79   178   177    1
    80    50    49    1
    81    50    44    1
    82    36    35    1
    83    36    37    1
    84     8    10   ar
    85    27    26    2
    86    49    48    1
    87   135   137   am
    88   135   134    1
    89    91    94    1
    90    91    92    1
    91   175   174    2
    92    35    26   am
    93    26    25    1
    94   130   131    1
    95    24    25    1
    96    11    10   ar
    97   174   176   am
    98   174   173    1
    99    44    37   am
   100    44    45    1
   101   131   134    1
   102   131   132    1
   103    37    38    2
   104   154   152   ar
   105    25    28    1
   106    95    92   am
   107    95    96    1
   108    92    93    2
   109    48    45    1
   110   173   170    1
   111   133   132    2
   112    47    46    2
   113    45    46    1
   114    96    97    1
   115   122   120    1
   116   152   153   ar
   117   152   151    1
   118    46    51   am
   119   120   119    1
   120   107   106    1
   121    28    29    1
   122   121   119    1
   123   119   116    1
   124   170   171    1
   125   170   169    1
   126   151   150    1
   127    70    68   am
   128   171   172    2
   129    69    68    2
   130    97    99   am
   131    97    98    2
   132    29    30   ar
   133    29    31   ar
   134    30    32   ar
   135   106   105    1
   136   169   165   am
   137    99   100    1
   138    51    52    1
   139    68    67    1
   140   113   112    1
   141   112   114    1
   142   112   109    1
   143   145   143   ar
   144   150   147    1
   145   116   115    1
   146   116   117    1
   147   115   110   am
   148    32    34   ar
   149    31    33   ar
   150    52    53    1
   151    52    55    1
   152    53    54    2
   153   108   109    1
   154   108   101   am
   155   165   166    2
   156   165   164    1
   157   104   105    1
   158   104   103    1
   159   100   103    1
   160   100   101    1
   161   109   110    1
   162    67    66    1
   163   110   111    2
   164   143   144   ar
   165   143   142    1
   166    34    33   ar
   167   147   146    1
   168   147   148    1
   169   117   123   am
   170   117   118    2
   171    57    59   ar
   172    57    56   ar
   173   101   102    2
   174    59    61   ar
   175   164   167    1
   176   164   163    1
   177   161   160    2
   178   128   127    1
   179   123   124    1
   180    55    56    1
   181    56    58   ar
   182   146   140   am
   183   149   148    2
   184    61    60   ar
   185    66    63    1
   186   141   140    2
   187   142   139    1
   188   140   139    1
   189   167   168    1
   190    58    60   ar
   191   163   157   am
   192   160   162   am
   193   160   159    1
   194   124   127    1
   195   124   125    1
   196   127   129    1
   197   139   138    1
   198    62    63    1
   199   157   158    2
   200   157   156    1
   201    63    64    1
   202   159   156    1
   203   156   155    1
   204   125   126    2
   205    64    65    2
