@<TRIPOS>MOLECULE
tmp/5oebB00.pdb
 131 127 0 0 0
SMALL
GASTEIGER

@<TRIPOS>ATOM
      1  N        -81.6750   30.0200  -83.7280 N.3     1  PRO1       -0.2102
      2  CA       -82.8120   29.1110  -84.0810 C.3     1  PRO1        0.1504
      3  C        -83.3320   29.0350  -85.5250 C.2     1  PRO1        0.2575
      4  O        -84.2060   29.8200  -85.9380 O.2     1  PRO1       -0.2718
      5  CB       -83.9330   29.5810  -83.1140 C.3     1  PRO1        0.0282
      6  CG       -83.1680   30.0690  -81.9270 C.3     1  PRO1        0.0208
      7  CD       -82.0220   30.8390  -82.5510 C.3     1  PRO1        0.0893
      8  N        -82.9410   27.9770  -86.2510 N.am    2  PHE2       -0.1977
      9  CA       -83.6580   27.5180  -87.4480 C.3     2  PHE2        0.1639
     10  C        -85.1450   27.2690  -87.1940 C.2     2  PHE2        0.2290
     11  O        -85.5160   26.7120  -86.1510 O.2     2  PHE2       -0.2864
     12  CB       -83.0390   26.2330  -88.0230 C.3     2  PHE2        0.0560
     13  CG       -81.5660   26.3380  -88.3420 C.ar    2  PHE2       -0.0200
     14  CD1      -81.0510   27.4420  -89.0190 C.ar    2  PHE2       -0.0042
     15  CD2      -80.6970   25.3200  -87.9760 C.ar    2  PHE2       -0.0042
     16  CE1      -79.6930   27.5330  -89.3110 C.ar    2  PHE2       -0.0003
     17  CE2      -79.3390   25.4040  -88.2660 C.ar    2  PHE2       -0.0003
     18  CZ       -78.8290   26.5110  -88.9410 C.ar    2  PHE2       -0.0000
     19  N        -86.8290   25.6510  -92.1000 N.3     6  GLN6       -0.1245
     20  CA       -85.3790   25.6110  -92.3060 C.3     6  GLN6        0.1566
     21  C        -84.8110   24.2320  -91.9720 C.2     6  GLN6        0.2260
     22  O        -83.9680   23.7140  -92.7090 O.2     6  GLN6       -0.2867
     23  CB       -84.6730   26.6960  -91.4740 C.3     6  GLN6        0.0367
     24  CG       -84.8760   28.1040  -92.0200 C.3     6  GLN6        0.0905
     25  CD       -84.2150   29.1680  -91.1650 C.2     6  GLN6        0.2608
     26  OE1      -84.6020   29.3850  -90.0190 O.2     6  GLN6       -0.2717
     27  NE2      -83.2380   29.8610  -91.7320 N.am    6  GLN6       -0.0878
     28  N        -89.5670   34.4800 -100.5070 N.3    30  SER30      -0.1202
     29  CA       -89.1720   35.8550 -100.2340 C.3    30  SER30       0.2020
     30  C        -87.6800   35.9890  -99.9990 C.2    30  SER30       0.2619
     31  O        -86.9810   35.0000  -99.7690 O.2    30  SER30      -0.2717
     32  CB       -89.9030   36.3630  -98.9890 C.3    30  SER30       0.2103
     33  OG       -89.5080   35.6260  -97.8460 O.3    30  SER30      -0.2182
     34  N        -87.2030   37.2280 -100.0570 N.am   31  ILE31      -0.1965
     35  CA       -85.8440   37.5540  -99.6290 C.3    31  ILE31       0.1727
     36  C        -85.7380   37.5210  -98.1070 C.2    31  ILE31       0.2616
     37  O        -86.7270   37.6850  -97.3990 O.2    31  ILE31      -0.2715
     38  CB       -85.3450   38.9150 -100.1600 C.3    31  ILE31       0.0290
     39  CG1      -86.2320   40.0830  -99.6950 C.3    31  ILE31       0.0022
     40  CG2      -85.2440   38.8620 -101.6690 C.3    31  ILE31       0.0023
     41  CD1      -85.5310   41.4280  -99.7270 C.3    31  ILE31       0.0001
     42  N        -84.5150   37.3100  -97.6340 N.am   32  ARG32      -0.1963
     43  CA       -84.1940   37.2260  -96.2070 C.3    32  ARG32       0.1729
     44  C        -85.0540   36.2420  -95.4100 C.2    32  ARG32       0.2616
     45  O        -85.3990   36.4800  -94.2540 O.2    32  ARG32      -0.2715
     46  CB       -84.1820   38.6310  -95.5880 C.3    32  ARG32       0.0348
     47  CG       -82.7760   39.1090  -95.2630 C.3    32  ARG32       0.0492
     48  CD       -82.7730   40.5890  -94.9920 C.3    32  ARG32       0.2205
     49  NE       -82.8790   41.3770  -96.2230 N.pl3  32  ARG32      -0.0865
     50  CZ       -81.8630   41.9800  -96.8490 C.cat  32  ARG32       0.5346
     51  NH1      -80.6090   41.9230  -96.3880 N.pl3  32  ARG32       0.1354
     52  NH2      -82.1030   42.6700  -97.9620 N.pl3  32  ARG32       0.1354
     53  N        -85.3650   35.1130  -96.0450 N.am   33  ALA33      -0.1963
     54  CA       -86.0640   34.0220  -95.3950 C.3    33  ALA33       0.1728
     55  C        -85.0850   33.0250  -94.7730 C.2    33  ALA33       0.2617
     56  O        -85.5220   32.0320  -94.1710 O.2    33  ALA33      -0.2715
     57  CB       -86.9620   33.3180  -96.3860 C.3    33  ALA33       0.0334
     58  N        -83.7760   33.2780  -94.9000 N.am   34  GLY34      -0.1940
     59  CA       -82.7700   32.3770  -94.3420 C.3    34  GLY34       0.2014
     60  C        -82.6660   31.0680  -95.0790 C.2    34  GLY34       0.2639
     61  O        -82.3080   30.0590  -94.4920 O.2    34  GLY34      -0.2714
     62  N        -82.9590   31.0950  -96.3720 N.am   35  LYS35      -0.1963
     63  CA       -83.0110   29.8810  -97.1860 C.3    35  LYS35       0.1728
     64  C        -81.7230   29.6200  -97.9610 C.2    35  LYS35       0.2617
     65  O        -81.3560   28.4640  -98.1290 O.2    35  LYS35      -0.2715
     66  CB       -84.2390   29.8760  -98.1080 C.3    35  LYS35       0.0311
     67  CG       -84.3110   30.9500  -99.1780 C.3    35  LYS35       0.0038
     68  CD       -85.4410   30.6480 -100.1420 C.3    35  LYS35       0.0206
     69  CE       -85.7850   31.8320 -101.0200 C.3    35  LYS35       0.1093
     70  NZ       -84.6740   32.1860 -101.9420 N.3    35  LYS35      -0.1314
     71  N        -81.0400   30.6700  -98.4200 N.am   36  THR36      -0.1937
     72  CA       -79.7700   30.4990  -99.1430 C.3    36  THR36       0.2028
     73  C        -78.7100   29.8490  -98.2670 C.2    36  THR36       0.2642
     74  O        -77.9870   28.9670  -98.7260 O.2    36  THR36      -0.2714
     75  CB       -79.2020   31.8320  -99.6830 C.3    36  THR36       0.1808
     76  OG1      -80.2410   32.5870 -100.3050 O.3    36  THR36      -0.2208
     77  CG2      -78.0870   31.5780 -100.7020 C.3    36  THR36       0.0379
     78  N        -78.6300   30.2670  -97.0090 N.am   37  ILE37      -0.1977
     79  CA       -77.5540   29.8030  -96.1280 C.3    37  ILE37       0.1596
     80  C        -77.7700   28.3720  -95.6140 C.2    37  ILE37       0.2287
     81  O        -76.8210   27.5830  -95.6080 O.2    37  ILE37      -0.2864
     82  CB       -77.2660   30.8160  -94.9830 C.3    37  ILE37       0.0276
     83  CG1      -75.8180   30.6730  -94.4940 C.3    37  ILE37       0.0022
     84  CG2      -78.2770   30.7120  -93.8410 C.3    37  ILE37       0.0022
     85  CD1      -74.7710   31.2390  -95.4440 C.3    37  ILE37       0.0001
     86  N        -72.7380   35.9100 -102.0560 N.3    69  ASN69      -0.1240
     87  CA       -74.0050   35.4280 -101.4910 C.3    69  ASN69       0.1653
     88  C        -73.8320   34.1620 -100.6660 C.2    69  ASN69       0.2266
     89  O        -74.2580   34.1110  -99.5110 O.2    69  ASN69      -0.2867
     90  CB       -75.0250   35.1270 -102.5940 C.3    69  ASN69       0.1155
     91  CG       -75.4280   36.3540 -103.3810 C.2    69  ASN69       0.2627
     92  OD1      -75.4390   37.4630 -102.8570 O.2    69  ASN69      -0.2716
     93  ND2      -75.7710   36.1600 -104.6460 N.am   69  ASN69      -0.0877
     94  N        -85.6840   33.3730 -105.8940 N.3   159  ASN159     -0.1240
     95  CA       -86.7400   34.3170 -105.5760 C.3   159  ASN159      0.1653
     96  C        -87.6240   34.4970 -106.8070 C.2   159  ASN159      0.2266
     97  O        -87.1440   34.3310 -107.9380 O.2   159  ASN159     -0.2867
     98  CB       -86.1290   35.6520 -105.1710 C.3   159  ASN159      0.1155
     99  CG       -85.3540   35.5790 -103.8710 C.2   159  ASN159      0.2627
    100  OD1      -85.8760   35.1520 -102.8500 O.2   159  ASN159     -0.2716
    101  ND2      -84.0750   36.0170 -103.9080 N.am  159  ASN159     -0.0877
    102  N        -87.8980   32.8860  -90.9800 N.3   190  ASN190     -0.1225
    103  CA       -86.5950   33.3400  -90.5100 C.3   190  ASN190      0.1785
    104  C        -86.7660   33.8740  -89.0910 C.2   190  ASN190      0.2597
    105  O        -87.1690   35.0230  -88.8950 O.2   190  ASN190     -0.2718
    106  CB       -86.0570   34.4270  -91.4470 C.3   190  ASN190      0.1169
    107  CG       -84.5880   34.7510  -91.1910 C.2   190  ASN190      0.2627
    108  OD1      -84.0210   34.3860  -90.1490 O.2   190  ASN190     -0.2716
    109  ND2      -83.9590   35.4180  -92.1530 N.am  190  ASN190     -0.0877
    110  N        -86.4530   33.0410  -88.1050 N.am  191  LEU191     -0.1966
    111  CA       -86.6810   33.3940  -86.6920 C.3   191  LEU191      0.1728
    112  C        -85.7360   34.4750  -86.1570 C.2   191  LEU191      0.2617
    113  O        -86.0550   35.1230  -85.1580 O.2   191  LEU191     -0.2715
    114  CB       -86.6160   32.1600  -85.7920 C.3   191  LEU191      0.0311
    115  CG       -87.8840   31.3410  -85.6180 C.3   191  LEU191      0.0022
    116  CD1      -88.5610   31.0720  -86.9470 C.3   191  LEU191      0.0001
    117  CD2      -87.5520   30.0240  -84.9240 C.3   191  LEU191      0.0001
    118  N        -84.5900   34.6740  -86.8090 N.am  192  SER192     -0.1936
    119  CA       -83.6310   35.7110  -86.3990 C.3   192  SER192      0.2055
    120  C        -84.1600   37.1420  -86.5960 C.2   192  SER192      0.2642
    121  O        -83.7460   38.0540  -85.8780 O.2   192  SER192     -0.2714
    122  CB       -82.2970   35.5420  -87.1330 C.3   192  SER192      0.2130
    123  OG       -82.4390   35.7580  -88.5230 O.3   192  SER192     -0.2179
    124  N        -85.0690   37.3270  -87.5560 N.am  193  LEU193     -0.1977
    125  CA       -85.6690   38.6370  -87.8220 C.3   193  LEU193      0.1596
    126  C        -86.7740   38.9530  -86.8000 C.2   193  LEU193      0.2287
    127  O        -87.6910   38.1440  -86.6040 O.2   193  LEU193     -0.2864
    128  CB       -86.2420   38.7050  -89.2470 C.3   193  LEU193      0.0297
    129  CG       -85.3550   39.1410  -90.4210 C.3   193  LEU193      0.0022
    130  CD1      -83.9190   38.6640  -90.2710 C.3   193  LEU193      0.0001
    131  CD2      -85.9950   38.6540  -91.7130 C.3   193  LEU193      0.0001
@<TRIPOS>BOND
     1    97    96    2
     2    96    95    1
     3    94    95    1
     4    95    98    1
     5    98    99    1
     6    93    91   am
     7   101    99   am
     8    99   100    2
     9    91    92    2
    10    91    90    1
    11    90    87    1
    12    86    87    1
    13    70    69    1
    14    40    38    1
    15    87    88    1
    16    69    68    1
    17    77    75    1
    18    88    89    2
    19    28    29    1
    20    76    75    1
    21    29    30    1
    22    29    32    1
    23    38    39    1
    24    38    35    1
    25    68    67    1
    26    34    30   am
    27    34    35    1
    28    30    31    2
    29    41    39    1
    30    75    72    1
    31    35    36    1
    32    67    66    1
    33    72    71    1
    34    72    73    1
    35    32    33    1
    36    74    73    2
    37    71    64   am
    38    73    78   am
    39    65    64    2
    40    66    63    1
    41    36    42   am
    42    36    37    2
    43    52    50    1
    44    64    63    1
    45    42    43    1
    46    63    62    1
    47    78    79    1
    48    50    51    1
    49    50    49    2
    50    57    54    1
    51    62    60   am
    52    49    48    1
    53    43    46    1
    54    43    44    1
    55    79    80    1
    56    79    82    1
    57    53    44   am
    58    53    54    1
    59    80    81    2
    60    46    47    1
    61    85    83    1
    62    44    45    2
    63    54    55    1
    64    47    48    1
    65    60    61    2
    66    60    59    1
    67    82    83    1
    68    82    84    1
    69    58    55   am
    70    58    59    1
    71    55    56    2
    72    22    21    2
    73    20    19    1
    74    20    21    1
    75    20    23    1
    76   109   107   am
    77    24    23    1
    78    24    25    1
    79    27    25   am
    80   131   129    1
    81   106   107    1
    82   106   103    1
    83   107   108    2
    84    25    26    2
    85   102   103    1
    86   103   104    1
    87   129   130    1
    88   129   128    1
    89    16    14   ar
    90    16    18   ar
    91   128   125    1
    92   104   105    2
    93   104   110   am
    94    14    13   ar
    95    18    17   ar
    96   123   122    1
    97    13    12    1
    98    13    15   ar
    99    17    15   ar
   100   110   111    1
   101    12     9    1
   102   125   124    1
   103   125   126    1
   104   124   120   am
   105     9    10    1
   106     9     8    1
   107    10    11    2
   108   122   119    1
   109   116   115    1
   110   118   119    1
   111   118   112   am
   112   126   127    2
   113   111   112    1
   114   111   114    1
   115   120   119    1
   116   120   121    2
   117     8     3   am
   118   112   113    2
   119     4     3    2
   120   114   115    1
   121   115   117    1
   122     3     2    1
   123     2     1    1
   124     2     5    1
   125     1     7    1
   126     5     6    1
   127     7     6    1
