@<TRIPOS>MOLECULE
tmp/5oecB00.pdb
 146 141 0 0 0
SMALL
GASTEIGER

@<TRIPOS>ATOM
      1  N          9.6780   17.3000  150.7950 N.3    13  LEU13      -0.1231
      2  CA         8.8110   18.3870  150.3620 C.3    13  LEU13       0.1693
      3  C          8.6510   19.4180  151.4720 C.2    13  LEU13       0.2593
      4  O          8.4290   19.0670  152.6350 O.2    13  LEU13      -0.2718
      5  CB         7.4450   17.8400  149.9490 C.3    13  LEU13       0.0284
      6  CG         6.3650   18.8710  149.6130 C.3    13  LEU13       0.0019
      7  CD1        6.7750   19.7120  148.4130 C.3    13  LEU13       0.0001
      8  CD2        5.0260   18.1890  149.3660 C.3    13  LEU13       0.0001
      9  N          8.7640   20.6930  151.1090 N.am   14  GLY14      -0.1942
     10  CA         8.5400   21.7630  152.0600 C.3    14  GLY14       0.2014
     11  C          9.7000   22.0650  152.9790 C.2    14  GLY14       0.2639
     12  O          9.4830   22.5230  154.1050 O.2    14  GLY14      -0.2714
     13  N         10.9330   21.8240  152.5350 N.am   15  VAL15      -0.1963
     14  CA        12.1150   22.1230  153.3380 C.3    15  VAL15       0.1727
     15  C         12.8650   23.3530  152.8500 C.2    15  VAL15       0.2617
     16  O         13.7160   23.8720  153.5920 O.2    15  VAL15      -0.2715
     17  CB        13.0730   20.9150  153.4070 C.3    15  VAL15       0.0290
     18  CG1       12.3480   19.6920  153.9470 C.3    15  VAL15       0.0023
     19  CG2       13.6720   20.6300  152.0420 C.3    15  VAL15       0.0023
     20  N         12.5870   23.8340  151.6480 N.am   16  GLY16      -0.1940
     21  CA        13.2160   25.0210  151.1180 C.3    16  GLY16       0.2014
     22  C         14.1520   24.8190  149.9370 C.2    16  GLY16       0.2639
     23  O         14.9760   25.7030  149.6730 O.2    16  GLY16      -0.2714
     24  N         14.0480   23.6990  149.2190 N.am   17  LYS17      -0.1963
     25  CA        14.9670   23.4340  148.1160 C.3    17  LYS17       0.1728
     26  C         14.7890   24.4460  146.9910 C.2    17  LYS17       0.2617
     27  O         15.7650   25.0330  146.5100 O.2    17  LYS17      -0.2715
     28  CB        14.7630   22.0130  147.5940 C.3    17  LYS17       0.0311
     29  CG        14.9270   20.9400  148.6480 C.3    17  LYS17       0.0038
     30  CD        14.6750   19.5670  148.0620 C.3    17  LYS17       0.0206
     31  CE        13.2920   19.4760  147.4470 C.3    17  LYS17       0.1093
     32  NZ        12.2090   19.6160  148.4580 N.3    17  LYS17      -0.1314
     33  N         13.5460   24.6570  146.5540 N.am   18  THR18      -0.1937
     34  CA        13.2880   25.6370  145.5050 C.3    18  THR18       0.2028
     35  C         13.6290   27.0460  145.9770 C.2    18  THR18       0.2642
     36  O         14.1680   27.8530  145.2100 O.2    18  THR18      -0.2714
     37  CB        11.8270   25.5540  145.0590 C.3    18  THR18       0.1808
     38  OG1       11.5430   24.2310  144.5860 O.3    18  THR18      -0.2208
     39  CG2       11.5470   26.5470  143.9490 C.3    18  THR18       0.0379
     40  N         13.3360   27.3530  147.2430 N.am   19  SER19      -0.1949
     41  CA        13.6280   28.6810  147.7720 C.3    19  SER19       0.1924
     42  C         15.1300   28.9350  147.8410 C.2    19  SER19       0.2314
     43  O         15.5910   30.0450  147.5490 O.2    19  SER19      -0.2863
     44  CB        12.9920   28.8460  149.1530 C.3    19  SER19       0.2116
     45  OG        11.5930   28.6230  149.1050 O.3    19  SER19      -0.2180
     46  N         13.0110   35.6440  147.0510 N.3    29  PHE29      -0.1227
     47  CA        12.3710   34.7700  148.0210 C.3    29  PHE29       0.1736
     48  C         10.8730   35.0340  148.0300 C.2    29  PHE29       0.2596
     49  O         10.4370   36.1870  147.9580 O.2    29  PHE29      -0.2718
     50  CB        12.9430   34.9630  149.4300 C.3    29  PHE29       0.0547
     51  CG        12.3130   34.0700  150.4640 C.ar   29  PHE29      -0.0202
     52  CD1       12.7540   32.7670  150.6330 C.ar   29  PHE29      -0.0042
     53  CD2       11.2780   34.5300  151.2610 C.ar   29  PHE29      -0.0042
     54  CE1       12.1760   31.9420  151.5790 C.ar   29  PHE29      -0.0003
     55  CE2       10.6950   33.7080  152.2080 C.ar   29  PHE29      -0.0003
     56  CZ        11.1450   32.4130  152.3670 C.ar   29  PHE29      -0.0000
     57  N         10.0980   33.9580  148.1270 N.am   30  SER30      -0.1938
     58  CA         8.6460   34.0330  148.2260 C.3    30  SER30       0.2055
     59  C          8.1420   32.6670  148.6730 C.2    30  SER30       0.2642
     60  O          8.9070   31.7040  148.7720 O.2    30  SER30      -0.2714
     61  CB         8.0060   34.4530  146.9010 C.3    30  SER30       0.2130
     62  OG         8.2390   33.4880  145.8910 O.3    30  SER30      -0.2179
     63  N          6.8390   32.5960  148.9420 N.am   31  GLN31      -0.1976
     64  CA         6.2170   31.3650  149.4110 C.3    31  GLN31       0.1601
     65  C          5.4970   30.5940  148.3140 C.2    31  GLN31       0.2287
     66  O          5.0680   29.4610  148.5570 O.2    31  GLN31      -0.2864
     67  CB         5.2320   31.6630  150.5510 C.3    31  GLN31       0.0394
     68  CG         4.3390   32.8680  150.3160 C.3    31  GLN31       0.0908
     69  CD         4.9530   34.1530  150.8340 C.2    31  GLN31       0.2608
     70  OE1        5.5510   34.1780  151.9100 O.2    31  GLN31      -0.2717
     71  NE2        4.8160   35.2260  150.0660 N.am   31  GLN31      -0.0878
     72  N          6.1620   29.9190  144.1800 N.3    33  TYR33      -0.1241
     73  CA         6.8570   30.0950  142.9070 C.3    33  TYR33       0.1605
     74  C          6.0010   29.4540  141.8200 C.2    33  TYR33       0.2264
     75  O          5.9660   28.2290  141.6840 O.2    33  TYR33      -0.2867
     76  CB         8.2530   29.4830  142.9550 C.3    33  TYR33       0.0534
     77  CG         9.1460   30.0640  144.0290 C.ar   33  TYR33      -0.0201
     78  CD1        9.8280   31.2570  143.8230 C.ar   33  TYR33      -0.0009
     79  CD2        9.3130   29.4160  145.2460 C.ar   33  TYR33      -0.0009
     80  CE1       10.6480   31.7910  144.8010 C.ar   33  TYR33       0.0417
     81  CE2       10.1310   29.9410  146.2300 C.ar   33  TYR33       0.0417
     82  CZ        10.7950   31.1280  146.0020 C.ar   33  TYR33       0.1957
     83  OH        11.6100   31.6540  146.9790 O.3    33  TYR33      -0.2866
     84  N         10.3470   14.6270  144.5660 N.3    64  GLU64      -0.1245
     85  CA        10.6000   14.7490  145.9970 C.3    64  GLU64       0.1567
     86  C          9.6090   13.9450  146.8300 C.2    64  GLU64       0.2260
     87  O          9.9690   13.4540  147.9060 O.2    64  GLU64      -0.2867
     88  CB        10.5660   16.2220  146.4140 C.3    64  GLU64       0.0388
     89  CG         9.2010   16.8830  146.2870 C.3    64  GLU64       0.1160
     90  CD         9.2920   18.3880  146.1250 C.2    64  GLU64       0.3649
     91  OE1       10.2900   18.9780  146.5840 O.co2  64  GLU64      -0.2457
     92  OE2        8.3680   18.9790  145.5270 O.co2  64  GLU64      -0.2457
     93  N         18.0500   24.1920  156.6740 N.3   121  ASN121     -0.1225
     94  CA        17.3100   25.3570  156.2200 C.3   121  ASN121      0.1785
     95  C         16.3550   25.8460  157.3080 C.2   121  ASN121      0.2597
     96  O         16.1190   25.1780  158.3190 O.2   121  ASN121     -0.2718
     97  CB        16.5440   25.0430  154.9360 C.3   121  ASN121      0.1169
     98  CG        16.2960   26.2770  154.0940 C.2   121  ASN121      0.2627
     99  OD1       17.1260   27.1850  154.0480 O.2   121  ASN121     -0.2716
    100  ND2       15.1480   26.3230  153.4300 N.am  121  ASN121     -0.0877
    101  N         15.8000   27.0390  157.0780 N.am  122  LYS122     -0.1980
    102  CA        14.9510   27.7270  158.0530 C.3   122  LYS122      0.1596
    103  C         15.6710   27.9110  159.3880 C.2   122  LYS122      0.2287
    104  O         15.0640   27.8280  160.4580 O.2   122  LYS122     -0.2864
    105  CB        13.6180   27.0010  158.2550 C.3   122  LYS122      0.0298
    106  CG        12.5940   27.2590  157.1620 C.3   122  LYS122      0.0038
    107  CD        11.1750   27.1060  157.6880 C.3   122  LYS122      0.0206
    108  CE        10.8990   28.0790  158.8250 C.3   122  LYS122      0.1093
    109  NZ         9.5140   27.9410  159.3560 N.3   122  LYS122     -0.1314
    110  N         16.6220   30.5840  160.5320 N.3   124  ASP124     -0.1225
    111  CA        16.0760   31.7730  161.1750 C.3   124  ASP124      0.1805
    112  C         14.9950   31.4140  162.1850 C.2   124  ASP124      0.2597
    113  O         14.7970   32.1420  163.1650 O.2   124  ASP124     -0.2718
    114  CB        15.5210   32.7330  160.1230 C.3   124  ASP124      0.1424
    115  CG        14.5160   32.0680  159.2000 C.2   124  ASP124      0.3668
    116  OD1       14.7720   30.9270  158.7600 O.co2 124  ASP124     -0.2456
    117  OD2       13.4680   32.6850  158.9160 O.co2 124  ASP124     -0.2456
    118  N         14.2890   30.3080  161.9680 N.am  125  LYS125     -0.1979
    119  CA        13.2740   29.8450  162.9080 C.3   125  LYS125      0.1596
    120  C         13.6610   28.4970  163.5060 C.2   125  LYS125      0.2287
    121  O         14.7640   28.3320  164.0290 O.2   125  LYS125     -0.2864
    122  CB        11.9080   29.7430  162.2250 C.3   125  LYS125      0.0298
    123  CG        11.3090   31.0820  161.8310 C.3   125  LYS125      0.0038
    124  CD         9.8600   30.9280  161.3960 C.3   125  LYS125      0.0206
    125  CE         9.2120   32.2800  161.1420 C.3   125  LYS125      0.1093
    126  NZ         7.7620   32.1490  160.8300 N.3   125  LYS125     -0.1314
    127  N         19.3230   29.7860  155.5280 N.3   137  SER137     -0.1202
    128  CA        18.0120   30.4230  155.6160 C.3   137  SER137      0.2020
    129  C         17.7370   31.1150  154.2890 C.2   137  SER137      0.2619
    130  O         18.3840   32.1150  153.9670 O.2   137  SER137     -0.2717
    131  CB        17.9560   31.4170  156.7730 C.3   137  SER137      0.2103
    132  OG        16.7350   32.1380  156.7640 O.3   137  SER137     -0.2182
    133  N         16.7820   30.5840  153.5230 N.am  138  ALA138     -0.1965
    134  CA        16.4170   31.2060  152.2560 C.3   138  ALA138      0.1728
    135  C         15.7010   32.5340  152.4520 C.2   138  ALA138      0.2616
    136  O         15.7440   33.3850  151.5570 O.2   138  ALA138     -0.2715
    137  CB        15.5430   30.2580  151.4340 C.3   138  ALA138      0.0334
    138  N         15.0510   32.7310  153.5990 N.am  139  LYS139     -0.1977
    139  CA        14.3470   33.9820  153.8540 C.3   139  LYS139      0.1596
    140  C         15.3080   35.0940  154.2560 C.2   139  LYS139      0.2287
    141  O         15.1560   36.2390  153.8150 O.2   139  LYS139     -0.2864
    142  CB        13.2880   33.7710  154.9370 C.3   139  LYS139      0.0298
    143  CG        12.4160   34.9840  155.2090 C.3   139  LYS139      0.0038
    144  CD        11.4020   34.6920  156.3020 C.3   139  LYS139      0.0206
    145  CE        10.5060   35.8900  156.5630 C.3   139  LYS139      0.1093
    146  NZ         9.5290   35.6190  157.6530 N.3   139  LYS139     -0.1314
@<TRIPOS>BOND
     1    75    74    2
     2    74    73    1
     3    73    76    1
     4    73    72    1
     5    76    77    1
     6    78    77   ar
     7    78    80   ar
     8    39    37    1
     9    77    79   ar
    10    84    85    1
    11    38    37    1
    12    80    82   ar
    13    37    34    1
    14    36    35    2
    15    79    81   ar
    16    34    35    1
    17    34    33    1
    18    92    90   ar
    19    62    61    1
    20    35    40   am
    21    85    88    1
    22    85    86    1
    23    82    81   ar
    24    82    83    1
    25    90    89    1
    26    90    91   ar
    27    89    88    1
    28    27    26    2
    29    33    26   am
    30    86    87    2
    31    61    58    1
    32    26    25    1
    33    46    47    1
    34    40    41    1
    35    31    30    1
    36    31    32    1
    37    43    42    2
    38    28    25    1
    39    28    29    1
    40    41    42    1
    41    41    44    1
    42    49    48    2
    43    47    48    1
    44    47    50    1
    45    48    57   am
    46    30    29    1
    47    25    24    1
    48    57    58    1
    49    58    59    1
    50    65    66    2
    51    65    64    1
    52     7     6    1
    53    59    60    2
    54    59    63   am
    55    63    64    1
    56    45    44    1
    57    24    22   am
    58     8     6    1
    59    64    67    1
    60    50    51    1
    61     6     5    1
    62    23    22    2
    63    22    21    1
    64     5     2    1
    65    71    69   am
    66    68    67    1
    67    68    69    1
    68     2     1    1
    69     2     3    1
    70    51    52   ar
    71    51    53   ar
    72    52    54   ar
    73    69    70    2
    74     9     3   am
    75     9    10    1
    76    21    20    1
    77    53    55   ar
    78   137   134    1
    79     3     4    2
    80   136   135    2
    81    54    56   ar
    82    20    15   am
    83    19    17    1
    84    10    11    1
    85    55    56   ar
    86   134   135    1
    87   134   133    1
    88   135   138   am
    89    13    11   am
    90    13    14    1
    91    15    14    1
    92    15    16    2
    93    11    12    2
    94    14    17    1
    95    17    18    1
    96   100    98   am
    97   133   129   am
    98   138   139    1
    99   141   140    2
   100   139   140    1
   101   139   142    1
   102   130   129    2
   103    99    98    2
   104    98    97    1
   105   129   128    1
   106    97    94    1
   107   142   143    1
   108   143   144    1
   109   127   128    1
   110   128   131    1
   111    94    93    1
   112    94    95    1
   113   144   145    1
   114   145   146    1
   115   132   131    1
   116   101    95   am
   117   101   102    1
   118   106   107    1
   119   106   105    1
   120    95    96    2
   121   107   108    1
   122   102   105    1
   123   102   103    1
   124   116   115   ar
   125   108   109    1
   126   117   115   ar
   127   115   114    1
   128   103   104    2
   129   114   111    1
   130   110   111    1
   131   126   125    1
   132   125   124    1
   133   111   112    1
   134   124   123    1
   135   123   122    1
   136   118   112   am
   137   118   119    1
   138   112   113    2
   139   122   119    1
   140   119   120    1
   141   120   121    2
