@<TRIPOS>MOLECULE
tmp/5oeiA00.pdb
 128 122 0 0 0
SMALL
GASTEIGER

@<TRIPOS>ATOM
      1  N          4.0090  190.0180   88.9160 N.3    13  PHE13      -0.1227
      2  CA         3.4100  190.6140   87.6980 C.3    13  PHE13       0.1736
      3  C          2.5540  189.6200   86.8950 C.2    13  PHE13       0.2596
      4  O          2.6910  188.3620   87.0000 O.2    13  PHE13      -0.2718
      5  CB         4.4810  191.2610   86.7960 C.3    13  PHE13       0.0547
      6  CG         5.1930  192.4120   87.4760 C.ar   13  PHE13      -0.0202
      7  CD1        4.5820  193.6410   87.5950 C.ar   13  PHE13      -0.0042
      8  CD2        6.4890  192.2290   88.0180 C.ar   13  PHE13      -0.0042
      9  CE1        5.2400  194.6980   88.2440 C.ar   13  PHE13      -0.0003
     10  CE2        7.1060  193.2430   88.6760 C.ar   13  PHE13      -0.0003
     11  CZ         6.4990  194.4840   88.7800 C.ar   13  PHE13      -0.0000
     12  N          1.6650  190.1810   86.0750 N.am   14  THR14      -0.1953
     13  CA         0.7880  189.3520   85.1990 C.3    14  THR14       0.1897
     14  C          1.5760  188.6700   84.0530 C.2    14  THR14       0.2313
     15  O          2.7440  189.0200   83.7630 O.2    14  THR14      -0.2863
     16  CB        -0.3800  190.2060   84.6130 C.3    14  THR14       0.1794
     17  OG1       -1.2670  189.3280   83.8980 O.3    14  THR14      -0.2208
     18  CG2        0.1360  191.2580   83.6430 C.3    14  THR14       0.0378
     19  N          4.9710  189.3560   80.7740 N.3    17  GLY17      -0.1210
     20  CA         6.1640  190.1070   81.1660 C.3    17  GLY17       0.1956
     21  C          7.2940  189.1400   81.4050 C.2    17  GLY17       0.2613
     22  O          7.1110  187.9050   81.4480 O.2    17  GLY17      -0.2717
     23  N          8.4920  189.6740   81.5620 N.am   18  THR18      -0.1938
     24  CA         9.6740  188.8250   81.7600 C.3    18  THR18       0.2028
     25  C          9.6510  187.9990   83.0420 C.2    18  THR18       0.2643
     26  O         10.1930  186.8490   83.0580 O.2    18  THR18      -0.2714
     27  CB        10.9510  189.7140   81.7050 C.3    18  THR18       0.1808
     28  OG1       10.9570  190.4750   80.4830 O.3    18  THR18      -0.2208
     29  CG2       12.1850  188.9480   81.8360 C.3    18  THR18       0.0379
     30  N          9.1230  188.5800   84.1370 N.am   19  THR19      -0.1936
     31  CA         9.0940  187.8450   85.4070 C.3    19  THR19       0.2028
     32  C          8.3190  186.4900   85.2450 C.2    19  THR19       0.2642
     33  O          8.8070  185.3730   85.5900 O.2    19  THR19      -0.2714
     34  CB         8.4270  188.7040   86.5360 C.3    19  THR19       0.1808
     35  OG1        8.9040  190.0860   86.5020 O.3    19  THR19      -0.2208
     36  CG2        8.8320  188.1280   87.8630 C.3    19  THR19       0.0379
     37  N          7.1290  186.5820   84.6740 N.am   20  ASP20      -0.1971
     38  CA         6.2900  185.3710   84.4210 C.3    20  ASP20       0.1709
     39  C          6.9110  184.4080   83.3980 C.2    20  ASP20       0.2293
     40  O          6.9010  183.1500   83.5990 O.2    20  ASP20      -0.2864
     41  CB         4.8980  185.8080   84.0120 C.3    20  ASP20       0.1436
     42  CG         3.9450  184.6270   83.8850 C.2    20  ASP20       0.3671
     43  OD1        3.5200  184.1200   84.9400 O.co2  20  ASP20      -0.2456
     44  OD2        3.6500  184.1810   82.7150 O.co2  20  ASP20      -0.2456
     45  N         12.5070  190.3880   92.0140 N.3    69  THR69      -0.1204
     46  CA        12.7970  191.3770   90.9890 C.3    69  THR69       0.1979
     47  C         13.7260  192.4820   91.5490 C.2    69  THR69       0.2460
     48  O         13.8860  192.6310   92.7720 O.2    69  THR69      -0.2732
     49  CB        11.4540  192.0830   90.5880 C.3    69  THR69       0.1783
     50  OG1       10.8230  192.6090   91.7830 O.3    69  THR69      -0.2211
     51  CG2       10.4600  191.0760   89.8620 C.3    69  THR69       0.0376
     52  N         14.2710  193.3350   90.6640 N.am   70  PRO70      -0.2717
     53  CA        15.0590  194.4510   91.2440 C.3    70  PRO70       0.1535
     54  C         14.2270  195.3780   92.2000 C.2    70  PRO70       0.2599
     55  O         14.7810  195.9760   93.1640 O.2    70  PRO70      -0.2715
     56  CB        15.5780  195.2070   89.9890 C.3    70  PRO70       0.0310
     57  CG        15.5370  194.1440   88.8700 C.3    70  PRO70       0.0237
     58  CD        14.2690  193.3770   89.1920 C.3    70  PRO70       0.0939
     59  N         12.9690  195.6060   91.8490 N.am   71  GLY71      -0.1955
     60  CA        12.0330  196.3590   92.7250 C.3    71  GLY71       0.1869
     61  C         11.9420  195.8570   94.1210 C.2    71  GLY71       0.2309
     62  O         12.2230  196.5980   95.0850 O.2    71  GLY71      -0.2863
     63  N          6.9130  200.1280   82.8170 N.3   134  SER134     -0.1217
     64  CA         6.2730  198.8280   83.1500 C.3   134  SER134      0.1889
     65  C          5.7900  198.7420   84.6290 C.2   134  SER134      0.2288
     66  O          4.7770  198.0420   84.9360 O.2   134  SER134     -0.2866
     67  CB         7.2070  197.6600   82.8110 C.3   134  SER134      0.2089
     68  OG         8.3190  197.6840   83.7080 O.3   134  SER134     -0.2183
     69  N         10.7580  200.3430   88.5060 N.3   138  SER138     -0.1202
     70  CA        11.3810  199.2430   87.6960 C.3   138  SER138      0.2020
     71  C         12.7390  199.7230   87.1480 C.2   138  SER138      0.2619
     72  O         13.0450  200.9310   87.0720 O.2   138  SER138     -0.2717
     73  CB        10.5210  198.8280   86.4920 C.3   138  SER138      0.2103
     74  OG        10.4580  199.9260   85.5610 O.3   138  SER138     -0.2182
     75  N         13.5600  198.7830   86.7160 N.am  139  THR139     -0.1938
     76  CA        14.8780  199.1780   86.1410 C.3   139  THR139      0.2028
     77  C         14.6270  199.9880   84.8210 C.2   139  THR139      0.2642
     78  O         15.3750  200.9660   84.5230 O.2   139  THR139     -0.2714
     79  CB        15.8300  197.9880   85.8660 C.3   139  THR139      0.1808
     80  OG1       15.2400  197.1730   84.8680 O.3   139  THR139     -0.2208
     81  CG2       16.1700  197.2590   87.1500 C.3   139  THR139      0.0379
     82  N         13.5580  199.6490   84.0960 N.am  140  GLY140     -0.1954
     83  CA        13.1160  200.4670   82.9290 C.3   140  GLY140      0.1869
     84  C         12.7950  201.9210   83.2270 C.2   140  GLY140      0.2309
     85  O         13.2970  202.8990   82.5980 O.2   140  GLY140     -0.2863
     86  N          2.3080  196.4310   84.6030 N.3   162  GLY162     -0.1210
     87  CA         3.2880  195.4280   84.1840 C.3   162  GLY162      0.1956
     88  C          3.7410  195.7290   82.7320 C.2   162  GLY162      0.2612
     89  O          3.1560  196.5900   82.0700 O.2   162  GLY162     -0.2717
     90  N          4.7490  195.0120   82.2550 N.am  163  SER163     -0.1952
     91  CA         5.2150  195.1350   80.8410 C.3   163  SER163      0.1924
     92  C          4.0850  194.8840   79.8170 C.2   163  SER163      0.2314
     93  O          3.9370  195.6150   78.8310 O.2   163  SER163     -0.2863
     94  CB         6.3770  194.1500   80.5820 C.3   163  SER163      0.2116
     95  OG         7.5940  194.5720   81.2480 O.3   163  SER163     -0.2180
     96  N         12.7040  198.9030   78.5310 N.3   180  ASP180     -0.1225
     97  CA        12.1350  197.7910   79.3410 C.3   180  ASP180      0.1805
     98  C         12.8540  196.4870   79.0060 C.2   180  ASP180      0.2597
     99  O         13.6630  196.4390   78.0520 O.2   180  ASP180     -0.2718
    100  CB        10.6260  197.6860   79.0660 C.3   180  ASP180      0.1424
    101  CG         9.8640  196.8490   80.0930 C.2   180  ASP180      0.3668
    102  OD1       10.2690  196.7500   81.2860 O.co2 180  ASP180     -0.2456
    103  OD2        8.8390  196.2700   79.6690 O.co2 180  ASP180     -0.2456
    104  N         12.5770  195.4350   79.7900 N.am  181  ASN181     -0.1974
    105  CA        13.2920  194.1550   79.7190 C.3   181  ASN181      0.1688
    106  C         13.1710  193.5600   78.2850 C.2   181  ASN181      0.2292
    107  O         12.0870  193.5230   77.7050 O.2   181  ASN181     -0.2864
    108  CB        12.7020  193.1250   80.6950 C.3   181  ASN181      0.1181
    109  CG        12.5600  193.6120   82.1900 C.2   181  ASN181      0.2629
    110  OD1       11.6510  193.1580   82.8470 O.2   181  ASN181     -0.2716
    111  ND2       13.3870  194.5410   82.6680 N.am  181  ASN181     -0.0877
    112  N         18.6340  194.4000   84.1060 N.3   226  SER226     -0.1217
    113  CA        17.6850  193.8240   85.0450 C.3   226  SER226      0.1889
    114  C         18.1190  192.4170   85.4620 C.2   226  SER226      0.2288
    115  O         19.1240  191.8870   84.9670 O.2   226  SER226     -0.2866
    116  CB        16.2760  193.7980   84.3930 C.3   226  SER226      0.2089
    117  OG        15.2770  193.4240   85.3810 O.3   226  SER226     -0.2183
    118  N         16.5360  188.6710   88.0670 N.3   228  PHE228     -0.1241
    119  CA        15.4170  187.9480   88.6270 C.3   228  PHE228      0.1605
    120  C         15.9410  186.8260   89.5090 C.2   228  PHE228      0.2264
    121  O         17.0450  186.2490   89.2430 O.2   228  PHE228     -0.2867
    122  CB        14.4670  187.4060   87.5290 C.3   228  PHE228      0.0534
    123  CG        13.9330  188.4820   86.6450 C.ar  228  PHE228     -0.0203
    124  CD1       12.7910  189.1810   87.0120 C.ar  228  PHE228     -0.0042
    125  CD2       14.6440  188.8960   85.5160 C.ar  228  PHE228     -0.0042
    126  CE1       12.3270  190.2440   86.1990 C.ar  228  PHE228     -0.0003
    127  CE2       14.2210  189.9640   84.7650 C.ar  228  PHE228     -0.0003
    128  CZ        13.0360  190.6290   85.0970 C.ar  228  PHE228     -0.0000
@<TRIPOS>BOND
     1   107   106    2
     2    99    98    2
     3   106   105    1
     4    96    97    1
     5    93    92    2
     6    98    97    1
     7    98   104   am
     8   100    97    1
     9   100   101    1
    10   103   101   ar
    11   105   104    1
    12   105   108    1
    13    92    91    1
    14   101   102   ar
    15    28    27    1
    16    94    91    1
    17    94    95    1
    18   108   109    1
    19    19    20    1
    20    91    90    1
    21    20    21    1
    22    21    22    2
    23    21    23   am
    24    23    24    1
    25    27    24    1
    26    27    29    1
    27    24    25    1
    28    89    88    2
    29   109   111   am
    30   109   110    2
    31    90    88   am
    32    85    84    2
    33    44    42   ar
    34    88    87    1
    35    67    64    1
    36    67    68    1
    37    63    64    1
    38    83    84    1
    39    83    82    1
    40    25    26    2
    41    25    30   am
    42    64    65    1
    43    39    40    2
    44    39    38    1
    45    18    16    1
    46    15    14    2
    47    42    41    1
    48    42    43   ar
    49    17    16    1
    50    41    38    1
    51    14    13    1
    52    82    77   am
    53   112   113    1
    54    30    31    1
    55    87    86    1
    56   116   113    1
    57   116   117    1
    58    38    37    1
    59    78    77    2
    60    16    13    1
    61    65    66    2
    62    37    32   am
    63   127   128   ar
    64   127   125   ar
    65    77    76    1
    66    80    79    1
    67   115   114    2
    68   113   114    1
    69   128   126   ar
    70    13    12    1
    71    32    31    1
    72    32    33    2
    73    31    34    1
    74   125   123   ar
    75    74    73    1
    76    79    76    1
    77    79    81    1
    78    12     3   am
    79    76    75    1
    80   126   124   ar
    81    73    70    1
    82    35    34    1
    83    34    36    1
    84   123   124   ar
    85   123   122    1
    86    75    71   am
    87     5     6    1
    88     5     2    1
    89     3     4    2
    90     3     2    1
    91    72    71    2
    92    71    70    1
    93     6     7   ar
    94     6     8   ar
    95   122   119    1
    96     7     9   ar
    97    70    69    1
    98     2     1    1
    99     8    10   ar
   100   118   119    1
   101     9    11   ar
   102   119   120    1
   103    10    11   ar
   104    57    58    1
   105    57    56    1
   106    58    52    1
   107   121   120    2
   108    51    49    1
   109    56    53    1
   110    49    46    1
   111    49    50    1
   112    52    53    1
   113    52    47   am
   114    46    47    1
   115    46    45    1
   116    53    54    1
   117    47    48    2
   118    59    54   am
   119    59    60    1
   120    54    55    2
   121    60    61    1
   122    61    62    2
