@<TRIPOS>MOLECULE
tmp/5oelA01.pdb
 173 167 0 0 0
SMALL
GASTEIGER

@<TRIPOS>ATOM
      1  N          8.0310  -11.9070   45.0770 N.3    55  TYR55      -0.1241
      2  CA         8.1600  -12.5990   46.3470 C.3    55  TYR55       0.1605
      3  C          8.1130  -11.6310   47.5280 C.2    55  TYR55       0.2264
      4  O          7.6100  -11.9850   48.5970 O.2    55  TYR55      -0.2867
      5  CB         9.4410  -13.4360   46.3560 C.3    55  TYR55       0.0534
      6  CG         9.3050  -14.6920   45.5290 C.ar   55  TYR55      -0.0201
      7  CD1        8.9870  -15.9300   46.1440 C.ar   55  TYR55      -0.0009
      8  CD2        9.4770  -14.6680   44.1180 C.ar   55  TYR55      -0.0009
      9  CE1        8.8610  -17.1030   45.3950 C.ar   55  TYR55       0.0417
     10  CE2        9.3560  -15.8380   43.3620 C.ar   55  TYR55       0.0417
     11  CZ         9.0500  -17.0480   44.0020 C.ar   55  TYR55       0.1957
     12  OH         8.9040  -18.2100   43.2720 O.3    55  TYR55      -0.2866
     13  N          9.7210  -14.1540   31.6220 N.3   111  PRO111     -0.2102
     14  CA        10.1990  -14.6660   32.9020 C.3   111  PRO111      0.1504
     15  C          9.8210  -16.1570   33.1000 C.2   111  PRO111      0.2576
     16  O          9.1390  -16.7350   32.2600 O.2   111  PRO111     -0.2718
     17  CB         9.4590  -13.7840   33.9010 C.3   111  PRO111      0.0282
     18  CG         8.1550  -13.4740   33.2290 C.3   111  PRO111      0.0208
     19  CD         8.3670  -13.5700   31.7450 C.3   111  PRO111      0.0893
     20  N         10.2600  -16.7600   34.2060 N.am  112  GLY112     -0.1957
     21  CA         9.9530  -18.1610   34.5270 C.3   112  GLY112      0.1869
     22  C          8.4820  -18.5380   34.6970 C.2   112  GLY112      0.2309
     23  O          8.1420  -19.7190   34.7110 O.2   112  GLY112     -0.2863
     24  N         13.8220   -9.9160   33.5690 N.3   127  HIS127     -0.1226
     25  CA        14.8000  -10.4580   32.6240 C.3   127  HIS127      0.1752
     26  C         14.4240  -11.8990   32.3680 C.2   127  HIS127      0.2597
     27  O         13.5650  -12.4620   33.0510 O.2   127  HIS127     -0.2718
     28  CB        16.2130  -10.3810   33.2380 C.3   127  HIS127      0.0759
     29  CG        16.2880  -10.9960   34.5930 C.ar  127  HIS127      0.0818
     30  ND1       16.0690  -10.2780   35.7460 N.ar  127  HIS127     -0.2268
     31  CD2       16.4860  -12.2810   34.9830 C.ar  127  HIS127      0.1154
     32  CE1       16.1540  -11.0860   36.7910 C.ar  127  HIS127      0.1986
     33  NE2       16.4150  -12.3050   36.3540 N.ar  127  HIS127     -0.2212
     34  N         15.0990  -12.5350   31.4210 N.am  128  GLY128     -0.1942
     35  CA        14.8410  -13.9550   31.1840 C.3   128  GLY128      0.2014
     36  C         16.0690  -14.5910   30.5860 C.2   128  GLY128      0.2638
     37  O         17.1850  -14.0520   30.7060 O.2   128  GLY128     -0.2714
     38  N         15.8300  -15.7060   29.8950 N.am  129  LYS129     -0.1977
     39  CA        16.8610  -16.5790   29.3460 C.3   129  LYS129      0.1596
     40  C         17.6440  -15.9230   28.2340 C.2   129  LYS129      0.2287
     41  O         18.7460  -16.3710   27.9120 O.2   129  LYS129     -0.2864
     42  CB        16.2460  -17.8840   28.7990 C.3   129  LYS129      0.0298
     43  CG        15.5890  -18.7850   29.8320 C.3   129  LYS129      0.0038
     44  CD        14.7440  -19.8920   29.1610 C.3   129  LYS129      0.0206
     45  CE        13.7930  -19.4130   28.0570 C.3   129  LYS129      0.1093
     46  NZ        12.5070  -18.6680   28.3800 N.3   129  LYS129     -0.1314
     47  N         20.2160  -20.7290   29.7740 N.3   223  SER223     -0.1217
     48  CA        20.1080  -20.8190   31.2440 C.3   223  SER223      0.1889
     49  C         20.5670  -22.1820   31.7300 C.2   223  SER223      0.2288
     50  O         20.7240  -23.0890   30.9170 O.2   223  SER223     -0.2866
     51  CB        18.6690  -20.6000   31.6930 C.3   223  SER223      0.2089
     52  OG        17.8360  -21.5010   31.0280 O.3   223  SER223     -0.2183
     53  N         20.3850  -25.2540   35.1540 N.3   225  TRP225     -0.1241
     54  CA        20.1180  -25.7560   36.4930 C.3   225  TRP225      0.1605
     55  C         21.4360  -26.1810   37.1130 C.2   225  TRP225      0.2264
     56  O         22.2760  -26.7840   36.4520 O.2   225  TRP225     -0.2867
     57  CB        19.1510  -26.9330   36.4760 C.3   225  TRP225      0.0550
     58  CG        17.8270  -26.5390   36.0050 C.ar  225  TRP225      0.0003
     59  CD1       17.2840  -26.7950   34.7750 C.ar  225  TRP225      0.0946
     60  CD2       16.8690  -25.7580   36.7190 C.ar  225  TRP225      0.0152
     61  NE1       16.0330  -26.2470   34.6930 N.ar  225  TRP225     -0.2442
     62  CE2       15.7470  -25.6040   35.8680 C.ar  225  TRP225      0.0810
     63  CE3       16.8390  -25.1880   38.0050 C.ar  225  TRP225      0.0012
     64  CZ2       14.5960  -24.8830   36.2530 C.ar  225  TRP225      0.0191
     65  CZ3       15.7020  -24.4790   38.3960 C.ar  225  TRP225      0.0001
     66  CH2       14.5890  -24.3320   37.5140 C.ar  225  TRP225      0.0015
     67  N         11.1630  -25.8680   26.7280 N.3   304  PHE304     -0.1227
     68  CA        12.3320  -25.0300   26.7570 C.3   304  PHE304      0.1736
     69  C         12.2900  -23.9840   27.8820 C.2   304  PHE304      0.2596
     70  O         13.3050  -23.7710   28.5140 O.2   304  PHE304     -0.2718
     71  CB        12.5240  -24.4030   25.3720 C.3   304  PHE304      0.0547
     72  CG        13.8140  -23.6350   25.2220 C.ar  304  PHE304     -0.0202
     73  CD1       14.9990  -24.2960   24.9530 C.ar  304  PHE304     -0.0042
     74  CD2       13.8300  -22.2420   25.3430 C.ar  304  PHE304     -0.0042
     75  CE1       16.1780  -23.5980   24.8200 C.ar  304  PHE304     -0.0003
     76  CE2       15.0050  -21.5370   25.1980 C.ar  304  PHE304     -0.0003
     77  CZ        16.1820  -22.2160   24.9380 C.ar  304  PHE304     -0.0000
     78  N         11.1270  -23.3570   28.1320 N.am  305  CYS305     -0.1956
     79  CA        10.9820  -22.2060   29.0710 C.3   305  CYS305      0.1843
     80  C         10.3870  -22.5060   30.4450 C.2   305  CYS305      0.2625
     81  O         10.6160  -21.7490   31.4040 O.2   305  CYS305     -0.2714
     82  CB        10.1280  -21.0970   28.4590 C.3   305  CYS305      0.0997
     83  SG        10.7910  -20.3060   26.9830 S.3   305  CYS305     -0.0797
     84  N          9.5770  -23.5590   30.5450 N.am  306  HIS306     -0.1960
     85  CA         8.9220  -23.8900   31.8320 C.3   306  HIS306      0.1772
     86  C          9.1100  -25.3860   32.1890 C.2   306  HIS306      0.2462
     87  O          8.1210  -26.0700   32.5220 O.2   306  HIS306     -0.2730
     88  CB         7.4300  -23.4670   31.8520 C.3   306  HIS306      0.0785
     89  CG         7.1740  -22.0720   31.3500 C.ar  306  HIS306      0.0821
     90  ND1        7.3530  -20.9470   32.1320 N.ar  306  HIS306     -0.2267
     91  CD2        6.7520  -21.6240   30.1410 C.ar  306  HIS306      0.1154
     92  CE1        7.0650  -19.8680   31.4240 C.ar  306  HIS306      0.1986
     93  NE2        6.6920  -20.2510   30.2140 N.ar  306  HIS306     -0.2212
     94  N         10.3820  -25.8870   32.1500 N.am  307  PRO307     -0.2716
     95  CA        10.6200  -27.3370   32.2780 C.3   307  PRO307      0.1536
     96  C         10.2010  -27.8720   33.6450 C.2   307  PRO307      0.2598
     97  O         10.0980  -29.0860   33.8200 O.2   307  PRO307     -0.2715
     98  CB        12.1350  -27.4700   32.0870 C.3   307  PRO307      0.0310
     99  CG        12.6820  -26.1590   32.5690 C.3   307  PRO307      0.0237
    100  CD        11.6540  -25.1260   32.1880 C.3   307  PRO307      0.0939
    101  N          9.9380  -26.9600   34.5810 N.am  308  LEU308     -0.1978
    102  CA         9.4040  -27.2990   35.8940 C.3   308  LEU308      0.1596
    103  C          7.9150  -27.6780   35.9250 C.2   308  LEU308      0.2287
    104  O          7.4620  -28.2300   36.9370 O.2   308  LEU308     -0.2864
    105  CB         9.7230  -26.1980   36.9190 C.3   308  LEU308      0.0297
    106  CG        10.7870  -26.5550   37.9770 C.3   308  LEU308      0.0022
    107  CD1       12.0800  -27.1250   37.3920 C.3   308  LEU308      0.0001
    108  CD2       11.0890  -25.3830   38.9040 C.3   308  LEU308      0.0001
    109  N         13.3170  -17.3220   48.7150 N.3   325  GLN325     -0.1245
    110  CA        13.9090  -17.1350   47.3990 C.3   325  GLN325      0.1566
    111  C         14.9680  -16.0250   47.5140 C.2   325  GLN325      0.2260
    112  O         14.7690  -15.0330   48.2040 O.2   325  GLN325     -0.2867
    113  CB        12.7840  -16.7770   46.4110 C.3   325  GLN325      0.0367
    114  CG        13.0130  -17.1810   44.9600 C.3   325  GLN325      0.0905
    115  CD        12.7820  -18.6580   44.6600 C.2   325  GLN325      0.2608
    116  OE1       11.6920  -19.1930   44.8960 O.2   325  GLN325     -0.2717
    117  NE2       13.8050  -19.3190   44.0930 N.am  325  GLN325     -0.0878
    118  N         18.0210  -14.1020   45.0290 N.3   327  GLN327     -0.1245
    119  CA        18.6610  -13.9680   43.7340 C.3   327  GLN327      0.1566
    120  C         19.6970  -12.8220   43.7260 C.2   327  GLN327      0.2260
    121  O         19.4010  -11.7350   44.1830 O.2   327  GLN327     -0.2867
    122  CB        17.6060  -13.7380   42.6510 C.3   327  GLN327      0.0367
    123  CG        18.1930  -13.5890   41.2380 C.3   327  GLN327      0.0905
    124  CD        17.1340  -13.6120   40.1430 C.2   327  GLN327      0.2608
    125  OE1       15.9640  -13.9100   40.4070 O.2   327  GLN327     -0.2717
    126  NE2       17.5450  -13.3260   38.9060 N.am  327  GLN327     -0.0878
    127  N         16.6820  -26.1990   43.9090 N.3   354  LEU354     -0.1245
    128  CA        16.4050  -25.6110   42.5860 C.3   354  LEU354      0.1561
    129  C         17.1760  -24.3280   42.3620 C.2   354  LEU354      0.2260
    130  O         16.8920  -23.3160   42.9950 O.2   354  LEU354     -0.2867
    131  CB        14.8980  -25.4010   42.3730 C.3   354  LEU354      0.0270
    132  CG        14.0450  -26.6890   42.4270 C.3   354  LEU354      0.0019
    133  CD1       12.5570  -26.3620   42.4710 C.3   354  LEU354      0.0001
    134  CD2       14.3510  -27.6430   41.2720 C.3   354  LEU354      0.0001
    135  N         18.9020  -21.6580   39.5230 N.3   356  VAL356     -0.1245
    136  CA        18.9230  -21.1700   38.1500 C.3   356  VAL356      0.1561
    137  C         20.1270  -20.2740   38.0180 C.2   356  VAL356      0.2260
    138  O         20.2310  -19.2680   38.7210 O.2   356  VAL356     -0.2867
    139  CB        17.6800  -20.3390   37.7680 C.3   356  VAL356      0.0252
    140  CG1       17.7300  -20.0170   36.2880 C.3   356  VAL356      0.0019
    141  CG2       16.3940  -21.0890   38.0490 C.3   356  VAL356      0.0019
    142  N         22.5280  -18.0720   35.1810 N.3   358  LYS358     -0.1245
    143  CA        22.5770  -17.4910   33.8480 C.3   358  LYS358      0.1561
    144  C         23.6860  -16.4570   33.8170 C.2   358  LYS358      0.2260
    145  O         23.9670  -15.8300   34.8440 O.2   358  LYS358     -0.2867
    146  CB        21.1860  -16.9190   33.4760 C.3   358  LYS358      0.0271
    147  CG        21.2070  -15.6200   32.7210 C.3   358  LYS358      0.0035
    148  CD        20.2030  -15.5650   31.6000 C.3   358  LYS358      0.0206
    149  CE        20.8710  -14.9190   30.3930 C.3   358  LYS358      0.1093
    150  NZ        21.2680  -15.9780   29.4310 N.3   358  LYS358     -0.1314
    151  N         24.6830  -14.4750   37.3950 N.3   376  ASN376     -0.1240
    152  CA        23.4080  -14.3750   38.0840 C.3   376  ASN376      0.1653
    153  C         22.9840  -15.7380   38.5970 C.2   376  ASN376      0.2266
    154  O         23.0000  -16.7280   37.8400 O.2   376  ASN376     -0.2867
    155  CB        22.3220  -13.8580   37.1320 C.3   376  ASN376      0.1155
    156  CG        20.9230  -13.9340   37.7460 C.2   376  ASN376      0.2627
    157  OD1       20.5060  -13.0830   38.5320 O.2   376  ASN376     -0.2716
    158  ND2       20.2010  -14.9600   37.3840 N.am  376  ASN376     -0.0877
    159  N         19.8010  -17.6880   41.1850 N.3   378  CYS378     -0.1235
    160  CA        18.6210  -17.7330   42.0640 C.3   378  CYS378      0.1677
    161  C         18.6150  -19.0340   42.8720 C.2   378  CYS378      0.2270
    162  O         18.7860  -20.1150   42.3330 O.2   378  CYS378     -0.2867
    163  CB        17.2970  -17.5770   41.2900 C.3   378  CYS378      0.0956
    164  SG        15.8980  -17.3280   42.4370 S.3   378  CYS378     -0.0801
    165  N         12.5980  -10.5660   44.3830 N.3   409  LYS409     -0.1245
    166  CA        12.9170  -11.7830   45.1530 C.3   409  LYS409      0.1561
    167  C         13.4380  -11.4300   46.5610 C.2   409  LYS409      0.2260
    168  O         14.2580  -12.1560   47.1240 O.2   409  LYS409     -0.2867
    169  CB        14.0070  -12.5940   44.4300 C.3   409  LYS409      0.0271
    170  CG        13.6920  -12.9730   42.9760 C.3   409  LYS409      0.0035
    171  CD        12.9260  -14.2780   42.8890 C.3   409  LYS409      0.0206
    172  CE        12.8410  -14.8060   41.4620 C.3   409  LYS409      0.1093
    173  NZ        14.1210  -15.4750   41.1130 N.3   409  LYS409     -0.1314
@<TRIPOS>BOND
     1    75    77   ar
     2    75    73   ar
     3    77    76   ar
     4    73    72   ar
     5    76    74   ar
     6    72    74   ar
     7    72    71    1
     8    71    68    1
     9    67    68    1
    10    68    69    1
    11    83    82    1
    12    69    78   am
    13    69    70    2
    14    41    40    2
    15    45    46    1
    16    45    44    1
    17    78    79    1
    18    40    39    1
    19    82    79    1
    20    42    39    1
    21    42    43    1
    22    79    80    1
    23    44    43    1
    24    39    38    1
    25   150   149    1
    26    47    48    1
    27    38    36   am
    28    91    93   ar
    29    91    89   ar
    30    93    92   ar
    31   149   148    1
    32    80    84   am
    33    80    81    2
    34    84    85    1
    35    36    37    2
    36    36    35    1
    37    50    49    2
    38    52    51    1
    39    35    34    1
    40    48    51    1
    41    48    49    1
    42    89    88    1
    43    89    90   ar
    44    34    26   am
    45    92    90   ar
    46   148   147    1
    47    13    19    1
    48    13    14    1
    49    19    18    1
    50    85    88    1
    51    85    86    1
    52    98    95    1
    53    98    99    1
    54    94   100    1
    55    94    86   am
    56    94    95    1
    57   100    99    1
    58    86    87    2
    59    16    15    2
    60    95    96    1
    61    26    25    1
    62    26    27    2
    63    25    28    1
    64    25    24    1
    65   147   146    1
    66    14    15    1
    67    14    17    1
    68    15    20   am
    69    18    17    1
    70    28    29    1
    71   146   143    1
    72    96    97    2
    73    96   101   am
    74   144   143    1
    75   144   145    2
    76   143   142    1
    77    20    21    1
    78    21    22    1
    79   101   102    1
    80    29    31   ar
    81    29    30   ar
    82    61    59   ar
    83    61    62   ar
    84    22    23    2
    85    59    58   ar
    86    31    33   ar
    87    53    54    1
    88    30    32   ar
    89    62    64   ar
    90    62    60   ar
    91   102   103    1
    92   102   105    1
    93   103   104    2
    94    58    57    1
    95    58    60   ar
    96    64    66   ar
    97   140   139    1
    98    33    32   ar
    99    56    55    2
   100    57    54    1
   101    54    55    1
   102    60    63   ar
   103   105   106    1
   104   155   156    1
   105   155   152    1
   106   158   156   am
   107   107   106    1
   108   151   152    1
   109    66    65   ar
   110   156   157    2
   111   139   141    1
   112   139   136    1
   113   154   153    2
   114   106   108    1
   115    63    65   ar
   116   137   136    1
   117   137   138    2
   118   152   153    1
   119   136   135    1
   120   126   124   am
   121   124   125    2
   122   124   123    1
   123   173   172    1
   124   159   160    1
   125   123   122    1
   126   134   132    1
   127   163   160    1
   128   163   164    1
   129   172   171    1
   130   160   161    1
   131   162   161    2
   132   129   128    1
   133   129   130    2
   134   131   132    1
   135   131   128    1
   136   132   133    1
   137   128   127    1
   138   122   119    1
   139   171   170    1
   140   170   169    1
   141    12    11    1
   142    10    11   ar
   143    10     8   ar
   144   120   119    1
   145   120   121    2
   146   119   118    1
   147    11     9   ar
   148   117   115   am
   149     8     6   ar
   150   165   166    1
   151   169   166    1
   152   115   116    2
   153   115   114    1
   154   114   113    1
   155     1     2    1
   156   166   167    1
   157     9     7   ar
   158     6     7   ar
   159     6     5    1
   160     2     5    1
   161     2     3    1
   162   113   110    1
   163   167   168    2
   164   110   111    1
   165   110   109    1
   166   111   112    2
   167     3     4    2
