@<TRIPOS>MOLECULE
tmp/5oeqA01.pdb
 193 186 0 0 0
SMALL
GASTEIGER

@<TRIPOS>ATOM
      1  N          7.7780  -12.3860   45.1630 N.3    54  TYR54      -0.1241
      2  CA         7.9410  -12.9970   46.4910 C.3    54  TYR54       0.1605
      3  C          7.9530  -11.9390   47.5940 C.2    54  TYR54       0.2264
      4  O          7.4310  -12.1810   48.6780 O.2    54  TYR54      -0.2867
      5  CB         9.1960  -13.8650   46.5520 C.3    54  TYR54       0.0534
      6  CG         9.0640  -15.1180   45.7360 C.ar   54  TYR54      -0.0201
      7  CD1        8.6510  -16.3250   46.3290 C.ar   54  TYR54      -0.0009
      8  CD2        9.3350  -15.1130   44.3510 C.ar   54  TYR54      -0.0009
      9  CE1        8.5190  -17.4970   45.5690 C.ar   54  TYR54       0.0417
     10  CE2        9.2090  -16.2730   43.5830 C.ar   54  TYR54       0.0417
     11  CZ         8.8010  -17.4540   44.1930 C.ar   54  TYR54       0.1957
     12  OH         8.6840  -18.5900   43.4290 O.3    54  TYR54      -0.2866
     13  N         10.4330  -16.8820   34.1850 N.3   111  GLY111     -0.1225
     14  CA        10.1400  -18.2910   34.5230 C.3   111  GLY111      0.1811
     15  C          8.6780  -18.6690   34.7520 C.2   111  GLY111      0.2280
     16  O          8.3940  -19.8090   35.0410 O.2   111  GLY111     -0.2866
     17  N         13.6070  -10.0710   33.5990 N.3   126  HIS126     -0.1226
     18  CA        14.5860  -10.6660   32.7070 C.3   126  HIS126      0.1752
     19  C         14.2080  -12.1360   32.4910 C.2   126  HIS126      0.2597
     20  O         13.4560  -12.7370   33.2860 O.2   126  HIS126     -0.2718
     21  CB        16.0080  -10.5650   33.3690 C.3   126  HIS126      0.0759
     22  CG        16.0980  -11.2660   34.6800 C.ar  126  HIS126      0.0818
     23  ND1       15.8770  -10.6280   35.8880 N.ar  126  HIS126     -0.2268
     24  CD2       16.2830  -12.5770   34.9720 C.ar  126  HIS126      0.1154
     25  CE1       15.9570  -11.5130   36.8670 C.ar  126  HIS126      0.1986
     26  NE2       16.2070  -12.7030   36.3370 N.ar  126  HIS126     -0.2212
     27  N         14.7940  -12.7520   31.4730 N.am  127  GLY127     -0.1942
     28  CA        14.5980  -14.1830   31.2550 C.3   127  GLY127      0.2014
     29  C         15.8480  -14.8440   30.7150 C.2   127  GLY127      0.2638
     30  O         16.9600  -14.3100   30.8550 O.2   127  GLY127     -0.2714
     31  N         15.6430  -15.9890   30.0660 N.am  128  LYS128     -0.1977
     32  CA        16.6990  -16.8170   29.4840 C.3   128  LYS128      0.1596
     33  C         17.4840  -16.1250   28.3960 C.2   128  LYS128      0.2287
     34  O         18.5830  -16.5430   28.0690 O.2   128  LYS128     -0.2864
     35  CB        16.0930  -18.0670   28.8470 C.3   128  LYS128      0.0298
     36  CG        16.1150  -19.2970   29.6920 C.3   128  LYS128      0.0038
     37  CD        15.6760  -20.5120   28.9000 C.3   128  LYS128      0.0206
     38  CE        16.9000  -21.2040   28.3130 C.3   128  LYS128      0.1093
     39  NZ        16.8430  -22.6890   28.4430 N.3   128  LYS128     -0.1314
     40  N         20.2530  -20.9010   29.9740 N.3   222  SER222     -0.1217
     41  CA        20.2250  -21.0020   31.4440 C.3   222  SER222      0.1889
     42  C         20.6260  -22.4040   31.9210 C.2   222  SER222      0.2288
     43  O         20.8330  -23.2940   31.1040 O.2   222  SER222     -0.2866
     44  CB        18.8780  -20.6160   32.0110 C.3   222  SER222      0.2089
     45  OG        17.9060  -21.5260   31.5750 O.3   222  SER222     -0.2183
     46  N         20.3670  -25.4790   35.3120 N.3   224  TRP224     -0.1241
     47  CA        20.1190  -26.0010   36.6470 C.3   224  TRP224      0.1605
     48  C         21.4700  -26.3970   37.2080 C.2   224  TRP224      0.2264
     49  O         22.1960  -27.1630   36.5710 O.2   224  TRP224     -0.2867
     50  CB        19.2040  -27.2270   36.6260 C.3   224  TRP224      0.0550
     51  CG        17.8530  -26.9910   36.0080 C.ar  224  TRP224      0.0003
     52  CD1       17.4070  -27.4320   34.7700 C.ar  224  TRP224      0.0946
     53  CD2       16.7580  -26.2680   36.5880 C.ar  224  TRP224      0.0152
     54  NE1       16.1050  -27.0150   34.5540 N.ar  224  TRP224     -0.2442
     55  CE2       15.6810  -26.3060   35.6510 C.ar  224  TRP224      0.0810
     56  CE3       16.5730  -25.5970   37.8140 C.ar  224  TRP224      0.0012
     57  CZ2       14.4400  -25.6920   35.9060 C.ar  224  TRP224      0.0191
     58  CZ3       15.3340  -24.9890   38.0690 C.ar  224  TRP224      0.0001
     59  CH2       14.2840  -25.0390   37.1090 C.ar  224  TRP224      0.0015
     60  N         20.9620  -25.5410   29.2760 N.3   240  SER240     -0.1217
     61  CA        19.9880  -25.5550   28.2070 C.3   240  SER240      0.1889
     62  C         20.1130  -24.2430   27.3960 C.2   240  SER240      0.2288
     63  O         19.8380  -23.1590   27.9030 O.2   240  SER240     -0.2866
     64  CB        18.5940  -25.7590   28.8370 C.3   240  SER240      0.2089
     65  OG        17.5380  -25.4310   27.9660 O.3   240  SER240     -0.2183
     66  N         11.1220  -26.3990   26.3920 N.3   292  PHE292     -0.1227
     67  CA        12.3520  -25.6470   26.4740 C.3   292  PHE292      0.1736
     68  C         12.3680  -24.7760   27.7200 C.2   292  PHE292      0.2595
     69  O         13.4120  -24.5600   28.3210 O.2   292  PHE292     -0.2718
     70  CB        12.4620  -24.7830   25.2200 C.3   292  PHE292      0.0547
     71  CG        13.7120  -23.9470   25.1500 C.ar  292  PHE292     -0.0202
     72  CD1       14.9400  -24.5270   24.8800 C.ar  292  PHE292     -0.0042
     73  CD2       13.6450  -22.5600   25.3280 C.ar  292  PHE292     -0.0042
     74  CE1       16.0820  -23.7530   24.7980 C.ar  292  PHE292     -0.0003
     75  CE2       14.7780  -21.7760   25.2400 C.ar  292  PHE292     -0.0003
     76  CZ        15.9930  -22.3750   24.9640 C.ar  292  PHE292     -0.0000
     77  N         11.2080  -24.2540   28.0940 N.am  293  TYR293     -0.1962
     78  CA        11.1970  -23.0820   28.9830 C.3   293  TYR293      0.1771
     79  C         10.4020  -23.2870   30.2610 C.2   293  TYR293      0.2620
     80  O         10.9120  -23.0120   31.3530 O.2   293  TYR293     -0.2715
     81  CB        10.7050  -21.8150   28.2390 C.3   293  TYR293      0.0574
     82  CG        11.2380  -20.4800   28.7550 C.ar  293  TYR293     -0.0198
     83  CD1       11.3390  -20.2290   30.1220 C.ar  293  TYR293     -0.0009
     84  CD2       11.6150  -19.4530   27.8670 C.ar  293  TYR293     -0.0009
     85  CE1       11.8220  -19.0230   30.6040 C.ar  293  TYR293      0.0417
     86  CE2       12.0800  -18.2230   28.3310 C.ar  293  TYR293      0.0417
     87  CZ        12.1850  -18.0110   29.7070 C.ar  293  TYR293      0.1957
     88  OH        12.6760  -16.8230   30.2600 O.3   293  TYR293     -0.2866
     89  N          9.1620  -23.7570   30.1240 N.am  294  HIS294     -0.1960
     90  CA         8.1980  -23.7610   31.2320 C.3   294  HIS294      0.1772
     91  C          7.8230  -25.1940   31.6880 C.2   294  HIS294      0.2462
     92  O          6.6700  -25.6290   31.4470 O.2   294  HIS294     -0.2730
     93  CB         6.9260  -22.9460   30.8420 C.3   294  HIS294      0.0785
     94  CG         7.1610  -21.4720   30.6310 C.ar  294  HIS294      0.0821
     95  ND1        6.9120  -20.8380   29.4270 N.ar  294  HIS294     -0.2267
     96  CD2        7.5980  -20.5020   31.4760 C.ar  294  HIS294      0.1154
     97  CE1        7.2010  -19.5500   29.5320 C.ar  294  HIS294      0.1986
     98  NE2        7.6180  -19.3200   30.7660 N.ar  294  HIS294     -0.2212
     99  N          8.7790  -25.9410   32.3270 N.am  295  PRO295     -0.2727
    100  CA         8.3850  -27.2850   32.7880 C.3   295  PRO295      0.1402
    101  C          7.5480  -27.2490   34.0660 C.2   295  PRO295      0.2269
    102  O          6.3350  -27.0410   33.9870 O.2   295  PRO295     -0.2865
    103  CB         9.7260  -27.9870   33.0260 C.3   295  PRO295      0.0296
    104  CG        10.6830  -26.8950   33.3420 C.3   295  PRO295      0.0237
    105  CD        10.2220  -25.6950   32.5650 C.3   295  PRO295      0.0939
    106  N         13.2700  -17.7560   48.7790 N.3   299  GLN299     -0.1245
    107  CA        13.8380  -17.5270   47.4730 C.3   299  GLN299      0.1566
    108  C         14.9290  -16.4620   47.6230 C.2   299  GLN299      0.2260
    109  O         14.7530  -15.4830   48.3380 O.2   299  GLN299     -0.2867
    110  CB        12.7170  -17.0080   46.5630 C.3   299  GLN299      0.0367
    111  CG        12.8250  -17.3690   45.0890 C.3   299  GLN299      0.0905
    112  CD        12.7760  -18.8610   44.8040 C.2   299  GLN299      0.2608
    113  OE1       11.8810  -19.5640   45.2650 O.2   299  GLN299     -0.2717
    114  NE2       13.7470  -19.3490   44.0360 N.am  299  GLN299     -0.0878
    115  N         17.9410  -14.5080   45.1400 N.3   301  GLN301     -0.1245
    116  CA        18.5680  -14.3100   43.8610 C.3   301  GLN301      0.1566
    117  C         19.5440  -13.1070   43.8780 C.2   301  GLN301      0.2260
    118  O         19.1790  -12.0150   44.2810 O.2   301  GLN301     -0.2867
    119  CB        17.4890  -14.0980   42.7840 C.3   301  GLN301      0.0367
    120  CG        18.0780  -13.8740   41.4080 C.3   301  GLN301      0.0905
    121  CD        17.0460  -13.8800   40.3070 C.2   301  GLN301      0.2608
    122  OE1       15.8650  -14.0890   40.5640 O.2   301  GLN301     -0.2717
    123  NE2       17.4880  -13.6840   39.0610 N.am  301  GLN301     -0.0878
    124  N         16.5190  -26.6060   44.1010 N.3   328  LEU328     -0.1245
    125  CA        16.2050  -25.9320   42.8340 C.3   328  LEU328      0.1561
    126  C         16.9780  -24.6500   42.6120 C.2   328  LEU328      0.2260
    127  O         16.7000  -23.6460   43.2570 O.2   328  LEU328     -0.2867
    128  CB        14.7070  -25.6480   42.7090 C.3   328  LEU328      0.0270
    129  CG        13.8190  -26.8870   42.6620 C.3   328  LEU328      0.0019
    130  CD1       12.3650  -26.4380   42.5440 C.3   328  LEU328      0.0001
    131  CD2       14.2190  -27.8320   41.5240 C.3   328  LEU328      0.0001
    132  N         18.8830  -22.0220   39.6550 N.3   330  VAL330     -0.1245
    133  CA        19.0190  -21.5010   38.2950 C.3   330  VAL330      0.1561
    134  C         20.2370  -20.5900   38.1990 C.2   330  VAL330      0.2260
    135  O         20.4270  -19.7230   39.0170 O.2   330  VAL330     -0.2867
    136  CB        17.7880  -20.6950   37.8330 C.3   330  VAL330      0.0252
    137  CG1       17.9100  -20.4050   36.3540 C.3   330  VAL330      0.0019
    138  CG2       16.5230  -21.4890   38.0770 C.3   330  VAL330      0.0019
    139  N         22.4930  -18.2390   35.3190 N.3   332  LYS332     -0.1245
    140  CA        22.5480  -17.6340   34.0130 C.3   332  LYS332      0.1561
    141  C         23.6640  -16.5910   34.0060 C.2   332  LYS332      0.2260
    142  O         23.9520  -16.0040   35.0380 O.2   332  LYS332     -0.2867
    143  CB        21.1470  -17.0430   33.6710 C.3   332  LYS332      0.0271
    144  CG        21.1450  -15.7280   32.9350 C.3   332  LYS332      0.0035
    145  CD        20.0150  -15.6620   31.9300 C.3   332  LYS332      0.0206
    146  CE        20.4830  -15.0080   30.6360 C.3   332  LYS332      0.1093
    147  NZ        21.2220  -16.0230   29.8270 N.3   332  LYS332     -0.1314
    148  N         24.2410  -12.9460   32.8490 N.3   334  PHE334     -0.1241
    149  CA        23.5870  -11.7260   32.3090 C.3   334  PHE334      0.1605
    150  C         24.5030  -10.9590   31.3570 C.2   334  PHE334      0.2264
    151  O         25.7260  -10.9200   31.5710 O.2   334  PHE334     -0.2867
    152  CB        23.1730  -10.7340   33.4020 C.3   334  PHE334      0.0534
    153  CG        21.9690  -11.1250   34.2210 C.ar  334  PHE334     -0.0203
    154  CD1       20.9450  -11.9360   33.7130 C.ar  334  PHE334     -0.0042
    155  CD2       21.8300  -10.6240   35.5230 C.ar  334  PHE334     -0.0042
    156  CE1       19.8280  -12.2360   34.4750 C.ar  334  PHE334     -0.0003
    157  CE2       20.7190  -10.9290   36.3010 C.ar  334  PHE334     -0.0003
    158  CZ        19.7020  -11.7390   35.7710 C.ar  334  PHE334     -0.0000
    159  N         24.5400  -14.6790   37.5280 N.3   350  ASN350     -0.1240
    160  CA        23.2720  -14.5860   38.1870 C.3   350  ASN350      0.1653
    161  C         22.8450  -15.9310   38.7080 C.2   350  ASN350      0.2266
    162  O         22.8870  -16.9340   37.9930 O.2   350  ASN350     -0.2867
    163  CB        22.1980  -14.0450   37.2730 C.3   350  ASN350      0.1155
    164  CG        20.8140  -14.2560   37.8500 C.2   350  ASN350      0.2627
    165  OD1       20.3400  -13.5250   38.7280 O.2   350  ASN350     -0.2716
    166  ND2       20.1780  -15.2940   37.3950 N.am  350  ASN350     -0.0877
    167  N         19.8370  -18.0030   41.2910 N.3   352  CYS352     -0.1235
    168  CA        18.6350  -18.0620   42.1080 C.3   352  CYS352      0.1677
    169  C         18.5960  -19.3610   42.8780 C.2   352  CYS352      0.2270
    170  O         18.7430  -20.4270   42.2940 O.2   352  CYS352     -0.2867
    171  CB        17.3580  -17.8630   41.2550 C.3   352  CYS352      0.0956
    172  SG        15.8920  -17.6700   42.3110 S.3   352  CYS352     -0.0801
    173  N         17.7670   -9.0650   44.0260 N.3   380  TYR380     -0.1241
    174  CA        16.5740   -8.7490   43.2280 C.3   380  TYR380      0.1605
    175  C         15.4120   -8.5170   44.1620 C.2   380  TYR380      0.2264
    176  O         15.0570   -9.4160   44.9360 O.2   380  TYR380     -0.2867
    177  CB        16.2520   -9.9540   42.3030 C.3   380  TYR380      0.0534
    178  CG        15.2150   -9.7100   41.2050 C.ar  380  TYR380     -0.0201
    179  CD1       14.8370   -8.4130   40.8160 C.ar  380  TYR380     -0.0009
    180  CD2       14.6510  -10.7960   40.5200 C.ar  380  TYR380     -0.0009
    181  CE1       13.9280   -8.1980   39.7920 C.ar  380  TYR380      0.0417
    182  CE2       13.7340  -10.6130   39.4910 C.ar  380  TYR380      0.0417
    183  CZ        13.3780   -9.3210   39.1190 C.ar  380  TYR380      0.1957
    184  OH        12.4640   -9.1630   38.0900 O.3   380  TYR380     -0.2866
    185  N         12.3920  -10.8940   44.5060 N.3   383  LYS383     -0.1245
    186  CA        12.6040  -12.1140   45.3070 C.3   383  LYS383      0.1561
    187  C         12.7780  -11.8730   46.8070 C.2   383  LYS383      0.2260
    188  O         12.6160  -12.7980   47.6050 O.2   383  LYS383     -0.2867
    189  CB        13.7940  -12.9220   44.7940 C.3   383  LYS383      0.0271
    190  CG        13.7270  -13.3200   43.3300 C.3   383  LYS383      0.0035
    191  CD        12.5990  -14.2820   43.0090 C.3   383  LYS383      0.0206
    192  CE        12.6320  -14.6610   41.5280 C.3   383  LYS383      0.1093
    193  NZ        13.7360  -15.6510   41.2910 N.3   383  LYS383     -0.1314
@<TRIPOS>BOND
     1    74    72   ar
     2    74    76   ar
     3    72    71   ar
     4    76    75   ar
     5    71    70    1
     6    71    73   ar
     7    70    67    1
     8    75    73   ar
     9    66    67    1
    10    67    68    1
    11    62    63    2
    12    62    61    1
    13    68    77   am
    14    68    69    2
    15    84    86   ar
    16    84    82   ar
    17    65    64    1
    18    34    33    2
    19    77    78    1
    20    61    64    1
    21    61    60    1
    22    81    82    1
    23    81    78    1
    24    38    39    1
    25    38    37    1
    26    86    87   ar
    27    33    32    1
    28    82    83   ar
    29    35    32    1
    30    35    36    1
    31    37    36    1
    32    78    79    1
    33    95    97   ar
    34    95    94   ar
    35    32    31    1
    36    97    98   ar
    37    87    88    1
    38    87    85   ar
    39   147   146    1
    40    40    41    1
    41    31    29   am
    42    83    85   ar
    43    89    79   am
    44    89    90    1
    45    79    80    2
    46    94    93    1
    47    94    96   ar
    48   146   145    1
    49    29    30    2
    50    29    28    1
    51    98    96   ar
    52    93    90    1
    53    43    42    2
    54    90    91    1
    55    28    27    1
    56   150   151    2
    57   150   149    1
    58    41    42    1
    59    41    44    1
    60    92    91    2
    61    27    19   am
    62    45    44    1
    63    91    99   am
    64   145   144    1
    65   149   148    1
    66   149   152    1
    67    99   105    1
    68    99   100    1
    69    19    18    1
    70    19    20    2
    71   105   104    1
    72    18    21    1
    73    18    17    1
    74   100   103    1
    75   100   101    1
    76   144   143    1
    77   103   104    1
    78    21    22    1
    79   152   153    1
    80   143   140    1
    81   154   153   ar
    82   154   156   ar
    83   102   101    2
    84   141   140    1
    85   141   142    2
    86   140   139    1
    87    13    14    1
    88   153   155   ar
    89   156   158   ar
    90    14    15    1
    91    54    52   ar
    92    54    55   ar
    93    22    24   ar
    94    22    23   ar
    95    15    16    2
    96    52    51   ar
    97    24    26   ar
    98    46    47    1
    99   155   157   ar
   100    55    57   ar
   101    55    53   ar
   102   158   157   ar
   103    23    25   ar
   104    57    59   ar
   105    51    53   ar
   106    51    50    1
   107    26    25   ar
   108   137   136    1
   109    49    48    2
   110    53    56   ar
   111    50    47    1
   112    47    48    1
   113    59    58   ar
   114   163   164    1
   115   163   160    1
   116   166   164   am
   117   159   160    1
   118    56    58   ar
   119   136   138    1
   120   136   133    1
   121   164   165    2
   122   162   161    2
   123   184   183    1
   124   160   161    1
   125   134   133    1
   126   134   135    2
   127   133   132    1
   128   123   121   am
   129   183   182   ar
   130   183   181   ar
   131   182   180   ar
   132   181   179   ar
   133   121   122    2
   134   121   120    1
   135   180   178   ar
   136   179   178   ar
   137   178   177    1
   138   171   168    1
   139   171   172    1
   140   167   168    1
   141   193   192    1
   142   120   119    1
   143   131   129    1
   144   192   191    1
   145   168   169    1
   146   170   169    2
   147   177   174    1
   148   130   129    1
   149   126   125    1
   150   126   127    2
   151   129   128    1
   152   128   125    1
   153   119   116    1
   154   125   124    1
   155   191   190    1
   156   174   173    1
   157   174   175    1
   158   190   189    1
   159    12    11    1
   160    10    11   ar
   161    10     8   ar
   162   116   117    1
   163   116   115    1
   164   117   118    2
   165   114   112   am
   166   175   176    2
   167    11     9   ar
   168     8     6   ar
   169   185   186    1
   170   189   186    1
   171   112   111    1
   172   112   113    2
   173   111   110    1
   174     1     2    1
   175   186   187    1
   176     9     7   ar
   177     6     7   ar
   178     6     5    1
   179     2     5    1
   180     2     3    1
   181   110   107    1
   182   187   188    2
   183   107   108    1
   184   107   106    1
   185     3     4    2
   186   108   109    2
