@<TRIPOS>MOLECULE
tmp/5oesF01.pdb
 134 125 0 0 0
SMALL
GASTEIGER

@<TRIPOS>ATOM
      1  N        108.5560   63.4520  173.0630 N.3   124  ARG124     -0.1245
      2  CA       108.6980   62.4450  172.0150 C.3   124  ARG124      0.1563
      3  C        109.1170   61.1230  172.6400 C.2   124  ARG124      0.2260
      4  O        110.1230   61.0680  173.3600 O.2   124  ARG124     -0.2867
      5  CB       109.7120   62.8610  170.9640 C.3   124  ARG124      0.0307
      6  CG       109.5110   62.0900  169.6630 C.3   124  ARG124      0.0489
      7  CD       110.5850   62.3700  168.6430 C.3   124  ARG124      0.2205
      8  NE       111.8700   61.8780  169.1130 N.pl3 124  ARG124     -0.0865
      9  CZ       112.9500   62.6210  169.3690 C.cat 124  ARG124      0.5346
     10  NH1      114.0510   62.0300  169.8070 N.pl3 124  ARG124      0.1354
     11  NH2      112.9650   63.9590  169.1600 N.pl3 124  ARG124      0.1354
     12  N        113.5000   55.3920  174.6850 N.3   140  GLU140     -0.1245
     13  CA       113.4900   56.4860  175.6600 C.3   140  GLU140      0.1567
     14  C        112.2790   57.4030  175.5470 C.2   140  GLU140      0.2260
     15  O        111.5070   57.3160  174.5990 O.2   140  GLU140     -0.2867
     16  CB       114.7620   57.3320  175.5560 C.3   140  GLU140      0.0388
     17  CG       115.0210   57.9230  174.1800 C.3   140  GLU140      0.1160
     18  CD       116.1500   58.9300  174.2080 C.2   140  GLU140      0.3649
     19  OE1      116.9310   58.9050  175.1830 O.co2 140  GLU140     -0.2457
     20  OE2      116.2430   59.7400  173.2510 O.co2 140  GLU140     -0.2457
     21  N        111.6570   61.5280  175.7660 N.3   142  ASN142     -0.1240
     22  CA       112.2130   62.8830  175.7970 C.3   142  ASN142      0.1653
     23  C        111.2090   63.8680  176.3370 C.2   142  ASN142      0.2266
     24  O        110.1450   64.0300  175.7450 O.2   142  ASN142     -0.2867
     25  CB       112.6620   63.3530  174.4180 C.3   142  ASN142      0.1155
     26  CG       113.7640   62.4880  173.8500 C.2   142  ASN142      0.2627
     27  OD1      113.4240   61.5740  173.1240 O.2   142  ASN142     -0.2716
     28  ND2      115.0610   62.7210  174.1860 N.am  142  ASN142     -0.0877
     29  N        112.4860   67.0620  177.1090 N.3   144  ILE144     -0.1231
     30  CA       113.1390   68.3520  176.8670 C.3   144  ILE144      0.1692
     31  C        113.6980   68.4340  175.4600 C.2   144  ILE144      0.2593
     32  O        114.3630   67.4950  174.9890 O.2   144  ILE144     -0.2718
     33  CB       114.2540   68.6570  177.9020 C.3   144  ILE144      0.0266
     34  CG1      114.8720   70.0390  177.6330 C.3   144  ILE144      0.0019
     35  CG2      115.3450   67.5890  177.9310 C.3   144  ILE144      0.0020
     36  CD1      115.5340   70.6540  178.8370 C.3   144  ILE144      0.0001
     37  N        113.4000   69.5510  174.7940 N.am  145  SER145     -0.1938
     38  CA       113.9570   69.8750  173.4860 C.3   145  SER145      0.2055
     39  C        113.7780   68.7680  172.4470 C.2   145  SER145      0.2644
     40  O        114.7450   68.3630  171.7940 O.2   145  SER145     -0.2714
     41  CB       115.4430   70.2500  173.6210 C.3   145  SER145      0.2130
     42  OG       115.9660   70.7280  172.3920 O.3   145  SER145     -0.2179
     43  N        112.5440   68.2920  172.3020 N.am  146  SER146     -0.1935
     44  CA       112.2310   67.2270  171.3560 C.3   146  SER146      0.2055
     45  C        112.3540   67.7560  169.9290 C.2   146  SER146      0.2644
     46  O        111.5210   68.5560  169.4820 O.2   146  SER146     -0.2714
     47  CB       110.8210   66.6850  171.5950 C.3   146  SER146      0.2130
     48  OG       110.6710   66.2570  172.9410 O.3   146  SER146     -0.2179
     49  N        113.4100   67.3190  169.2400 N.am  147  SER147     -0.1935
     50  CA       113.7180   67.7810  167.8960 C.3   147  SER147      0.2055
     51  C        112.7950   67.2530  166.8130 C.2   147  SER147      0.2643
     52  O        112.1940   66.1890  166.9480 O.2   147  SER147     -0.2714
     53  CB       115.1400   67.3850  167.5000 C.3   147  SER147      0.2130
     54  OG       116.0700   67.8980  168.4170 O.3   147  SER147     -0.2179
     55  N        112.7110   68.0480  165.7510 N.am  148  PHE148     -0.1973
     56  CA       112.1500   67.6790  164.4520 C.3   148  PHE148      0.1639
     57  C        110.6180   67.7150  164.2470 C.2   148  PHE148      0.2290
     58  O        110.1460   67.2110  163.2150 O.2   148  PHE148     -0.2864
     59  CB       112.7490   66.3530  163.9530 C.3   148  PHE148      0.0560
     60  CG       114.2540   66.3510  163.9120 C.ar  148  PHE148     -0.0200
     61  CD1      114.9480   67.2560  163.1140 C.ar  148  PHE148     -0.0042
     62  CD2      114.9850   65.4310  164.6680 C.ar  148  PHE148     -0.0042
     63  CE1      116.3290   67.2590  163.0660 C.ar  148  PHE148     -0.0003
     64  CE2      116.3700   65.4130  164.6120 C.ar  148  PHE148     -0.0003
     65  CZ       117.0460   66.3380  163.8190 C.ar  148  PHE148     -0.0000
     66  N        120.3240   77.5810  171.6560 N.3   209  GLN209     -0.1245
     67  CA       121.7840   77.5200  171.7210 C.3   209  GLN209      0.1566
     68  C        122.4040   78.6610  170.9400 C.2   209  GLN209      0.2260
     69  O        121.7750   79.2060  170.0260 O.2   209  GLN209     -0.2867
     70  CB       122.2820   76.1810  171.2090 C.3   209  GLN209      0.0367
     71  CG       121.6840   75.0430  172.0010 C.3   209  GLN209      0.0905
     72  CD       122.3900   73.7260  171.7980 C.2   209  GLN209      0.2608
     73  OE1      122.9140   73.4400  170.7280 O.2   209  GLN209     -0.2717
     74  NE2      122.3840   72.8970  172.8370 N.am  209  GLN209     -0.0878
     75  N        123.2660   77.0640  166.2960 N.3   212  GLU212     -0.1245
     76  CA       122.1780   76.1200  166.0440 C.3   212  GLU212      0.1567
     77  C        121.9200   75.8820  164.5580 C.2   212  GLU212      0.2260
     78  O        121.1750   76.6140  163.9180 O.2   212  GLU212     -0.2867
     79  CB       120.9100   76.6100  166.7420 C.3   212  GLU212      0.0388
     80  CG       119.7370   75.6270  166.7290 C.3   212  GLU212      0.1160
     81  CD       120.1150   74.2520  167.2530 C.2   212  GLU212      0.3649
     82  OE1      120.4250   73.3850  166.4200 O.co2 212  GLU212     -0.2457
     83  OE2      120.1250   74.0380  168.4720 O.co2 212  GLU212     -0.2457
     84  N        120.2610   73.4470  163.3960 N.3   214  ASN214     -0.1240
     85  CA       118.8880   72.9980  163.2500 C.3   214  ASN214      0.1653
     86  C        117.8750   74.1280  163.5540 C.2   214  ASN214      0.2266
     87  O        116.7530   73.8650  163.9960 O.2   214  ASN214     -0.2867
     88  CB       118.6490   71.7760  164.1410 C.3   214  ASN214      0.1155
     89  CG       117.4560   70.9490  163.6910 C.2   214  ASN214      0.2627
     90  OD1      117.1740   70.8260  162.4920 O.2   214  ASN214     -0.2716
     91  ND2      116.7380   70.3830  164.6510 N.am  214  ASN214     -0.0877
     92  N        113.1850   74.8410  164.3730 N.3   218  GLN218     -0.1245
     93  CA       112.6430   75.6920  165.4350 C.3   218  GLN218      0.1566
     94  C        111.8280   76.8470  164.8650 C.2   218  GLN218      0.2260
     95  O        110.7490   77.1680  165.3670 O.2   218  GLN218     -0.2867
     96  CB       113.7820   76.2420  166.2990 C.3   218  GLN218      0.0367
     97  CG       114.5940   75.1790  167.0430 C.3   218  GLN218      0.0905
     98  CD       115.8640   75.7430  167.6540 C.2   218  GLN218      0.2608
     99  OE1      116.0850   76.9590  167.6210 O.2   218  GLN218     -0.2717
    100  NE2      116.6590   74.8790  168.2720 N.am  218  GLN218     -0.0878
    101  N        114.9150   74.7290  173.9020 N.3   266  ARG266     -0.1245
    102  CA       115.6770   74.0100  172.8840 C.3   266  ARG266      0.1563
    103  C        117.1720   74.1310  173.2180 C.2   266  ARG266      0.2260
    104  O        118.0400   74.2120  172.3370 O.2   266  ARG266     -0.2867
    105  CB       115.3350   74.5440  171.4940 C.3   266  ARG266      0.0307
    106  CG       113.8690   74.3720  171.1190 C.3   266  ARG266      0.0489
    107  CD       113.4900   72.9220  170.8940 C.3   266  ARG266      0.2205
    108  NE       114.0560   72.4030  169.6500 N.pl3 266  ARG266     -0.0865
    109  CZ       113.4050   72.2070  168.5000 C.cat 266  ARG266      0.5346
    110  NH1      114.0830   71.7470  167.4540 N.pl3 266  ARG266      0.1354
    111  NH2      112.0990   72.4710  168.3570 N.pl3 266  ARG266      0.1354
    112  N        119.7910   71.2690  178.1340 N.3   269  TYR269     -0.1241
    113  CA       119.6590   69.8210  178.3360 C.3   269  TYR269      0.1605
    114  C        121.0120   69.1190  178.4960 C.2   269  TYR269      0.2264
    115  O        121.0410   67.9460  178.8360 O.2   269  TYR269     -0.2867
    116  CB       118.8460   69.1580  177.1980 C.3   269  TYR269      0.0534
    117  CG       119.3760   69.4510  175.8050 C.ar  269  TYR269     -0.0201
    118  CD1      120.4420   68.7210  175.2660 C.ar  269  TYR269     -0.0009
    119  CD2      118.8240   70.4740  175.0300 C.ar  269  TYR269     -0.0009
    120  CE1      120.9440   69.0020  174.0070 C.ar  269  TYR269      0.0417
    121  CE2      119.3130   70.7640  173.7700 C.ar  269  TYR269      0.0417
    122  CZ       120.3730   70.0230  173.2590 C.ar  269  TYR269      0.1957
    123  OH       120.8510   70.3130  172.0010 O.3   269  TYR269     -0.2866
    124  N        113.6820   58.1440  162.2140 N.3   434  ARG434     -0.1245
    125  CA       115.0970   58.3720  161.9670 C.3   434  ARG434      0.1563
    126  C        115.6830   57.0430  161.5430 C.2   434  ARG434      0.2260
    127  O        115.4230   56.0100  162.1740 O.2   434  ARG434     -0.2867
    128  CB       115.8200   58.9200  163.2030 C.3   434  ARG434      0.0307
    129  CG       115.6460   60.4390  163.3870 C.3   434  ARG434      0.0489
    130  CD       116.2150   60.9910  164.6870 C.3   434  ARG434      0.2205
    131  NE       115.7930   60.1670  165.8140 N.pl3 434  ARG434     -0.0865
    132  CZ       116.0510   60.3900  167.1070 C.cat 434  ARG434      0.5346
    133  NH1      115.6200   59.4810  167.9800 N.pl3 434  ARG434      0.1354
    134  NH2      116.6580   61.4990  167.5410 N.pl3 434  ARG434      0.1354
@<TRIPOS>BOND
     1   126   125    1
     2   126   127    2
     3   125   124    1
     4   125   128    1
     5    90    89    2
     6    63    61   ar
     7    63    65   ar
     8    61    60   ar
     9   128   129    1
    10    58    57    2
    11    85    84    1
    12    85    86    1
    13    85    88    1
    14   129   130    1
    15    86    87    2
    16    89    88    1
    17    89    91   am
    18    65    64   ar
    19    60    59    1
    20    60    62   ar
    21    78    77    2
    22    59    56    1
    23    57    56    1
    24    92    93    1
    25    56    55    1
    26    77    76    1
    27    64    62   ar
    28   130   131    1
    29    94    95    2
    30    94    93    1
    31    93    96    1
    32    55    51   am
    33   131   132    2
    34    76    75    1
    35    76    79    1
    36    96    97    1
    37    82    81   ar
    38    80    79    1
    39    80    81    1
    40    51    52    2
    41    51    50    1
    42    97    98    1
    43   132   134    1
    44   132   133    1
    45    81    83   ar
    46   110   109    1
    47    53    50    1
    48    53    54    1
    49    99    98    2
    50    98   100   am
    51    50    49    1
    52   111   109    1
    53   109   108    2
    54     7     8    1
    55     7     6    1
    56     8     9    2
    57    11     9    1
    58    49    45   am
    59     9    10    1
    60    46    45    2
    61   108   107    1
    62     6     5    1
    63    45    44    1
    64    69    68    2
    65    73    72    2
    66   107   106    1
    67    68    67    1
    68     5     2    1
    69   106   105    1
    70    70    67    1
    71    70    71    1
    72    44    47    1
    73    44    43    1
    74   105   102    1
    75    47    48    1
    76    66    67    1
    77    40    39    2
    78    72    71    1
    79    72    74   am
    80   123   122    1
    81     2     3    1
    82     2     1    1
    83    43    39   am
    84   104   103    2
    85    42    41    1
    86    39    38    1
    87     3     4    2
    88   102   103    1
    89   102   101    1
    90    27    26    2
    91    20    18   ar
    92   122   121   ar
    93   122   120   ar
    94    38    41    1
    95    38    37    1
    96   121   119   ar
    97    26    28   am
    98    26    25    1
    99   120   118   ar
   100    17    18    1
   101    17    16    1
   102    18    19   ar
   103    25    22    1
   104    15    14    2
   105    12    13    1
   106    37    31   am
   107    32    31    2
   108   119   117   ar
   109   118   117   ar
   110    31    30    1
   111    14    13    1
   112    16    13    1
   113    24    23    2
   114    21    22    1
   115    22    23    1
   116   117   116    1
   117    30    29    1
   118    30    33    1
   119   116   113    1
   120    34    33    1
   121    34    36    1
   122    33    35    1
   123   112   113    1
   124   113   114    1
   125   114   115    2
