@<TRIPOS>MOLECULE
tmp/5oesF00.pdb
 158 147 0 0 0
SMALL
GASTEIGER

@<TRIPOS>ATOM
      1  N        111.9080   51.1140  169.0990 N.3   128  MET128     -0.1245
      2  CA       112.5070   50.2170  168.1220 C.3   128  MET128      0.1570
      3  C        111.6620   48.9610  168.0470 C.2   128  MET128      0.2261
      4  O        111.0970   48.5300  169.0560 O.2   128  MET128     -0.2867
      5  CB       113.9220   49.8290  168.5250 C.3   128  MET128      0.0387
      6  CG       114.9710   50.8440  168.1620 C.3   128  MET128      0.0595
      7  SD       116.6310   50.1080  168.2400 S.3   128  MET128     -0.1393
      8  CE       117.4860   51.2140  167.1160 C.3   128  MET128      0.0692
      9  N        112.7280   52.8660  173.6610 N.3   139  ILE139     -0.1231
     10  CA       114.1470   53.1830  173.8800 C.3   139  ILE139      0.1692
     11  C        114.3260   54.3600  174.8270 C.2   139  ILE139      0.2591
     12  O        115.2310   54.3400  175.6520 O.2   139  ILE139     -0.2718
     13  CB       114.7890   53.6200  172.5310 C.3   139  ILE139      0.0266
     14  CG1      114.8180   52.4680  171.5480 C.3   139  ILE139      0.0019
     15  CG2      116.1810   54.2050  172.6910 C.3   139  ILE139      0.0020
     16  CD1      115.5150   51.2370  172.0810 C.3   139  ILE139      0.0001
     17  N        113.5000   55.3920  174.6850 N.am  140  GLU140     -0.1979
     18  CA       113.4900   56.4860  175.6600 C.3   140  GLU140      0.1602
     19  C        112.2790   57.4030  175.5470 C.2   140  GLU140      0.2287
     20  O        111.5070   57.3160  174.5990 O.2   140  GLU140     -0.2864
     21  CB       114.7620   57.3320  175.5560 C.3   140  GLU140      0.0415
     22  CG       115.0210   57.9230  174.1800 C.3   140  GLU140      0.1163
     23  CD       116.1500   58.9300  174.2080 C.2   140  GLU140      0.3649
     24  OE1      116.9310   58.9050  175.1830 O.co2 140  GLU140     -0.2457
     25  OE2      116.2430   59.7400  173.2510 O.co2 140  GLU140     -0.2457
     26  N        116.7800   58.8540  182.1990 N.3   305  LYS305     -0.1245
     27  CA       116.8450   57.4030  182.0320 C.3   305  LYS305      0.1561
     28  C        116.7290   56.6370  183.3540 C.2   305  LYS305      0.2260
     29  O        116.1760   55.5440  183.3740 O.2   305  LYS305     -0.2867
     30  CB       118.1190   56.9850  181.2910 C.3   305  LYS305      0.0271
     31  CG       117.9840   57.1140  179.7870 C.3   305  LYS305      0.0035
     32  CD       119.3060   56.8630  179.0720 C.3   305  LYS305      0.0206
     33  CE       119.1800   57.1250  177.5740 C.3   305  LYS305      0.1093
     34  NZ       118.7810   58.5400  177.2920 N.3   305  LYS305     -0.1314
     35  N        122.7020   46.2040  176.7040 N.3   357  VAL357     -0.1245
     36  CA       123.2960   47.4950  176.3670 C.3   357  VAL357      0.1561
     37  C        123.5390   48.2540  177.6690 C.2   357  VAL357      0.2260
     38  O        122.6640   48.2900  178.5420 O.2   357  VAL357     -0.2867
     39  CB       122.3630   48.3470  175.4760 C.3   357  VAL357      0.0252
     40  CG1      123.0500   49.6490  175.0580 C.3   357  VAL357      0.0019
     41  CG2      121.9500   47.5720  174.2410 C.3   357  VAL357      0.0019
     42  N        123.8920   51.8910  179.0100 N.3   359  LYS359     -0.1245
     43  CA       123.5470   53.2530  178.5710 C.3   359  LYS359      0.1561
     44  C        123.8430   54.2680  179.6750 C.2   359  LYS359      0.2260
     45  O        123.4050   54.0630  180.8120 O.2   359  LYS359     -0.2867
     46  CB       122.0520   53.3300  178.2220 C.3   359  LYS359      0.0271
     47  CG       121.6020   52.3540  177.1390 C.3   359  LYS359      0.0035
     48  CD       120.0920   52.3610  176.9620 C.3   359  LYS359      0.0206
     49  CE       119.5940   53.6050  176.2390 C.3   359  LYS359      0.1093
     50  NZ       118.1590   53.4920  175.8940 N.3   359  LYS359     -0.1314
     51  N        127.1160   57.9090  175.2660 N.3   362  ASN362     -0.1225
     52  CA       128.0730   56.9680  174.6880 C.3   362  ASN362      0.1785
     53  C        127.7550   55.4810  175.0630 C.2   362  ASN362      0.2597
     54  O        128.3230   54.9290  176.0070 O.2   362  ASN362     -0.2718
     55  CB       129.4740   57.4030  175.1310 C.3   362  ASN362      0.1169
     56  CG       130.5670   56.9500  174.1790 C.2   362  ASN362      0.2627
     57  OD1      130.3620   56.8770  172.9590 O.2   362  ASN362     -0.2716
     58  ND2      131.7470   56.6610  174.7340 N.am  362  ASN362     -0.0877
     59  N        126.8250   54.8580  174.3240 N.am  363  ASN363     -0.1974
     60  CA       126.3270   53.4840  174.6150 C.3   363  ASN363      0.1688
     61  C        127.3700   52.3740  174.3950 C.2   363  ASN363      0.2292
     62  O        128.1470   52.4410  173.4520 O.2   363  ASN363     -0.2864
     63  CB       125.0990   53.1350  173.7520 C.3   363  ASN363      0.1181
     64  CG       123.8460   53.8940  174.1420 C.2   363  ASN363      0.2629
     65  OD1      123.7000   54.3750  175.2650 O.2   363  ASN363     -0.2716
     66  ND2      122.9150   53.9830  173.1980 N.am  363  ASN363     -0.0877
     67  N        127.9400   48.1520  173.8080 N.3   365  TYR365     -0.1241
     68  CA       127.2410   46.9810  173.2480 C.3   365  TYR365      0.1605
     69  C        128.0860   45.7140  173.3270 C.2   365  TYR365      0.2264
     70  O        129.3080   45.7830  173.3720 O.2   365  TYR365     -0.2867
     71  CB       126.9200   47.2230  171.7710 C.3   365  TYR365      0.0534
     72  CG       126.0320   48.4030  171.5120 C.ar  365  TYR365     -0.0201
     73  CD1      124.6430   48.2640  171.5330 C.ar  365  TYR365     -0.0009
     74  CD2      126.5720   49.6600  171.2260 C.ar  365  TYR365     -0.0009
     75  CE1      123.8120   49.3530  171.2960 C.ar  365  TYR365      0.0417
     76  CE2      125.7580   50.7470  170.9840 C.ar  365  TYR365      0.0417
     77  CZ       124.3790   50.5990  171.0170 C.ar  365  TYR365      0.1957
     78  OH       123.5740   51.6970  170.7730 O.3   365  TYR365     -0.2866
     79  N        120.1980   47.7550  179.9970 N.3   383  MET383     -0.1230
     80  CA       118.9610   47.5600  179.2480 C.3   383  MET383      0.1702
     81  C        119.0460   46.3280  178.3710 C.2   383  MET383      0.2592
     82  O        120.1210   45.9550  177.9030 O.2   383  MET383     -0.2718
     83  CB       118.6850   48.7900  178.3740 C.3   383  MET383      0.0401
     84  CG       117.2810   48.8540  177.8050 C.3   383  MET383      0.0596
     85  SD       117.0110   50.3780  176.8810 S.3   383  MET383     -0.1393
     86  CE       115.2690   50.3220  176.5390 C.3   383  MET383      0.0692
     87  N        117.8940   45.6990  178.1690 N.am  384  GLN384     -0.1966
     88  CA       117.7280   44.6460  177.1730 C.3   384  GLN384      0.1733
     89  C        118.1360   45.1790  175.8050 C.2   384  GLN384      0.2616
     90  O        117.5930   46.1850  175.3450 O.2   384  GLN384     -0.2715
     91  CB       116.2710   44.1810  177.1280 C.3   384  GLN384      0.0408
     92  CG       115.9120   43.1960  176.0110 C.3   384  GLN384      0.0908
     93  CD       114.4490   42.8320  176.0070 C.2   384  GLN384      0.2608
     94  OE1      113.6820   43.2380  176.8910 O.2   384  GLN384     -0.2717
     95  NE2      114.0500   42.0730  175.0030 N.am  384  GLN384     -0.0878
     96  N        119.0830   44.4960  175.1650 N.am  385  ARG385     -0.1963
     97  CA       119.4420   44.8220  173.8040 C.3   385  ARG385      0.1729
     98  C        118.3190   44.4100  172.8570 C.2   385  ARG385      0.2616
     99  O        117.8340   43.2720  172.8870 O.2   385  ARG385     -0.2715
    100  CB       120.7400   44.1510  173.3770 C.3   385  ARG385      0.0348
    101  CG       121.2320   44.6460  172.0420 C.3   385  ARG385      0.0492
    102  CD       122.5760   44.1040  171.6570 C.3   385  ARG385      0.2205
    103  NE       123.0250   44.6630  170.3890 N.pl3 385  ARG385     -0.0865
    104  CZ       124.1630   44.3350  169.7700 C.cat 385  ARG385      0.5346
    105  NH1      125.0090   43.4430  170.2880 N.pl3 385  ARG385      0.1354
    106  NH2      124.4540   44.9140  168.6120 N.pl3 385  ARG385      0.1354
    107  N        117.9320   45.3690  172.0220 N.am  386  ILE386     -0.1977
    108  CA       116.9290   45.2080  170.9950 C.3   386  ILE386      0.1596
    109  C        117.6630   44.9850  169.6800 C.2   386  ILE386      0.2287
    110  O        118.6450   45.6650  169.3930 O.2   386  ILE386     -0.2864
    111  CB       116.0310   46.4570  170.9220 C.3   386  ILE386      0.0276
    112  CG1      115.3300   46.6720  172.2670 C.3   386  ILE386      0.0022
    113  CG2      115.0060   46.3260  169.7940 C.3   386  ILE386      0.0022
    114  CD1      114.6730   48.0150  172.4240 C.3   386  ILE386      0.0001
    115  N        116.8980   45.2630  165.9400 N.3   388  PRO388     -0.2116
    116  CA       115.9470   45.6550  164.8950 C.3   388  PRO388      0.1372
    117  C        116.2700   45.0270  163.5510 C.2   388  PRO388      0.2244
    118  O        117.3700   44.4960  163.3510 O.2   388  PRO388     -0.2868
    119  CB       116.1170   47.1680  164.8200 C.3   388  PRO388      0.0268
    120  CG       117.5410   47.3810  165.1910 C.3   388  PRO388      0.0207
    121  CD       117.9190   46.3080  166.1690 C.3   388  PRO388      0.0892
    122  N        119.2240   50.6990  160.2230 N.3   407  ILE407     -0.1245
    123  CA       118.2330   50.4040  161.2630 C.3   407  ILE407      0.1561
    124  C        117.4350   51.6920  161.4880 C.2   407  ILE407      0.2260
    125  O        117.9250   52.7920  161.2320 O.2   407  ILE407     -0.2867
    126  CB       118.8730   49.9090  162.5940 C.3   407  ILE407      0.0252
    127  CG1      119.7580   50.9990  163.2490 C.3   407  ILE407      0.0019
    128  CG2      119.6620   48.6310  162.3440 C.3   407  ILE407      0.0019
    129  CD1      120.4930   50.5280  164.4870 C.3   407  ILE407      0.0001
    130  N        114.1850   53.9410  163.8160 N.3   409  GLU409     -0.1245
    131  CA       113.7490   54.3120  165.1500 C.3   409  GLU409      0.1567
    132  C        112.5260   55.2260  165.0270 C.2   409  GLU409      0.2260
    133  O        112.6010   56.2690  164.3930 O.2   409  GLU409     -0.2867
    134  CB       114.9050   55.0350  165.8220 C.3   409  GLU409      0.0388
    135  CG       114.7630   55.3030  167.3040 C.3   409  GLU409      0.1160
    136  CD       116.0760   55.8250  167.8940 C.2   409  GLU409      0.3649
    137  OE1      117.1160   55.1390  167.7150 O.co2 409  GLU409     -0.2457
    138  OE2      116.0720   56.9210  168.5150 O.co2 409  GLU409     -0.2457
    139  N        113.6820   58.1440  162.2140 N.3   434  ARG434     -0.1245
    140  CA       115.0970   58.3720  161.9670 C.3   434  ARG434      0.1563
    141  C        115.6830   57.0430  161.5430 C.2   434  ARG434      0.2260
    142  O        115.4230   56.0100  162.1740 O.2   434  ARG434     -0.2867
    143  CB       115.8200   58.9200  163.2030 C.3   434  ARG434      0.0307
    144  CG       115.6460   60.4390  163.3870 C.3   434  ARG434      0.0489
    145  CD       116.2150   60.9910  164.6870 C.3   434  ARG434      0.2205
    146  NE       115.7930   60.1670  165.8140 N.pl3 434  ARG434     -0.0865
    147  CZ       116.0510   60.3900  167.1070 C.cat 434  ARG434      0.5346
    148  NH1      115.6200   59.4810  167.9800 N.pl3 434  ARG434      0.1354
    149  NH2      116.6580   61.4990  167.5410 N.pl3 434  ARG434      0.1354
    150  N        119.3800   55.1670  160.2960 N.3   436  LYS436     -0.1245
    151  CA       120.8340   55.3080  160.3210 C.3   436  LYS436      0.1561
    152  C        121.5910   54.0530  159.9220 C.2   436  LYS436      0.2260
    153  O        121.0500   52.9480  159.9620 O.2   436  LYS436     -0.2867
    154  CB       121.2950   55.7690  161.6970 C.3   436  LYS436      0.0271
    155  CG       120.9920   54.8160  162.8320 C.3   436  LYS436      0.0035
    156  CD       121.0350   55.5140  164.1700 C.3   436  LYS436      0.0206
    157  CE       120.8860   54.4820  165.2690 C.3   436  LYS436      0.1093
    158  NZ       120.9970   55.0840  166.6230 N.3   436  LYS436     -0.1314
@<TRIPOS>BOND
     1   152   153    2
     2   152   151    1
     3   122   123    1
     4   150   151    1
     5   151   154    1
     6   125   124    2
     7   123   124    1
     8   123   126    1
     9   141   140    1
    10   141   142    2
    11   154   155    1
    12   140   139    1
    13   140   143    1
    14   128   126    1
    15   126   127    1
    16   155   156    1
    17   143   144    1
    18   127   129    1
    19   118   117    2
    20   144   145    1
    21   117   116    1
    22   130   131    1
    23   156   157    1
    24   133   132    2
    25   145   146    1
    26   119   116    1
    27   119   120    1
    28   116   115    1
    29   132   131    1
    30   131   134    1
    31   120   121    1
    32   157   158    1
    33   146   147    2
    34   134   135    1
    35   115   121    1
    36   147   149    1
    37   147   148    1
    38     8     7    1
    39   135   136    1
    40   137   136   ar
    41   136   138   ar
    42     3     2    1
    43     3     4    2
    44     2     5    1
    45     2     1    1
    46     6     7    1
    47     6     5    1
    48   106   104    1
    49   110   109    2
    50   109   108    1
    51   104   105    1
    52   104   103    2
    53   113   111    1
    54   103   102    1
    55    78    77    1
    56   111   108    1
    57   111   112    1
    58    76    77   ar
    59    76    74   ar
    60   108   107    1
    61    77    75   ar
    62    74    72   ar
    63    75    73   ar
    64    72    73   ar
    65    72    71    1
    66    14    16    1
    67    14    13    1
    68   102   101    1
    69    71    68    1
    70   107    98   am
    71   101   100    1
    72   112   114    1
    73    13    15    1
    74    13    10    1
    75    98    99    2
    76    98    97    1
    77    57    56    2
    78    66    64   am
    79    68    69    1
    80    68    67    1
    81    25    23   ar
    82    69    70    2
    83   100    97    1
    84    62    61    2
    85     9    10    1
    86    63    64    1
    87    63    60    1
    88    97    96    1
    89    10    11    1
    90    64    65    2
    91    56    58   am
    92    56    55    1
    93    22    23    1
    94    22    21    1
    95    23    24   ar
    96    41    39    1
    97    59    60    1
    98    59    53   am
    99    61    60    1
   100    20    19    2
   101    17    11   am
   102    17    18    1
   103    52    53    1
   104    52    55    1
   105    52    51    1
   106    11    12    2
   107    95    93   am
   108    40    39    1
   109    53    54    2
   110    96    89   am
   111    90    89    2
   112    39    36    1
   113    19    18    1
   114    21    18    1
   115    89    88    1
   116    50    49    1
   117    93    92    1
   118    93    94    2
   119    92    91    1
   120    49    48    1
   121    36    35    1
   122    36    37    1
   123    86    85    1
   124    85    84    1
   125    48    47    1
   126    91    88    1
   127    47    46    1
   128    88    87    1
   129    34    33    1
   130    33    32    1
   131    37    38    2
   132    84    83    1
   133    82    81    2
   134    87    81   am
   135    46    43    1
   136    81    80    1
   137    83    80    1
   138    43    42    1
   139    43    44    1
   140    32    31    1
   141    80    79    1
   142    44    45    2
   143    31    30    1
   144    30    27    1
   145    27    26    1
   146    27    28    1
   147    28    29    2
