@<TRIPOS>MOLECULE
tmp/5oeuA00.pdb
 155 143 0 0 0
SMALL
GASTEIGER

@<TRIPOS>ATOM
      1  N        -23.1090   37.2970  -33.7270 N.3   124  ARG124     -0.1245
      2  CA       -22.9820   37.0620  -32.2950 C.3   124  ARG124      0.1563
      3  C        -22.6810   38.3800  -31.5740 C.2   124  ARG124      0.2260
      4  O        -21.7270   39.0660  -31.9290 O.2   124  ARG124     -0.2867
      5  CB       -21.8650   36.0730  -31.9880 C.3   124  ARG124      0.0307
      6  CG       -21.9240   35.5990  -30.5530 C.3   124  ARG124      0.0489
      7  CD       -20.9310   34.4950  -30.2540 C.3   124  ARG124      0.2205
      8  NE       -19.6300   35.0420  -29.8850 N.pl3 124  ARG124     -0.0865
      9  CZ       -18.5410   35.0700  -30.6550 C.cat 124  ARG124      0.5346
     10  NH1      -18.5280   34.5580  -31.8880 N.pl3 124  ARG124      0.1354
     11  NH2      -17.4310   35.6310  -30.1830 N.pl3 124  ARG124      0.1354
     12  N        -21.5440   39.9210  -27.9640 N.3   126  ASP126     -0.1239
     13  CA       -20.8880   39.5030  -26.7200 C.3   126  ASP126      0.1674
     14  C        -21.1390   40.5450  -25.6240 C.2   126  ASP126      0.2266
     15  O        -21.0430   41.7570  -25.8730 O.2   126  ASP126     -0.2867
     16  CB       -19.3830   39.3010  -26.9450 C.3   126  ASP126      0.1410
     17  CG       -19.0570   38.0430  -27.8010 C.2   126  ASP126      0.3668
     18  OD1      -19.7630   37.0230  -27.7010 O.co2 126  ASP126     -0.2456
     19  OD2      -18.0570   38.0660  -28.5570 O.co2 126  ASP126     -0.2456
     20  N        -20.4330   41.4260  -21.2330 N.3   128  MET128     -0.1245
     21  CA       -19.9820   41.0580  -19.8800 C.3   128  MET128      0.1570
     22  C        -20.8240   41.7590  -18.8540 C.2   128  MET128      0.2261
     23  O        -21.4800   42.7240  -19.1660 O.2   128  MET128     -0.2867
     24  CB       -18.4620   41.2080  -19.5960 C.3   128  MET128      0.0387
     25  CG       -17.7700   42.4120  -20.1630 C.3   128  MET128      0.0595
     26  SD       -15.9820   42.1520  -20.2620 S.3   128  MET128     -0.1393
     27  CE       -15.5710   42.3180  -18.5300 C.3   128  MET128      0.0692
     28  N        -19.5760   44.1850  -25.1550 N.3   140  VAL140     -0.1231
     29  CA       -18.1410   44.3230  -25.4680 C.3   140  VAL140      0.1692
     30  C        -17.8390   44.3100  -26.9500 C.2   140  VAL140      0.2591
     31  O        -16.9790   45.0770  -27.4040 O.2   140  VAL140     -0.2718
     32  CB       -17.2350   43.2810  -24.7740 C.3   140  VAL140      0.0266
     33  CG1      -17.4820   43.3020  -23.2990 C.3   140  VAL140      0.0020
     34  CG2      -17.4440   41.8730  -25.2900 C.3   140  VAL140      0.0020
     35  N        -18.5250   43.4490  -27.6960 N.am  141  GLU141     -0.1979
     36  CA       -18.2320   43.2670  -29.1040 C.3   141  GLU141      0.1602
     37  C        -19.4690   42.7990  -29.8370 C.2   141  GLU141      0.2287
     38  O        -20.3820   42.2470  -29.2370 O.2   141  GLU141     -0.2864
     39  CB       -17.1100   42.2350  -29.2760 C.3   141  GLU141      0.0415
     40  CG       -16.3630   42.2860  -30.6110 C.3   141  GLU141      0.1163
     41  CD       -15.5740   41.0100  -30.9250 C.2   141  GLU141      0.3649
     42  OE1      -15.4370   40.1410  -30.0310 O.co2 141  GLU141     -0.2457
     43  OE2      -15.0820   40.8640  -32.0810 O.co2 141  GLU141     -0.2457
     44  N        -19.9680   40.5530  -33.5170 N.3   143  ASN143     -0.1240
     45  CA       -19.2510   39.7350  -34.5020 C.3   143  ASN143      0.1653
     46  C        -20.2160   39.3660  -35.6130 C.2   143  ASN143      0.2266
     47  O        -21.2570   38.7710  -35.3750 O.2   143  ASN143     -0.2867
     48  CB       -18.7190   38.4460  -33.8700 C.3   143  ASN143      0.1155
     49  CG       -17.6860   38.6970  -32.7720 C.2   143  ASN143      0.2627
     50  OD1      -16.4830   38.8150  -33.0410 O.2   143  ASN143     -0.2716
     51  ND2      -18.1520   38.7570  -31.5200 N.am  143  ASN143     -0.0877
     52  N        -14.5300   47.5400  -34.5220 N.3   303  LYS303     -0.1245
     53  CA       -14.5410   48.3680  -33.3070 C.3   303  LYS303      0.1561
     54  C        -14.8330   49.8380  -33.6070 C.2   303  LYS303      0.2260
     55  O        -15.5050   50.4910  -32.8200 O.2   303  LYS303     -0.2867
     56  CB       -13.2290   48.2560  -32.5220 C.3   303  LYS303      0.0271
     57  CG       -12.8760   46.8690  -32.0090 C.3   303  LYS303      0.0035
     58  CD       -13.9010   46.3410  -31.0160 C.3   303  LYS303      0.0206
     59  CE       -13.5040   44.9830  -30.4500 C.3   303  LYS303      0.1093
     60  NZ       -13.2920   43.9440  -31.5000 N.3   303  LYS303     -0.1314
     61  N         -9.7120   50.2910  -21.4500 N.3   363  VAL363     -0.1245
     62  CA        -9.1020   49.3280  -22.3420 C.3   363  VAL363      0.1561
     63  C         -8.8680   50.0380  -23.6780 C.2   363  VAL363      0.2260
     64  O         -9.7890   50.6830  -24.2090 O.2   363  VAL363     -0.2867
     65  CB       -10.0470   48.1360  -22.5790 C.3   363  VAL363      0.0252
     66  CG1       -9.4520   47.1540  -23.5840 C.3   363  VAL363      0.0019
     67  CG2      -10.3450   47.4430  -21.2630 C.3   363  VAL363      0.0019
     68  N         -8.1730   49.5110  -27.5910 N.3   365  LYS365     -0.1245
     69  CA        -8.3620   48.4550  -28.5960 C.3   365  LYS365      0.1561
     70  C         -8.0380   48.9150  -30.0110 C.2   365  LYS365      0.2260
     71  O         -8.3830   50.0260  -30.3780 O.2   365  LYS365     -0.2867
     72  CB        -9.8160   48.0080  -28.6070 C.3   365  LYS365      0.0271
     73  CG       -10.3640   47.5040  -27.2900 C.3   365  LYS365      0.0035
     74  CD       -11.5750   46.6440  -27.5910 C.3   365  LYS365      0.0206
     75  CE       -12.3600   46.2590  -26.3590 C.3   365  LYS365      0.1093
     76  NZ       -13.7160   45.7860  -26.7720 N.3   365  LYS365     -0.1314
     77  N         -5.3060   44.8940  -27.8490 N.3   368  ASN368     -0.1240
     78  CA        -5.8640   45.2410  -26.5260 C.3   368  ASN368      0.1653
     79  C         -4.8120   45.5440  -25.4480 C.2   368  ASN368      0.2266
     80  O         -4.1150   44.6510  -25.0180 O.2   368  ASN368     -0.2867
     81  CB        -6.8140   44.1270  -26.0300 C.3   368  ASN368      0.1155
     82  CG        -8.2080   44.2300  -26.6370 C.2   368  ASN368      0.2627
     83  OD1       -9.1940   43.7440  -26.0600 O.2   368  ASN368     -0.2716
     84  ND2       -8.3010   44.8730  -27.8030 N.am  368  ASN368     -0.0877
     85  N         -3.8190   47.3760  -21.5590 N.3   370  TYR370     -0.1241
     86  CA        -4.4010   47.6390  -20.2320 C.3   370  TYR370      0.1605
     87  C         -3.3750   48.3590  -19.3930 C.2   370  TYR370      0.2264
     88  O         -2.2090   48.3040  -19.7050 O.2   370  TYR370     -0.2867
     89  CB        -4.7860   46.3280  -19.5380 C.3   370  TYR370      0.0534
     90  CG        -5.7910   45.5030  -20.2930 C.ar  370  TYR370     -0.0201
     91  CD1       -5.3950   44.6550  -21.3260 C.ar  370  TYR370     -0.0009
     92  CD2       -7.1580   45.5580  -19.9700 C.ar  370  TYR370     -0.0009
     93  CE1       -6.3320   43.8870  -22.0260 C.ar  370  TYR370      0.0417
     94  CE2       -8.0980   44.7920  -20.6560 C.ar  370  TYR370      0.0417
     95  CZ        -7.6810   43.9640  -21.6830 C.ar  370  TYR370      0.1957
     96  OH        -8.6130   43.2460  -22.3780 O.3   370  TYR370     -0.2866
     97  N        -12.1750   52.3540  -24.7400 N.3   392  MET392     -0.1230
     98  CA       -13.4080   51.7850  -24.2010 C.3   392  MET392      0.1702
     99  C        -13.3390   51.8100  -22.6860 C.2   392  MET392      0.2592
    100  O        -12.2670   51.6460  -22.1060 O.2   392  MET392     -0.2718
    101  CB       -13.5710   50.3560  -24.6960 C.3   392  MET392      0.0401
    102  CG       -14.9200   49.7440  -24.3770 C.3   392  MET392      0.0596
    103  SD       -15.1720   48.1630  -25.1960 S.3   392  MET392     -0.1393
    104  CE       -16.9540   48.1480  -25.1510 C.3   392  MET392      0.0692
    105  N        -14.4790   52.0420  -22.0460 N.am  393  GLN393     -0.1966
    106  CA       -14.5820   51.9940  -20.5910 C.3   393  GLN393      0.1733
    107  C        -14.3720   50.5560  -20.1250 C.2   393  GLN393      0.2616
    108  O        -14.9010   49.6140  -20.7350 O.2   393  GLN393     -0.2715
    109  CB       -15.9530   52.4950  -20.1580 C.3   393  GLN393      0.0408
    110  CG       -16.2110   52.4670  -18.6620 C.3   393  GLN393      0.0908
    111  CD       -17.5320   53.1500  -18.3100 C.2   393  GLN393      0.2608
    112  OE1      -17.9300   54.1530  -18.9230 O.2   393  GLN393     -0.2717
    113  NE2      -18.2300   52.5920  -17.3340 N.am  393  GLN393     -0.0878
    114  N        -13.6050   50.3880  -19.0480 N.am  394  LYS394     -0.1963
    115  CA       -13.2750   49.0550  -18.5430 C.3   394  LYS394      0.1728
    116  C        -14.4490   48.5300  -17.7250 C.2   394  LYS394      0.2616
    117  O        -14.9980   49.2360  -16.8780 O.2   394  LYS394     -0.2715
    118  CB       -12.0070   49.0720  -17.6880 C.3   394  LYS394      0.0311
    119  CG       -11.3680   47.6910  -17.5160 C.3   394  LYS394      0.0038
    120  CD       -10.5170   47.5600  -16.2490 C.3   394  LYS394      0.0206
    121  CE        -9.0980   47.0580  -16.5240 C.3   394  LYS394      0.1093
    122  NZ        -8.0360   47.6500  -15.6440 N.3   394  LYS394     -0.1314
    123  N        -14.8520   47.2970  -18.0120 N.am  395  LEU395     -0.1977
    124  CA       -15.9300   46.6480  -17.2850 C.3   395  LEU395      0.1596
    125  C        -15.3270   45.7220  -16.2250 C.2   395  LEU395      0.2287
    126  O        -14.2930   45.0770  -16.4730 O.2   395  LEU395     -0.2864
    127  CB       -16.8540   45.8930  -18.2510 C.3   395  LEU395      0.0297
    128  CG       -17.4030   46.7600  -19.3960 C.3   395  LEU395      0.0022
    129  CD1      -18.0460   45.8860  -20.4520 C.3   395  LEU395      0.0001
    130  CD2      -18.3700   47.8420  -18.9150 C.3   395  LEU395      0.0001
    131  N        -16.1920   42.5120  -14.2780 N.3   397  PRO397     -0.2116
    132  CA       -17.1760   41.4160  -14.3230 C.3   397  PRO397      0.1372
    133  C        -17.4190   40.7040  -13.0070 C.2   397  PRO397      0.2244
    134  O        -16.6490   40.8480  -12.0660 O.2   397  PRO397     -0.2868
    135  CB       -16.5890   40.4530  -15.3610 C.3   397  PRO397      0.0268
    136  CG       -15.1260   40.6830  -15.2840 C.3   397  PRO397      0.0207
    137  CD       -14.9280   42.1300  -14.9440 C.3   397  PRO397      0.0892
    138  N        -18.3600   35.6910  -20.2690 N.3   419  GLU419     -0.1245
    139  CA       -18.7160   36.5900  -21.3520 C.3   419  GLU419      0.1567
    140  C        -19.8880   35.9240  -22.0720 C.2   419  GLU419      0.2260
    141  O        -19.7560   34.7990  -22.5480 O.2   419  GLU419     -0.2867
    142  CB       -17.5130   36.8000  -22.2600 C.3   419  GLU419      0.0388
    143  CG       -17.7040   37.8760  -23.3110 C.3   419  GLU419      0.1160
    144  CD       -16.4060   38.2830  -24.0080 C.2   419  GLU419      0.3649
    145  OE1      -16.2680   38.0870  -25.2390 O.co2 419  GLU419     -0.2457
    146  OE2      -15.5080   38.8090  -23.3100 O.co2 419  GLU419     -0.2457
    147  N        -13.2440   32.3340  -18.7030 N.3   448  LYS448     -0.1245
    148  CA       -11.7820   32.3870  -18.5700 C.3   448  LYS448      0.1561
    149  C        -11.3780   32.4170  -17.0970 C.2   448  LYS448      0.2260
    150  O        -12.1860   32.7640  -16.2500 O.2   448  LYS448     -0.2867
    151  CB       -11.2340   33.6660  -19.2090 C.3   448  LYS448      0.0271
    152  CG       -11.5470   33.9170  -20.6820 C.3   448  LYS448      0.0035
    153  CD       -11.2750   35.4000  -21.0020 C.3   448  LYS448      0.0206
    154  CE       -10.8850   35.6600  -22.4600 C.3   448  LYS448      0.1093
    155  NZ       -12.0480   35.5950  -23.3850 N.3   448  LYS448     -0.1314
@<TRIPOS>BOND
     1    46    47    2
     2    46    45    1
     3    52    53    1
     4    45    48    1
     5    45    44    1
     6    48    49    1
     7     1     2    1
     8    54    53    1
     9    54    55    2
    10    53    56    1
    11    50    49    2
    12    49    51   am
    13    56    57    1
    14     2     5    1
    15     2     3    1
    16    43    41   ar
    17    57    58    1
    18     5     6    1
    19     4     3    2
    20    10     9    1
    21    60    59    1
    22    58    59    1
    23    41    40    1
    24    41    42   ar
    25     9    11    1
    26     9     8    2
    27    40    39    1
    28     6     7    1
    29    71    70    2
    30     7     8    1
    31    70    69    1
    32    37    38    2
    33    37    36    1
    34    39    36    1
    35    36    35    1
    36    72    69    1
    37    72    73    1
    38    69    68    1
    39    19    17   ar
    40    12    13    1
    41    77    78    1
    42    84    82   am
    43    17    18   ar
    44    17    16    1
    45    35    30   am
    46    74    73    1
    47    74    75    1
    48    31    30    2
    49    30    29    1
    50    16    13    1
    51    76    75    1
    52    13    14    1
    53    82    83    2
    54    82    81    1
    55    78    81    1
    56    78    79    1
    57    15    14    2
    58    29    28    1
    59    29    32    1
    60    79    80    2
    61    34    32    1
    62   145   144   ar
    63   103   104    1
    64   103   102    1
    65    32    33    1
    66    97    98    1
    67   101   102    1
    68   101    98    1
    69    64    63    2
    70    98    99    1
    71   144   143    1
    72   144   146   ar
    73    63    62    1
    74    66    65    1
    75   155   154    1
    76   143   142    1
    77    99   100    2
    78    99   105   am
    79    65    62    1
    80    65    67    1
    81   141   140    2
    82   154   153    1
    83    96    95    1
    84    62    61    1
    85   142   139    1
    86   140   139    1
    87   105   106    1
    88    93    95   ar
    89    93    91   ar
    90    95    94   ar
    91    85    86    1
    92   139   138    1
    93    91    90   ar
    94    20    21    1
    95   153   152    1
    96   108   107    2
    97   152   151    1
    98    94    92   ar
    99   106   109    1
   100   106   107    1
   101   129   128    1
   102    90    92   ar
   103    90    89    1
   104    26    25    1
   105    26    27    1
   106    86    89    1
   107    86    87    1
   108    25    24    1
   109   109   110    1
   110   107   114   am
   111    21    24    1
   112    21    22    1
   113    88    87    2
   114   128   130    1
   115   128   127    1
   116   151   148    1
   117    23    22    2
   118   114   115    1
   119   112   111    2
   120   147   148    1
   121   110   111    1
   122   148   149    1
   123   115   116    1
   124   115   118    1
   125   111   113   am
   126   127   124    1
   127   123   116   am
   128   123   124    1
   129   116   117    2
   130   118   119    1
   131   119   120    1
   132   124   125    1
   133   149   150    2
   134   121   120    1
   135   121   122    1
   136   126   125    2
   137   135   136    1
   138   135   132    1
   139   136   137    1
   140   137   131    1
   141   132   131    1
   142   132   133    1
   143   133   134    2
