@<TRIPOS>MOLECULE
tmp/5oewB00.pdb
 75 72 0 0 0
SMALL
GASTEIGER

@<TRIPOS>ATOM
      1  N        110.5770   27.5980   70.8680 N.3    90  ILE90      -0.1245
      2  CA       111.2060   28.3830   71.9260 C.3    90  ILE90       0.1561
      3  C        110.9010   29.8560   71.6840 C.2    90  ILE90       0.2260
      4  O        111.2440   30.4100   70.6330 O.2    90  ILE90      -0.2867
      5  CB       112.7200   28.1300   71.9630 C.3    90  ILE90       0.0252
      6  CG1      113.0100   26.6480   72.2200 C.3    90  ILE90       0.0019
      7  CG2      113.3920   28.9960   73.0240 C.3    90  ILE90       0.0019
      8  CD1      114.4160   26.2220   71.8360 C.3    90  ILE90       0.0001
      9  N        117.6960   23.5400   71.4750 N.3   103  PRO103     -0.2102
     10  CA       116.8050   23.1260   70.3850 C.3   103  PRO103      0.1504
     11  C        117.2070   21.7820   69.7920 C.2   103  PRO103      0.2576
     12  O        118.3910   21.4760   69.6410 O.2   103  PRO103     -0.2718
     13  CB       116.9500   24.2580   69.3600 C.3   103  PRO103      0.0282
     14  CG       118.2530   24.9140   69.6930 C.3   103  PRO103      0.0208
     15  CD       118.3700   24.8130   71.1770 C.3   103  PRO103      0.0893
     16  N        116.1970   20.9740   69.4550 N.am  104  PHE104     -0.1963
     17  CA       116.4230   19.7130   68.7600 C.3   104  PHE104      0.1771
     18  C        116.0870   19.7910   67.2770 C.2   104  PHE104      0.2619
     19  O        116.3810   18.8420   66.5430 O.2   104  PHE104     -0.2715
     20  CB       115.6160   18.5730   69.4120 C.3   104  PHE104      0.0574
     21  CG       114.1200   18.7350   69.3170 C.ar  104  PHE104     -0.0200
     22  CD1      113.4320   18.3170   68.1900 C.ar  104  PHE104     -0.0042
     23  CD2      113.4010   19.2740   70.3690 C.ar  104  PHE104     -0.0042
     24  CE1      112.0560   18.4540   68.1050 C.ar  104  PHE104     -0.0003
     25  CE2      112.0240   19.4120   70.2910 C.ar  104  PHE104     -0.0003
     26  CZ       111.3530   19.0020   69.1570 C.ar  104  PHE104     -0.0000
     27  N        115.4910   20.8910   66.8220 N.am  105  MET105     -0.1963
     28  CA       115.2070   21.0740   65.4050 C.3   105  MET105      0.1736
     29  C        115.0910   22.5640   65.1190 C.2   105  MET105      0.2617
     30  O        114.5360   23.3140   65.9260 O.2   105  MET105     -0.2715
     31  CB       113.9180   20.3530   64.9940 C.3   105  MET105      0.0427
     32  CG       113.6830   20.3170   63.4900 C.3   105  MET105      0.0599
     33  SD       112.2000   19.3990   63.0270 S.3   105  MET105     -0.1393
     34  CE       112.6720   17.7320   63.4540 C.3   105  MET105      0.0692
     35  N        115.6280   22.9840   63.9780 N.am  106  SER106     -0.1950
     36  CA       115.5600   24.3730   63.5520 C.3   106  SER106      0.1924
     37  C        114.4160   24.5610   62.5650 C.2   106  SER106      0.2314
     38  O        114.0120   23.6280   61.8660 O.2   106  SER106     -0.2863
     39  CB       116.8760   24.8130   62.9090 C.3   106  SER106      0.2116
     40  OG       117.1220   24.0860   61.7190 O.3   106  SER106     -0.2180
     41  N        114.3110   32.8250   62.3080 N.3   215  SER215     -0.1202
     42  CA       115.1160   31.6470   62.6140 C.3   215  SER215      0.2020
     43  C        114.9440   31.3060   64.0860 C.2   215  SER215      0.2619
     44  O        115.2200   32.1400   64.9540 O.2   215  SER215     -0.2717
     45  CB       116.5930   31.8870   62.2880 C.3   215  SER215      0.2103
     46  OG       117.3760   30.7610   62.6440 O.3   215  SER215     -0.2182
     47  N        114.5000   30.0870   64.3660 N.am  216  LYS216     -0.1965
     48  CA       114.2690   29.6510   65.7370 C.3   216  LYS216      0.1728
     49  C        114.3040   28.1270   65.7620 C.2   216  LYS216      0.2616
     50  O        114.7110   27.4850   64.7870 O.2   216  LYS216     -0.2715
     51  CB       112.9540   30.2260   66.2730 C.3   216  LYS216      0.0311
     52  CG       111.7510   30.0170   65.3810 C.3   216  LYS216      0.0038
     53  CD       110.7230   31.1070   65.6340 C.3   216  LYS216      0.0206
     54  CE       109.4680   30.8990   64.8060 C.3   216  LYS216      0.1093
     55  NZ       108.4970   32.0060   65.0130 N.3   216  LYS216     -0.1314
     56  N        113.8870   27.5450   66.8840 N.am  217  GLY217     -0.1955
     57  CA       113.9700   26.1070   67.0500 C.3   217  GLY217      0.1869
     58  C        112.9150   25.5770   67.9950 C.2   217  GLY217      0.2309
     59  O        112.2910   26.3240   68.7580 O.2   217  GLY217     -0.2863
     60  N        121.8400   14.7940   69.1980 N.3   240  ASN240     -0.1240
     61  CA       122.2610   15.5590   68.0290 C.3   240  ASN240      0.1653
     62  C        123.6630   15.1550   67.5930 C.2   240  ASN240      0.2266
     63  O        123.9010   14.8640   66.4150 O.2   240  ASN240     -0.2867
     64  CB       122.2120   17.0570   68.3220 C.3   240  ASN240      0.1155
     65  CG       122.4780   17.8940   67.0840 C.2   240  ASN240      0.2627
     66  OD1      121.9840   17.5880   65.9990 O.2   240  ASN240     -0.2716
     67  ND2      123.2680   18.9480   67.2380 N.am  240  ASN240     -0.0877
     68  N        119.2440   12.7270   65.6010 N.3   245  LEU245     -0.1245
     69  CA       118.2210   13.6900   65.2060 C.3   245  LEU245      0.1561
     70  C        118.1760   13.8480   63.6910 C.2   245  LEU245      0.2260
     71  O        117.0930   13.9590   63.1040 O.2   245  LEU245     -0.2867
     72  CB       118.4690   15.0390   65.8810 C.3   245  LEU245      0.0270
     73  CG       118.4670   15.0690   67.4130 C.3   245  LEU245      0.0019
     74  CD1      118.6760   16.4950   67.9080 C.3   245  LEU245      0.0001
     75  CD2      117.1800   14.4890   67.9920 C.3   245  LEU245      0.0001
@<TRIPOS>BOND
     1    40    39    1
     2    38    37    2
     3    45    42    1
     4    45    46    1
     5    41    42    1
     6    37    36    1
     7    42    43    1
     8    39    36    1
     9    33    34    1
    10    33    32    1
    11    71    70    2
    12    32    31    1
    13    36    35    1
    14    70    69    1
    15    35    29   am
    16    43    47   am
    17    43    44    2
    18    47    48    1
    19    50    49    2
    20    54    55    1
    21    54    53    1
    22    31    28    1
    23    29    28    1
    24    29    30    2
    25    69    68    1
    26    69    72    1
    27    52    53    1
    28    52    51    1
    29    28    27    1
    30    48    49    1
    31    48    51    1
    32    49    56   am
    33    72    73    1
    34    66    65    2
    35    63    62    2
    36    19    18    2
    37    27    18   am
    38    56    57    1
    39    57    58    1
    40    65    67   am
    41    65    64    1
    42    18    17    1
    43    73    74    1
    44    73    75    1
    45    62    61    1
    46    58    59    2
    47    61    64    1
    48    61    60    1
    49    24    22   ar
    50    24    26   ar
    51    22    21   ar
    52    17    20    1
    53    17    16    1
    54    26    25   ar
    55    21    20    1
    56    21    23   ar
    57    13    14    1
    58    13    10    1
    59    16    11   am
    60    12    11    2
    61    14    15    1
    62    11    10    1
    63    25    23   ar
    64    10     9    1
    65     4     3    2
    66     1     2    1
    67    15     9    1
    68     3     2    1
    69     8     6    1
    70     2     5    1
    71     5     6    1
    72     5     7    1
