@<TRIPOS>MOLECULE
tmp/5of0A07.pdb
 179 170 0 0 0
SMALL
GASTEIGER

@<TRIPOS>ATOM
      1  N         21.7520   50.2920   36.1960 N.3   155  PHE155     -0.1227
      2  CA        20.5980   49.3890   36.1710 C.3   155  PHE155      0.1736
      3  C         20.2900   48.9290   34.7500 C.2   155  PHE155      0.2595
      4  O         20.2900   49.7180   33.7920 O.2   155  PHE155     -0.2718
      5  CB        19.4010   50.0980   36.8240 C.3   155  PHE155      0.0547
      6  CG        18.0850   49.3560   36.7140 C.ar  155  PHE155     -0.0202
      7  CD1       17.9090   48.1030   37.3130 C.ar  155  PHE155     -0.0042
      8  CD2       16.9850   49.9550   36.0670 C.ar  155  PHE155     -0.0042
      9  CE1       16.6990   47.4290   37.2030 C.ar  155  PHE155     -0.0003
     10  CE2       15.7720   49.2640   35.9640 C.ar  155  PHE155     -0.0003
     11  CZ        15.6410   48.0190   36.5280 C.ar  155  PHE155     -0.0000
     12  N         20.0290   47.6260   34.6040 N.am  156  ARG156     -0.1980
     13  CA        19.7810   47.0500   33.2550 C.3   156  ARG156      0.1597
     14  C         18.5790   47.6190   32.5270 C.2   156  ARG156      0.2287
     15  O         18.5590   47.6580   31.3150 O.2   156  ARG156     -0.2864
     16  CB        19.6730   45.5270   33.3420 C.3   156  ARG156      0.0334
     17  CG        18.4340   44.9950   34.0330 C.3   156  ARG156      0.0492
     18  CD        18.4340   43.4800   34.2200 C.3   156  ARG156      0.2205
     19  NE        19.2170   43.0650   35.3950 N.pl3 156  ARG156     -0.0865
     20  CZ        18.8210   43.2590   36.6490 C.cat 156  ARG156      0.5346
     21  NH1       17.6870   43.8900   36.9170 N.pl3 156  ARG156      0.1354
     22  NH2       19.5710   42.8520   37.6700 N.pl3 156  ARG156      0.1354
     23  N         14.7000   42.0620   36.0810 N.3   203  ASN203     -0.1240
     24  CA        13.7130   42.7620   35.2650 C.3   203  ASN203      0.1653
     25  C         14.3500   43.9320   34.5230 C.2   203  ASN203      0.2266
     26  O         15.3860   44.4670   34.9440 O.2   203  ASN203     -0.2867
     27  CB        12.5020   43.2320   36.0740 C.3   203  ASN203      0.1155
     28  CG        12.7360   44.5560   36.7920 C.2   203  ASN203      0.2627
     29  OD1       12.7270   45.6080   36.1490 O.2   203  ASN203     -0.2716
     30  ND2       12.8650   44.5250   38.1300 N.am  203  ASN203     -0.0877
     31  N         20.4910   37.4250   48.2350 N.3   333  ASP333     -0.1239
     32  CA        19.3890   38.3640   47.8190 C.3   333  ASP333      0.1674
     33  C         18.0760   37.6030   47.6850 C.2   333  ASP333      0.2266
     34  O         17.9070   36.9240   46.6740 O.2   333  ASP333     -0.2867
     35  CB        19.8090   38.9680   46.4940 C.3   333  ASP333      0.1410
     36  CG        18.8280   39.9210   45.9410 C.2   333  ASP333      0.3668
     37  OD1       17.9700   40.3340   46.7570 O.co2 333  ASP333     -0.2456
     38  OD2       18.9920   40.2610   44.7520 O.co2 333  ASP333     -0.2456
     39  N         11.5570   41.6950   42.9960 N.3   371  GLU371     -0.1245
     40  CA        12.4010   41.4450   41.8460 C.3   371  GLU371      0.1567
     41  C         11.7460   41.8300   40.5160 C.2   371  GLU371      0.2260
     42  O         12.4100   42.0070   39.5440 O.2   371  GLU371     -0.2867
     43  CB        12.8760   39.9950   41.7930 C.3   371  GLU371      0.0388
     44  CG        13.7960   39.5460   42.9540 C.3   371  GLU371      0.1160
     45  CD        15.1730   40.1990   42.9880 C.2   371  GLU371      0.3649
     46  OE1       15.4570   41.1780   42.2710 O.co2 371  GLU371     -0.2457
     47  OE2       16.0390   39.7820   43.8260 O.co2 371  GLU371     -0.2457
     48  N          9.9350   44.6300   40.1160 N.3   373  GLY373     -0.1210
     49  CA         9.7990   46.0740   40.0490 C.3   373  GLY373      0.1956
     50  C          9.2980   46.7120   41.3110 C.2   373  GLY373      0.2611
     51  O          8.6020   47.7450   41.2750 O.2   373  GLY373     -0.2717
     52  N          9.6990   46.2120   42.4840 N.am  374  LEU374     -0.1979
     53  CA         9.3240   46.7980   43.7610 C.3   374  LEU374      0.1596
     54  C          7.7810   46.7790   43.9090 C.2   374  LEU374      0.2287
     55  O          7.1670   47.6560   44.4980 O.2   374  LEU374     -0.2864
     56  CB         9.8910   48.2240   43.9110 C.3   374  LEU374      0.0297
     57  CG        11.2670   48.5120   43.3620 C.3   374  LEU374      0.0022
     58  CD1       11.6510   49.9370   43.5570 C.3   374  LEU374      0.0001
     59  CD2       12.2900   47.5810   44.0390 C.3   374  LEU374      0.0001
     60  N         16.9650   44.4550   52.6180 N.3   399  ASP399     -0.1225
     61  CA        17.3820   43.4930   51.6060 C.3   399  ASP399      0.1805
     62  C         18.7340   42.8990   52.0670 C.2   399  ASP399      0.2598
     63  O         19.0730   42.9660   53.2640 O.2   399  ASP399     -0.2718
     64  CB        17.3810   44.1080   50.1990 C.3   399  ASP399      0.1424
     65  CG        17.2880   43.1160   49.1280 C.2   399  ASP399      0.3668
     66  OD1       17.3980   41.8890   49.3990 O.co2 399  ASP399     -0.2456
     67  OD2       17.2320   43.5250   47.9360 O.co2 399  ASP399     -0.2456
     68  N         19.5160   42.3600   51.1330 N.am  400  SER400     -0.1952
     69  CA        20.6680   41.5250   51.4540 C.3   400  SER400      0.1924
     70  C         21.6320   42.1950   52.4220 C.2   400  SER400      0.2314
     71  O         22.0970   43.3140   52.1940 O.2   400  SER400     -0.2863
     72  CB        21.3840   41.0900   50.1750 C.3   400  SER400      0.2116
     73  OG        21.6910   42.1760   49.3090 O.3   400  SER400     -0.2180
     74  N         28.3170   49.6610   54.8430 N.3   409  ARG409     -0.1245
     75  CA        27.8110   50.5860   53.8040 C.3   409  ARG409      0.1563
     76  C         26.4760   51.1140   54.3160 C.2   409  ARG409      0.2260
     77  O         25.6140   50.3300   54.6990 O.2   409  ARG409     -0.2867
     78  CB        27.6300   49.8630   52.4690 C.3   409  ARG409      0.0307
     79  CG        27.1760   50.7330   51.3020 C.3   409  ARG409      0.0489
     80  CD        27.2210   49.9510   49.9910 C.3   409  ARG409      0.2205
     81  NE        27.2060   50.8360   48.8260 N.pl3 409  ARG409     -0.0865
     82  CZ        27.2800   50.4430   47.5560 C.cat 409  ARG409      0.5346
     83  NH1       27.3920   49.1450   47.2370 N.pl3 409  ARG409      0.1354
     84  NH2       27.2340   51.3600   46.5900 N.pl3 409  ARG409      0.1354
     85  N         23.4160   54.0280   53.2640 N.3   411  ASP411     -0.1239
     86  CA        22.8110   55.1040   52.4710 C.3   411  ASP411      0.1674
     87  C         21.5660   55.5600   53.2220 C.2   411  ASP411      0.2266
     88  O         20.7290   54.7300   53.6130 O.2   411  ASP411     -0.2867
     89  CB        22.3040   54.6550   51.0770 C.3   411  ASP411      0.1410
     90  CG        23.3670   54.0730   50.1530 C.2   411  ASP411      0.3668
     91  OD1       24.5610   53.9790   50.4950 O.co2 411  ASP411     -0.2456
     92  OD2       22.9720   53.6460   49.0170 O.co2 411  ASP411     -0.2456
     93  N         17.9540   54.1660   44.1090 N.3   463  SER463     -0.1202
     94  CA        16.7330   53.3480   44.0550 C.3   463  SER463      0.2020
     95  C         17.0590   51.9300   43.6710 C.2   463  SER463      0.2619
     96  O         18.2200   51.4650   43.8860 O.2   463  SER463     -0.2717
     97  CB        15.6760   53.9920   43.1620 C.3   463  SER463      0.2103
     98  OG        14.4980   53.2330   43.2990 O.3   463  SER463     -0.2182
     99  N         16.0920   51.1760   43.1270 N.am  464  GLY464     -0.1942
    100  CA        16.2480   49.7730   42.9200 C.3   464  GLY464      0.2014
    101  C         16.0500   48.9480   44.1920 C.2   464  GLY464      0.2638
    102  O         16.4790   47.8100   44.2730 O.2   464  GLY464     -0.2714
    103  N         15.3700   49.5060   45.2030 N.am  465  ASN465     -0.1972
    104  CA        14.9670   48.7250   46.3650 C.3   465  ASN465      0.1688
    105  C         13.7250   49.2890   46.9820 C.2   465  ASN465      0.2292
    106  O         13.2470   50.3570   46.5700 O.2   465  ASN465     -0.2864
    107  CB        16.1340   48.4970   47.3520 C.3   465  ASN465      0.1181
    108  CG        16.1510   47.0750   47.8500 C.2   465  ASN465      0.2629
    109  OD1       15.1810   46.6250   48.5230 O.2   465  ASN465     -0.2716
    110  ND2       17.1990   46.3240   47.4800 N.am  465  ASN465     -0.0877
    111  N         19.2050   52.5410   54.7940 N.3   480  ARG480     -0.1231
    112  CA        19.6090   51.1640   54.5590 C.3   480  ARG480      0.1694
    113  C         21.0620   50.9820   55.0120 C.2   480  ARG480      0.2592
    114  O         21.8370   51.9360   55.0300 O.2   480  ARG480     -0.2718
    115  CB        19.4480   50.7920   53.0860 C.3   480  ARG480      0.0321
    116  CG        20.4450   51.4530   52.1820 C.3   480  ARG480      0.0489
    117  CD        20.1080   51.3350   50.7020 C.3   480  ARG480      0.2205
    118  NE        19.9600   49.9500   50.2670 N.pl3 480  ARG480     -0.0865
    119  CZ        19.9180   49.5630   48.9950 C.cat 480  ARG480      0.5346
    120  NH1       19.9940   50.4330   47.9960 N.pl3 480  ARG480      0.1354
    121  NH2       19.7190   48.2840   48.7440 N.pl3 480  ARG480      0.1354
    122  N         21.3890   49.7430   55.3660 N.am  481  ALA481     -0.1966
    123  CA        22.7530   49.3980   55.7990 C.3   481  ALA481      0.1728
    124  C         23.0500   47.9410   55.4830 C.2   481  ALA481      0.2616
    125  O         22.1700   47.0740   55.6420 O.2   481  ALA481     -0.2715
    126  CB        22.9400   49.6690   57.2890 C.3   481  ALA481      0.0334
    127  N         24.2870   47.6910   55.0410 N.am  482  ARG482     -0.1977
    128  CA        24.7630   46.3230   54.8180 C.3   482  ARG482      0.1597
    129  C         26.2450   46.2610   54.8960 C.2   482  ARG482      0.2287
    130  O         26.9250   47.2660   54.8040 O.2   482  ARG482     -0.2864
    131  CB        24.2730   45.7900   53.4920 C.3   482  ARG482      0.0334
    132  CG        24.8100   46.4690   52.2450 C.3   482  ARG482      0.0492
    133  CD        24.5540   45.6510   50.9590 C.3   482  ARG482      0.2205
    134  NE        23.1030   45.4600   50.7470 N.pl3 482  ARG482     -0.0865
    135  CZ        22.4700   45.3930   49.5750 C.cat 482  ARG482      0.5346
    136  NH1       23.1050   45.4750   48.4170 N.pl3 482  ARG482      0.1354
    137  NH2       21.1480   45.2670   49.5640 N.pl3 482  ARG482      0.1354
    138  N         27.9210   49.8570   41.7500 N.3   488  PHE488     -0.1241
    139  CA        26.5710   49.4220   41.3560 C.3   488  PHE488      0.1605
    140  C         26.5550   48.0590   40.6520 C.2   488  PHE488      0.2264
    141  O         25.4900   47.4240   40.5750 O.2   488  PHE488     -0.2867
    142  CB        25.8850   50.4810   40.4750 C.3   488  PHE488      0.0534
    143  CG        25.7940   51.8380   41.1210 C.ar  488  PHE488     -0.0203
    144  CD1       24.9960   52.0330   42.2450 C.ar  488  PHE488     -0.0042
    145  CD2       26.5250   52.9210   40.6290 C.ar  488  PHE488     -0.0042
    146  CE1       24.9040   53.2730   42.8520 C.ar  488  PHE488     -0.0003
    147  CE2       26.4380   54.1650   41.2290 C.ar  488  PHE488     -0.0003
    148  CZ        25.6320   54.3380   42.3520 C.ar  488  PHE488     -0.0000
    149  N         21.9220   37.2920   41.3670 N.3   495  HIS495     -0.1241
    150  CA        20.7620   36.8610   40.5800 C.3   495  HIS495      0.1621
    151  C         21.0190   35.6290   39.7350 C.2   495  HIS495      0.2264
    152  O         20.3190   35.3660   38.7610 O.2   495  HIS495     -0.2867
    153  CB        20.2470   38.0210   39.7280 C.3   495  HIS495      0.0745
    154  CG        19.5320   39.1130   40.4860 C.ar  495  HIS495      0.0817
    155  ND1       18.8890   40.1320   39.8080 N.ar  495  HIS495     -0.2268
    156  CD2       19.3210   39.3370   41.8040 C.ar  495  HIS495      0.1154
    157  CE1       18.2830   40.9180   40.6840 C.ar  495  HIS495      0.1986
    158  NE2       18.5050   40.4560   41.9120 N.ar  495  HIS495     -0.2212
    159  N         18.9610   53.9640   37.5610 N.3   641  LYS641     -0.1231
    160  CA        18.0320   53.8820   38.6880 C.3   641  LYS641      0.1693
    161  C         18.7110   53.5910   40.0150 C.2   641  LYS641      0.2592
    162  O         18.2080   53.9800   41.0660 O.2   641  LYS641     -0.2718
    163  CB        17.0240   52.7670   38.3850 C.3   641  LYS641      0.0285
    164  CG        15.8480   52.6880   39.3560 C.3   641  LYS641      0.0035
    165  CD        14.8650   51.6270   38.9550 C.3   641  LYS641      0.0206
    166  CE        13.5750   51.7920   39.7650 C.3   641  LYS641      0.1093
    167  NZ        12.6500   50.6790   39.4800 N.3   641  LYS641     -0.1314
    168  N         19.8430   52.8860   40.0100 N.am  642  TYR642     -0.1976
    169  CA        20.4980   52.5940   41.2840 C.3   642  TYR642      0.1639
    170  C         21.1250   53.7760   41.9520 C.2   642  TYR642      0.2290
    171  O         21.2850   53.7610   43.1710 O.2   642  TYR642     -0.2864
    172  CB        21.6180   51.5890   41.0560 C.3   642  TYR642      0.0560
    173  CG        21.2050   50.2100   40.5790 C.ar  642  TYR642     -0.0198
    174  CD1       20.0490   49.5880   41.0390 C.ar  642  TYR642     -0.0009
    175  CD2       22.0320   49.4800   39.7260 C.ar  642  TYR642     -0.0009
    176  CE1       19.7170   48.2890   40.6500 C.ar  642  TYR642      0.0417
    177  CE2       21.6990   48.1930   39.3280 C.ar  642  TYR642      0.0417
    178  CZ        20.5580   47.5870   39.8010 C.ar  642  TYR642      0.1957
    179  OH        20.2520   46.2980   39.4020 O.3   642  TYR642     -0.2866
@<TRIPOS>BOND
     1    15    14    2
     2    14    13    1
     3    13    16    1
     4    13    12    1
     5    16    17    1
     6     4     3    2
     7    17    18    1
     8    18    19    1
     9    25    26    2
    10    25    24    1
    11    12     3   am
    12     3     2    1
    13    24    27    1
    14    24    23    1
    15    19    20    2
    16    10     8   ar
    17    10    11   ar
    18     8     6   ar
    19    27    28    1
    20    29    28    2
    21     2     1    1
    22     2     5    1
    23    11     9   ar
    24    20    21    1
    25    20    22    1
    26     6     5    1
    27     6     7   ar
    28    28    30   am
    29     9     7   ar
    30   159   160    1
    31   163   160    1
    32   163   164    1
    33   160   161    1
    34   152   151    2
    35   165   164    1
    36   165   166    1
    37   177   175   ar
    38   177   178   ar
    39   179   178    1
    40   167   166    1
    41    42    41    2
    42   175   173   ar
    43   153   154    1
    44   153   150    1
    45   151   150    1
    46   178   176   ar
    47   155   154   ar
    48   155   157   ar
    49   168   161   am
    50   168   169    1
    51   161   162    2
    52    49    48    1
    53    49    50    1
    54   142   143    1
    55   142   139    1
    56   154   156   ar
    57    41    40    1
    58   141   140    2
    59   173   174   ar
    60   173   172    1
    61   150   149    1
    62   145   143   ar
    63   145   147   ar
    64   176   174   ar
    65   140   139    1
    66   157   158   ar
    67   172   169    1
    68   143   144   ar
    69   147   148   ar
    70    51    50    2
    71   169   170    1
    72    50    52   am
    73   139   138    1
    74    43    40    1
    75    43    44    1
    76   156   158   ar
    77    40    39    1
    78   170   171    2
    79   144   146   ar
    80    46    45   ar
    81   148   146   ar
    82    52    53    1
    83   100    99    1
    84   100   101    1
    85    44    45    1
    86    45    47   ar
    87    99    95   am
    88    97    98    1
    89    97    94    1
    90    57    58    1
    91    57    56    1
    92    57    59    1
    93    95    96    2
    94    95    94    1
    95    53    54    1
    96    53    56    1
    97    54    55    2
    98    94    93    1
    99   101   102    2
   100   101   103   am
   101    38    36   ar
   102   103   104    1
   103    36    35    1
   104    36    37   ar
   105   104   105    1
   106   104   107    1
   107    35    32    1
   108   106   105    2
   109    84    82    1
   110    34    33    2
   111    83    82    1
   112   107   108    1
   113   110   108   am
   114    82    81    2
   115    33    32    1
   116    32    31    1
   117   108   109    2
   118    67    65   ar
   119   120   119    1
   120   136   135    1
   121   121   119    1
   122    81    80    1
   123   119   118    2
   124    92    90   ar
   125    65    66   ar
   126    65    64    1
   127    73    72    1
   128   137   135    1
   129   135   134    2
   130    80    79    1
   131    90    91   ar
   132    90    89    1
   133    72    69    1
   134    64    61    1
   135   118   117    1
   136   117   116    1
   137   134   133    1
   138   133   132    1
   139    89    86    1
   140    68    69    1
   141    68    62   am
   142    79    78    1
   143    69    70    1
   144    61    62    1
   145    61    60    1
   146    62    63    2
   147   116   115    1
   148    71    70    2
   149   132   131    1
   150    78    75    1
   151    86    87    1
   152    86    85    1
   153   115   112    1
   154    87    88    2
   155   131   128    1
   156    75    76    1
   157    75    74    1
   158    76    77    2
   159   112   111    1
   160   112   113    1
   161   130   129    2
   162   128   129    1
   163   128   127    1
   164   113   114    2
   165   113   122   am
   166   127   124   am
   167   122   123    1
   168   124   125    2
   169   124   123    1
   170   123   126    1
