@<TRIPOS>MOLECULE
tmp/5of1A00.pdb
 89 85 0 0 0
SMALL
GASTEIGER

@<TRIPOS>ATOM
      1  N         64.0430   23.0850   48.6160 N.3     7  ASP7       -0.1239
      2  CA        62.5920   23.3110   48.4540 C.3     7  ASP7        0.1674
      3  C         62.2320   24.8060   48.3940 C.2     7  ASP7        0.2266
      4  O         61.2120   25.1650   47.7990 O.2     7  ASP7       -0.2867
      5  CB        61.7450   22.5660   49.5160 C.3     7  ASP7        0.1410
      6  CG        62.3250   22.6510   50.9170 C.2     7  ASP7        0.3668
      7  OD1       63.2510   21.8630   51.2150 O.co2   7  ASP7       -0.2456
      8  OD2       61.8530   23.4910   51.7160 O.co2   7  ASP7       -0.2456
      9  N         56.0310   18.3250   39.0330 N.3    24  ALA24      -0.1231
     10  CA        56.5940   19.1510   40.0710 C.3    24  ALA24       0.1694
     11  C         55.9230   18.7020   41.3330 C.2    24  ALA24       0.2593
     12  O         54.7100   18.6690   41.3820 O.2    24  ALA24      -0.2718
     13  CB        56.3400   20.6230   39.8220 C.3    24  ALA24       0.0304
     14  N         56.7120   18.3050   42.3260 N.am   25  SER25      -0.1938
     15  CA        56.1280   17.8800   43.5740 C.3    25  SER25       0.2055
     16  C         56.4050   18.9060   44.6570 C.2    25  SER25       0.2642
     17  O         57.4170   19.6310   44.6390 O.2    25  SER25      -0.2714
     18  CB        56.6450   16.5130   43.9430 C.3    25  SER25       0.2130
     19  OG        58.0300   16.6140   44.1780 O.3    25  SER25      -0.2179
     20  N         55.4890   18.9770   45.6080 N.am   26  VAL26      -0.1977
     21  CA        55.6660   19.9100   46.6900 C.3    26  VAL26       0.1596
     22  C         54.9860   19.3870   47.9380 C.2    26  VAL26       0.2287
     23  O         53.9570   18.7670   47.8760 O.2    26  VAL26      -0.2864
     24  CB        55.1950   21.3200   46.3290 C.3    26  VAL26       0.0276
     25  CG1       53.6860   21.3570   46.1520 C.3    26  VAL26       0.0022
     26  CG2       55.6600   22.3310   47.3660 C.3    26  VAL26       0.0022
     27  N         53.2800   29.6570   48.9040 N.3    37  LEU37      -0.1231
     28  CA        54.4220   28.9740   48.3030 C.3    37  LEU37       0.1693
     29  C         54.3740   29.3760   46.8330 C.2    37  LEU37       0.2593
     30  O         53.3130   29.2800   46.2170 O.2    37  LEU37      -0.2718
     31  CB        54.3030   27.4550   48.4240 C.3    37  LEU37       0.0284
     32  CG        54.7650   26.7890   49.7310 C.3    37  LEU37       0.0019
     33  CD1       54.5980   25.2810   49.6140 C.3    37  LEU37       0.0001
     34  CD2       56.2180   27.1520   50.0710 C.3    37  LEU37       0.0001
     35  N         55.4820   29.8780   46.2950 N.am   38  THR38      -0.1939
     36  CA        55.5160   30.3760   44.9070 C.3    38  THR38       0.2028
     37  C         56.5360   29.5720   44.1080 C.2    38  THR38       0.2642
     38  O         57.5010   29.0150   44.6560 O.2    38  THR38      -0.2714
     39  CB        55.7960   31.9090   44.8300 C.3    38  THR38       0.1808
     40  OG1       54.9120   32.6220   45.7060 O.3    38  THR38      -0.2208
     41  CG2       55.5680   32.4480   43.4370 C.3    38  THR38       0.0379
     42  N         56.3070   29.4160   42.8180 N.am   39  LYS39      -0.1977
     43  CA        57.2870   28.7460   41.9280 C.3    39  LYS39       0.1596
     44  C         57.0690   29.1520   40.4930 C.2    39  LYS39       0.2287
     45  O         55.9330   29.1560   40.0170 O.2    39  LYS39      -0.2864
     46  CB        57.2040   27.2090   41.9980 C.3    39  LYS39       0.0298
     47  CG        58.3540   26.4430   41.3070 C.3    39  LYS39       0.0038
     48  CD        59.4110   25.9120   42.2740 C.3    39  LYS39       0.0206
     49  CE        60.5990   25.2530   41.5530 C.3    39  LYS39       0.1093
     50  NZ        61.8600   26.0640   41.5200 N.3    39  LYS39      -0.1314
     51  N         58.0370   28.4100   36.3800 N.3    41  PHE41      -0.1241
     52  CA        58.3420   27.2870   35.4780 C.3    41  PHE41       0.1605
     53  C         58.5850   27.8070   34.0730 C.2    41  PHE41       0.2264
     54  O         57.8410   28.6760   33.5880 O.2    41  PHE41      -0.2867
     55  CB        57.1810   26.2980   35.3950 C.3    41  PHE41       0.0534
     56  CG        56.8790   25.6150   36.6700 C.ar   41  PHE41      -0.0203
     57  CD1       57.5460   24.4420   37.0040 C.ar   41  PHE41      -0.0042
     58  CD2       55.9330   26.1230   37.5450 C.ar   41  PHE41      -0.0042
     59  CE1       57.2920   23.7860   38.1950 C.ar   41  PHE41      -0.0003
     60  CE2       55.6760   25.4550   38.7510 C.ar   41  PHE41      -0.0003
     61  CZ        56.3430   24.2890   39.0590 C.ar   41  PHE41      -0.0000
     62  N         51.1920   30.1380   42.5330 N.3   158  GLU158     -0.1231
     63  CA        51.2150   30.4860   43.9350 C.3   158  GLU158      0.1699
     64  C         50.1820   29.5960   44.5860 C.2   158  GLU158      0.2592
     65  O         49.0190   29.5260   44.1160 O.2   158  GLU158     -0.2718
     66  CB        50.8700   31.9260   44.1400 C.3   158  GLU158      0.0402
     67  CG        50.7400   32.3760   45.5870 C.3   158  GLU158      0.1161
     68  CD        50.5470   33.8770   45.6400 C.2   158  GLU158      0.3649
     69  OE1       51.4710   34.6250   45.2170 O.co2 158  GLU158     -0.2457
     70  OE2       49.4530   34.3020   46.0720 O.co2 158  GLU158     -0.2457
     71  N         50.5960   28.8780   45.6200 N.am  159  ILE159     -0.1980
     72  CA        49.6870   28.0880   46.4320 C.3   159  ILE159      0.1595
     73  C         49.5600   28.8380   47.7230 C.2   159  ILE159      0.2287
     74  O         50.6090   29.2580   48.2970 O.2   159  ILE159     -0.2864
     75  CB        50.2610   26.7000   46.7430 C.3   159  ILE159      0.0276
     76  CG1       50.3780   25.8930   45.4540 C.3   159  ILE159      0.0022
     77  CG2       49.3960   25.9570   47.7670 C.3   159  ILE159      0.0022
     78  CD1       51.3690   24.7640   45.4810 C.3   159  ILE159      0.0001
     79  N         52.1120   18.2290   40.5720 N.3   186  PHE186     -0.1241
     80  CA        51.5540   18.8810   39.3710 C.3   186  PHE186      0.1605
     81  C         52.2250   18.2840   38.1410 C.2   186  PHE186      0.2264
     82  O         53.4590   18.4260   38.0250 O.2   186  PHE186     -0.2867
     83  CB        51.8040   20.3670   39.3510 C.3   186  PHE186      0.0534
     84  CG        51.0800   21.1070   40.4190 C.ar  186  PHE186     -0.0203
     85  CD1       49.7690   21.5350   40.2230 C.ar  186  PHE186     -0.0042
     86  CD2       51.6980   21.3260   41.6490 C.ar  186  PHE186     -0.0042
     87  CE1       49.0750   22.1800   41.2420 C.ar  186  PHE186     -0.0003
     88  CE2       51.0260   21.9970   42.6650 C.ar  186  PHE186     -0.0003
     89  CZ        49.7120   22.4150   42.4510 C.ar  186  PHE186     -0.0000
@<TRIPOS>BOND
     1    54    53    2
     2    53    52    1
     3    55    52    1
     4    55    56    1
     5    52    51    1
     6    56    57   ar
     7    56    58   ar
     8    57    59   ar
     9    58    60   ar
    10    82    81    2
    11    81    80    1
    12    59    61   ar
    13    60    61   ar
    14     9    10    1
    15    83    80    1
    16    83    84    1
    17    80    79    1
    18    13    10    1
    19    45    44    2
    20    10    11    1
    21    85    84   ar
    22    85    87   ar
    23    84    86   ar
    24    44    43    1
    25    87    89   ar
    26    47    46    1
    27    47    48    1
    28    11    12    2
    29    11    14   am
    30    50    49    1
    31    49    48    1
    32    86    88   ar
    33    43    46    1
    34    43    42    1
    35    14    15    1
    36    89    88   ar
    37    62    63    1
    38    42    37   am
    39    41    39    1
    40    15    18    1
    41    15    16    1
    42    63    66    1
    43    63    64    1
    44    18    19    1
    45    37    38    2
    46    37    36    1
    47    65    64    2
    48    66    67    1
    49    64    71   am
    50    17    16    2
    51    16    20   am
    52    39    36    1
    53    39    40    1
    54    36    35    1
    55    69    68   ar
    56    76    78    1
    57    76    75    1
    58    67    68    1
    59    20    21    1
    60    71    72    1
    61    68    70   ar
    62    25    24    1
    63    30    29    2
    64    35    29   am
    65    24    21    1
    66    24    26    1
    67    72    75    1
    68    72    73    1
    69    21    22    1
    70    75    77    1
    71    29    28    1
    72    73    74    2
    73     4     3    2
    74    23    22    2
    75    28    31    1
    76    28    27    1
    77     3     2    1
    78    31    32    1
    79     2     1    1
    80     2     5    1
    81     5     6    1
    82    33    32    1
    83    32    34    1
    84     6     7   ar
    85     6     8   ar
