@<TRIPOS>MOLECULE
tmp/5of3A00.pdb
 165 158 0 0 0
SMALL
GASTEIGER

@<TRIPOS>ATOM
      1  N         38.9350   31.1590   -7.4530 N.3    38  TYR38      -0.1241
      2  CA        38.8970   30.1510   -6.4030 C.3    38  TYR38       0.1605
      3  C         39.3540   30.7040   -5.0610 C.2    38  TYR38       0.2264
      4  O         40.1620   31.6320   -4.9780 O.2    38  TYR38      -0.2867
      5  CB        39.7760   28.9460   -6.7460 C.3    38  TYR38       0.0534
      6  CG        39.3640   28.1570   -7.9620 C.ar   38  TYR38      -0.0201
      7  CD1       40.2290   27.2340   -8.5330 C.ar   38  TYR38      -0.0009
      8  CD2       38.0940   28.2850   -8.5010 C.ar   38  TYR38      -0.0009
      9  CE1       39.8520   26.4910   -9.6290 C.ar   38  TYR38       0.0417
     10  CE2       37.7100   27.5480   -9.6020 C.ar   38  TYR38       0.0417
     11  CZ        38.5890   26.6520  -10.1600 C.ar   38  TYR38       0.1957
     12  OH        38.2000   25.9160  -11.2550 O.3    38  TYR38      -0.2866
     13  N         37.3510   21.0360   -4.3750 N.3    64  PHE64      -0.1241
     14  CA        38.5580   20.2980   -4.7110 C.3    64  PHE64       0.1605
     15  C         39.4070   20.0910   -3.4650 C.2    64  PHE64       0.2264
     16  O         39.3210   20.8460   -2.4940 O.2    64  PHE64      -0.2867
     17  CB        39.4000   21.0280   -5.7670 C.3    64  PHE64       0.0534
     18  CG        38.6270   21.4590   -6.9760 C.ar   64  PHE64      -0.0203
     19  CD1       38.5150   20.6280   -8.0780 C.ar   64  PHE64      -0.0042
     20  CD2       38.0210   22.7030   -7.0160 C.ar   64  PHE64      -0.0042
     21  CE1       37.8060   21.0280   -9.1940 C.ar   64  PHE64      -0.0003
     22  CE2       37.3130   23.1080   -8.1270 C.ar   64  PHE64      -0.0003
     23  CZ        37.2040   22.2700   -9.2180 C.ar   64  PHE64      -0.0000
     24  N         47.1350   10.6630  -10.9800 N.3    89  LEU89      -0.1231
     25  CA        45.8250   11.0290  -11.4910 C.3    89  LEU89       0.1693
     26  C         45.7650   10.8910  -13.0030 C.2    89  LEU89       0.2592
     27  O         46.7510   11.1200  -13.7090 O.2    89  LEU89      -0.2718
     28  CB        45.4650   12.4700  -11.1300 C.3    89  LEU89       0.0284
     29  CG        45.5410   12.9110   -9.6760 C.3    89  LEU89       0.0019
     30  CD1       44.9190   14.2860   -9.5770 C.3    89  LEU89       0.0001
     31  CD2       44.8310   11.9160   -8.7750 C.3    89  LEU89       0.0001
     32  N         44.5820   10.5270  -13.4890 N.am   90  PHE90      -0.1962
     33  CA        44.2770   10.5670  -14.9070 C.3    90  PHE90       0.1771
     34  C         42.8840   11.1500  -15.0790 C.2    90  PHE90       0.2619
     35  O         42.0050   10.9570  -14.2350 O.2    90  PHE90      -0.2715
     36  CB        44.3660    9.1800  -15.5470 C.3    90  PHE90       0.0574
     37  CG        45.7010    8.5150  -15.3680 C.ar   90  PHE90      -0.0200
     38  CD1       45.9580    7.7400  -14.2500 C.ar   90  PHE90      -0.0042
     39  CD2       46.7010    8.6720  -16.3120 C.ar   90  PHE90      -0.0042
     40  CE1       47.1840    7.1290  -14.0790 C.ar   90  PHE90      -0.0003
     41  CE2       47.9300    8.0630  -16.1470 C.ar   90  PHE90      -0.0003
     42  CZ        48.1710    7.2910  -15.0280 C.ar   90  PHE90      -0.0000
     43  N         42.6900   11.8610  -16.1850 N.am   91  ASP91      -0.1971
     44  CA        41.4280   12.5320  -16.4710 C.3    91  ASP91       0.1709
     45  C         41.1030   12.3340  -17.9410 C.2    91  ASP91       0.2293
     46  O         41.8560   12.7800  -18.8110 O.2    91  ASP91      -0.2864
     47  CB        41.5030   14.0230  -16.1280 C.3    91  ASP91       0.1436
     48  CG        40.4400   14.8410  -16.8350 C.2    91  ASP91       0.3671
     49  OD1       39.2370   14.6330  -16.5680 O.co2  91  ASP91      -0.2456
     50  OD2       40.8160   15.6980  -17.6590 O.co2  91  ASP91      -0.2456
     51  N         38.7180   13.3130  -20.7660 N.3    93  ASP93      -0.1239
     52  CA        37.7420   14.2910  -21.2230 C.3    93  ASP93       0.1674
     53  C         37.2350   13.9040  -22.6020 C.2    93  ASP93       0.2266
     54  O         38.0250   13.5740  -23.4930 O.2    93  ASP93      -0.2867
     55  CB        38.3370   15.7000  -21.2670 C.3    93  ASP93       0.1410
     56  CG        38.4940   16.3120  -19.8930 C.2    93  ASP93       0.3668
     57  OD1       37.5840   16.1310  -19.0570 O.co2  93  ASP93      -0.2456
     58  OD2       39.5150   16.9900  -19.6570 O.co2  93  ASP93      -0.2456
     59  N         33.3220   12.1080  -13.4430 N.3   163  SER163     -0.1217
     60  CA        33.8040   13.4650  -13.2110 C.3   163  SER163      0.1889
     61  C         32.6970   14.4120  -12.7780 C.2   163  SER163      0.2288
     62  O         32.9970   15.5080  -12.2890 O.2   163  SER163     -0.2866
     63  CB        34.4740   14.0130  -14.4730 C.3   163  SER163      0.2089
     64  OG        33.5090   14.3880  -15.4410 O.3   163  SER163     -0.2183
     65  N         30.3430   15.4540  -15.0220 N.3   165  ASN165     -0.1225
     66  CA        29.9160   16.2420  -16.1710 C.3   165  ASN165      0.1785
     67  C         30.1540   15.5350  -17.5020 C.2   165  ASN165      0.2597
     68  O         29.1990   15.0860  -18.1430 O.2   165  ASN165     -0.2718
     69  CB        30.6260   17.5970  -16.1580 C.3   165  ASN165      0.1169
     70  CG        30.0150   18.5830  -17.1280 C.2   165  ASN165      0.2627
     71  OD1       28.8260   18.5110  -17.4370 O.2   165  ASN165     -0.2716
     72  ND2       30.8250   19.5190  -17.6080 N.am  165  ASN165     -0.0877
     73  N         31.4170   15.4210  -17.9340 N.am  166  ARG166     -0.1979
     74  CA        31.7060   14.9920  -19.3000 C.3   166  ARG166      0.1597
     75  C         32.6900   13.8300  -19.3740 C.2   166  ARG166      0.2287
     76  O         33.2300   13.5610  -20.4520 O.2   166  ARG166     -0.2864
     77  CB        32.2650   16.1500  -20.1290 C.3   166  ARG166      0.0334
     78  CG        31.4850   17.4420  -20.0700 C.3   166  ARG166      0.0492
     79  CD        32.3160   18.5310  -20.7110 C.3   166  ARG166      0.2205
     80  NE        33.6630   18.5510  -20.1470 N.pl3 166  ARG166     -0.0865
     81  CZ        34.7670   18.7740  -20.8510 C.cat 166  ARG166      0.5346
     82  NH1       34.6920   18.9900  -22.1580 N.pl3 166  ARG166      0.1354
     83  NH2       35.9490   18.7710  -20.2510 N.pl3 166  ARG166      0.1354
     84  N         37.3680   10.2240  -13.9940 N.3   169  HIS169     -0.1241
     85  CA        38.6560   10.4120  -13.3450 C.3   169  HIS169      0.1621
     86  C         39.1780    9.0650  -12.8720 C.2   169  HIS169      0.2264
     87  O         38.4290    8.2730  -12.2930 O.2   169  HIS169     -0.2867
     88  CB        38.5410   11.3680  -12.1550 C.3   169  HIS169      0.0745
     89  CG        38.1050   12.7510  -12.5220 C.ar  169  HIS169      0.0817
     90  ND1       37.7090   13.6770  -11.5820 N.ar  169  HIS169     -0.2268
     91  CD2       38.0100   13.3690  -13.7230 C.ar  169  HIS169      0.1154
     92  CE1       37.3840   14.8050  -12.1880 C.ar  169  HIS169      0.1986
     93  NE2       37.5580   14.6450  -13.4870 N.ar  169  HIS169     -0.2212
     94  N         44.0490   13.5710  -20.5290 N.3   225  ASP225     -0.1239
     95  CA        44.5400   14.9450  -20.4450 C.3   225  ASP225      0.1674
     96  C         45.8850   14.9010  -19.7320 C.2   225  ASP225      0.2266
     97  O         45.9500   14.7380  -18.5110 O.2   225  ASP225     -0.2867
     98  CB        43.5400   15.8400  -19.7220 C.3   225  ASP225      0.1410
     99  CG        43.9500   17.3030  -19.7360 C.2   225  ASP225      0.3668
    100  OD1       44.9360   17.6440  -20.4230 O.co2 225  ASP225     -0.2456
    101  OD2       43.2810   18.1140  -19.0620 O.co2 225  ASP225     -0.2456
    102  N         46.9230   16.8870  -16.5590 N.3   228  VAL228     -0.1245
    103  CA        46.3760   16.4290  -15.2860 C.3   228  VAL228      0.1561
    104  C         47.3210   15.4350  -14.6240 C.2   228  VAL228      0.2260
    105  O         47.5370   15.4760  -13.4070 O.2   228  VAL228     -0.2867
    106  CB        44.9780   15.8230  -15.5000 C.3   228  VAL228      0.0252
    107  CG1       44.4020   15.3210  -14.1840 C.3   228  VAL228      0.0019
    108  CG2       44.0560   16.8400  -16.1500 C.3   228  VAL228      0.0019
    109  N         48.0830   18.8580   -8.5700 N.3   234  ARG234     -0.1231
    110  CA        46.7560   19.0050   -9.1490 C.3   234  ARG234      0.1694
    111  C         45.6840   19.0330   -8.0640 C.2   234  ARG234      0.2592
    112  O         45.8590   18.5090   -6.9610 O.2   234  ARG234     -0.2718
    113  CB        46.4600   17.8640  -10.1230 C.3   234  ARG234      0.0321
    114  CG        46.7250   18.1920  -11.5740 C.3   234  ARG234      0.0489
    115  CD        45.5750   18.9820  -12.1760 C.3   234  ARG234      0.2205
    116  NE        45.8900   19.4620  -13.5180 N.pl3 234  ARG234     -0.0865
    117  CZ        45.0150   20.0460  -14.3280 C.cat 234  ARG234      0.5346
    118  NH1       45.3930   20.4530  -15.5320 N.pl3 234  ARG234      0.1354
    119  NH2       43.7590   20.2180  -13.9390 N.pl3 234  ARG234      0.1354
    120  N         44.5530   19.6460   -8.4050 N.am  235  LEU235     -0.1966
    121  CA        43.3780   19.6830   -7.5430 C.3   235  LEU235      0.1728
    122  C         42.4180   18.5770   -7.9640 C.2   235  LEU235      0.2616
    123  O         41.9720   18.5430   -9.1150 O.2   235  LEU235     -0.2715
    124  CB        42.6940   21.0480   -7.6040 C.3   235  LEU235      0.0311
    125  CG        43.4700   22.2240   -7.0080 C.3   235  LEU235      0.0022
    126  CD1       42.5970   23.4680   -6.9600 C.3   235  LEU235      0.0001
    127  CD2       43.9980   21.8800   -5.6240 C.3   235  LEU235      0.0001
    128  N         42.1090   17.6790   -7.0350 N.am  236  ILE236     -0.1963
    129  CA        41.1580   16.5970   -7.2710 C.3   236  ILE236      0.1727
    130  C         39.7610   17.0920   -6.9230 C.2   236  ILE236      0.2616
    131  O         39.5110   17.5100   -5.7880 O.2   236  ILE236     -0.2715
    132  CB        41.5080   15.3580   -6.4340 C.3   236  ILE236      0.0290
    133  CG1       42.8550   14.7760   -6.8480 C.3   236  ILE236      0.0022
    134  CG2       40.4140   14.3080   -6.5520 C.3   236  ILE236      0.0023
    135  CD1       43.3190   13.6370   -5.9650 C.3   236  ILE236      0.0001
    136  N         38.8460   17.0380   -7.8890 N.am  237  ARG237     -0.1977
    137  CA        37.4420   17.2630   -7.5730 C.3   237  ARG237      0.1597
    138  C         36.9700   16.1880   -6.6010 C.2   237  ARG237      0.2287
    139  O         37.1040   14.9900   -6.8680 O.2   237  ARG237     -0.2864
    140  CB        36.5980   17.2510   -8.8480 C.3   237  ARG237      0.0334
    141  CG        35.1760   17.7370   -8.6510 C.3   237  ARG237      0.0492
    142  CD        34.4220   17.7960   -9.9690 C.3   237  ARG237      0.2205
    143  NE        34.8900   18.8680  -10.8380 N.pl3 237  ARG237     -0.0865
    144  CZ        34.4250   20.1110  -10.7950 C.cat 237  ARG237      0.5346
    145  NH1       33.4840   20.4330   -9.9190 N.pl3 237  ARG237      0.1354
    146  NH2       34.9000   21.0310  -11.6220 N.pl3 237  ARG237      0.1354
    147  N         29.1010   18.8150   -9.0410 N.3   243  HIS243     -0.1241
    148  CA        29.7220   19.5120  -10.1580 C.3   243  HIS243      0.1621
    149  C         28.8720   20.7280  -10.5080 C.2   243  HIS243      0.2264
    150  O         27.6990   20.5890  -10.8710 O.2   243  HIS243     -0.2867
    151  CB        29.8620   18.5730  -11.3550 C.3   243  HIS243      0.0745
    152  CG        30.8430   19.0440  -12.3830 C.ar  243  HIS243      0.0817
    153  ND1       30.6110   20.1390  -13.1880 N.ar  243  HIS243     -0.2268
    154  CD2       32.0530   18.5590  -12.7480 C.ar  243  HIS243      0.1154
    155  CE1       31.6410   20.3140  -13.9960 C.ar  243  HIS243      0.1986
    156  NE2       32.5290   19.3680  -13.7510 N.ar  243  HIS243     -0.2212
    157  N         28.5410   22.5550  -12.9460 N.3   245  LYS245     -0.1245
    158  CA        28.0650   22.7010  -14.3140 C.3   245  LYS245      0.1561
    159  C         26.9340   21.7410  -14.6490 C.2   245  LYS245      0.2260
    160  O         26.4780   21.7170  -15.7960 O.2   245  LYS245     -0.2867
    161  CB        29.2210   22.5010  -15.3000 C.3   245  LYS245      0.0271
    162  CG        30.1950   23.6650  -15.3560 C.3   245  LYS245      0.0035
    163  CD        31.1810   23.5040  -16.5020 C.3   245  LYS245      0.0206
    164  CE        32.2570   24.5760  -16.4550 C.3   245  LYS245      0.1093
    165  NZ        31.6840   25.9180  -16.1580 N.3   245  LYS245     -0.1314
@<TRIPOS>BOND
     1    54    53    2
     2    53    52    1
     3    82    81    1
     4    55    52    1
     5    55    56    1
     6    52    51    1
     7    81    83    1
     8    81    80    2
     9    79    80    1
    10    79    78    1
    11    94    95    1
    12    76    75    2
    13    95    96    1
    14    95    98    1
    15   100    99   ar
    16    77    78    1
    17    77    74    1
    18    56    58   ar
    19    56    57   ar
    20    99    98    1
    21    99   101   ar
    22    96    97    2
    23    75    74    1
    24    74    73    1
    25    46    45    2
    26    68    67    2
    27    45    44    1
    28    73    67   am
    29    50    48   ar
    30    72    70   am
    31    67    66    1
    32    71    70    2
    33    70    69    1
    34    48    49   ar
    35    48    47    1
    36   102   103    1
    37   163   164    1
    38   163   162    1
    39    44    43    1
    40    44    47    1
    41   164   165    1
    42    39    41   ar
    43    39    37   ar
    44    43    34   am
    45    66    69    1
    46    66    65    1
    47   108   106    1
    48    41    42   ar
    49   160   159    2
    50    36    37    1
    51    36    33    1
    52   118   117    1
    53   106   103    1
    54   106   107    1
    55    64    63    1
    56    37    38   ar
    57   162   161    1
    58   161   158    1
    59   103   104    1
    60    34    33    1
    61    34    35    2
    62    42    40   ar
    63    33    32    1
    64   159   158    1
    65   104   105    2
    66    63    60    1
    67   117   119    1
    68   117   116    2
    69   158   157    1
    70    38    40   ar
    71   155   156   ar
    72   155   153   ar
    73    84    85    1
    74   156   154   ar
    75    91    93   ar
    76    91    89   ar
    77    27    26    2
    78   116   115    1
    79    32    26   am
    80    93    92   ar
    81    59    60    1
    82    85    86    1
    83    85    88    1
    84    60    61    1
    85   153   152   ar
    86    26    25    1
    87    86    87    2
    88    61    62    2
    89   154   152   ar
    90    89    88    1
    91    89    90   ar
    92   152   151    1
    93    92    90   ar
    94   115   114    1
    95   146   144    1
    96   114   113    1
    97    25    28    1
    98    25    24    1
    99   151   148    1
   100    12    11    1
   101    28    29    1
   102   150   149    2
   103   143   144    2
   104   143   142    1
   105   144   145    1
   106   149   148    1
   107    11     9   ar
   108    11    10   ar
   109   148   147    1
   110   113   110    1
   111   142   141    1
   112    29    30    1
   113    29    31    1
   114     9     7   ar
   115    10     8   ar
   116    23    21   ar
   117    23    22   ar
   118    21    19   ar
   119   110   109    1
   120   110   111    1
   121   123   122    2
   122   140   141    1
   123   140   137    1
   124     7     6   ar
   125     8     6   ar
   126   120   111   am
   127   120   121    1
   128    22    20   ar
   129    19    18   ar
   130   111   112    2
   131   122   121    1
   132   122   128   am
   133     6     5    1
   134   136   137    1
   135   136   130   am
   136   124   121    1
   137   124   125    1
   138   137   138    1
   139     1     2    1
   140   129   128    1
   141   129   130    1
   142   129   132    1
   143    20    18   ar
   144   125   126    1
   145   125   127    1
   146    18    17    1
   147   130   131    2
   148   139   138    2
   149   133   132    1
   150   133   135    1
   151     5     2    1
   152   134   132    1
   153     2     3    1
   154    17    14    1
   155     3     4    2
   156    14    13    1
   157    14    15    1
   158    15    16    2
