@<TRIPOS>MOLECULE
tmp/5of3E00.pdb
 117 115 0 0 0
SMALL
GASTEIGER

@<TRIPOS>ATOM
      1  N         66.4390   25.1350   17.3810 N.3    22  GLN22      -0.1231
      2  CA        65.2130   25.5100   18.0740 C.3    22  GLN22       0.1698
      3  C         64.1390   25.9910   17.1040 C.2    22  GLN22       0.2592
      4  O         63.1200   25.3170   16.9210 O.2    22  GLN22      -0.2718
      5  CB        65.5300   26.5850   19.1220 C.3    22  GLN22       0.0381
      6  CG        64.4820   26.7790   20.2120 C.3    22  GLN22       0.0905
      7  CD        63.3440   27.6880   19.7850 C.2    22  GLN22       0.2608
      8  OE1       63.5700   28.7520   19.2060 O.2    22  GLN22      -0.2717
      9  NE2       62.1150   27.2780   20.0750 N.am   22  GLN22      -0.0878
     10  N         64.3490   27.1500   16.4810 N.am   23  ASP23      -0.1960
     11  CA        63.2950   27.7720   15.6870 C.3    23  ASP23       0.1840
     12  C         63.3300   27.3760   14.2130 C.2    23  ASP23       0.2623
     13  O         62.2790   27.1040   13.6230 O.2    23  ASP23      -0.2715
     14  CB        63.3700   29.2960   15.8080 C.3    23  ASP23       0.1450
     15  CG        62.2370   29.9930   15.0760 C.2    23  ASP23       0.3671
     16  OD1       61.4260   29.2930   14.4290 O.co2  23  ASP23      -0.2456
     17  OD2       62.1590   31.2380   15.1480 O.co2  23  ASP23      -0.2456
     18  N         64.5150   27.3480   13.6040 N.am   24  SER24      -0.1936
     19  CA        64.6800   27.2060   12.1590 C.3    24  SER24       0.2055
     20  C         65.1760   25.8190   11.7560 C.2    24  SER24       0.2643
     21  O         66.0700   25.6860   10.9180 O.2    24  SER24      -0.2714
     22  CB        65.6290   28.2730   11.6260 C.3    24  SER24       0.2130
     23  OG        66.8150   28.3330   12.3980 O.3    24  SER24      -0.2179
     24  N         64.6000   24.7720   12.3490 N.am   25  ARG25      -0.1963
     25  CA        65.0660   23.4150   12.0790 C.3    25  ARG25       0.1729
     26  C         64.8270   23.0070   10.6280 C.2    25  ARG25       0.2616
     27  O         65.6360   22.2810   10.0390 O.2    25  ARG25      -0.2715
     28  CB        64.3770   22.4380   13.0280 C.3    25  ARG25       0.0348
     29  CG        65.0530   22.3100   14.3760 C.3    25  ARG25       0.0492
     30  CD        64.2050   21.4850   15.3210 C.3    25  ARG25       0.2205
     31  NE        62.8760   22.0670   15.4790 N.pl3  25  ARG25      -0.0865
     32  CZ        61.8910   21.5070   16.1720 C.cat  25  ARG25       0.5346
     33  NH1       62.0800   20.3410   16.7750 N.pl3  25  ARG25       0.1354
     34  NH2       60.7140   22.1130   16.2590 N.pl3  25  ARG25       0.1354
     35  N         63.7190   23.4560   10.0330 N.am   26  LYS26      -0.1963
     36  CA        63.3930   23.0280    8.6750 C.3    26  LYS26       0.1728
     37  C         64.1770   23.8050    7.6210 C.2    26  LYS26       0.2616
     38  O         64.6640   23.2130    6.6510 O.2    26  LYS26      -0.2715
     39  CB        61.8880   23.1520    8.4350 C.3    26  LYS26       0.0311
     40  CG        61.0880   22.0770    9.1480 C.3    26  LYS26       0.0038
     41  CD        59.5960   22.3320    9.0800 C.3    26  LYS26       0.0206
     42  CE        58.8370   21.2740    9.8630 C.3    26  LYS26       0.1093
     43  NZ        57.6360   21.8360   10.5360 N.3    26  LYS26      -0.1314
     44  N         64.3050   25.1240    7.7860 N.am   27  ARG27      -0.1977
     45  CA        65.1410   25.9030    6.8770 C.3    27  ARG27       0.1597
     46  C         66.5810   25.4080    6.8830 C.2    27  ARG27       0.2287
     47  O         67.2950   25.5490    5.8830 O.2    27  ARG27      -0.2864
     48  CB        65.0800   27.3840    7.2480 C.3    27  ARG27       0.0334
     49  CG        63.6630   27.8830    7.4310 C.3    27  ARG27       0.0492
     50  CD        63.5270   29.3930    7.2810 C.3    27  ARG27       0.2205
     51  NE        64.0810   30.1590    8.3970 N.pl3  27  ARG27      -0.0865
     52  CZ        63.6120   30.1430    9.6410 C.cat  27  ARG27       0.5346
     53  NH1       62.5850   29.3720    9.9680 N.pl3  27  ARG27       0.1354
     54  NH2       64.1840   30.8930   10.5720 N.pl3  27  ARG27       0.1354
     55  N         66.4630   22.0460    4.8120 N.3    30  LEU30      -0.1231
     56  CA        66.2300   22.2580    3.3870 C.3    30  LEU30       0.1693
     57  C         67.4640   22.8220    2.6890 C.2    30  LEU30       0.2592
     58  O         67.8730   22.3250    1.6330 O.2    30  LEU30      -0.2718
     59  CB        65.0300   23.1850    3.1910 C.3    30  LEU30       0.0284
     60  CG        64.5620   23.3940    1.7510 C.3    30  LEU30       0.0019
     61  CD1       64.1200   22.0760    1.1380 C.3    30  LEU30       0.0001
     62  CD2       63.4380   24.4120    1.7040 C.3    30  LEU30       0.0001
     63  N         68.0750   23.8580    3.2640 N.am   31  TYR31      -0.1976
     64  CA        69.1050   24.6250    2.5760 C.3    31  TYR31       0.1639
     65  C         70.5300   24.2440    2.9580 C.2    31  TYR31       0.2290
     66  O         71.4680   24.7010    2.2960 O.2    31  TYR31      -0.2864
     67  CB        68.9050   26.1220    2.8370 C.3    31  TYR31       0.0560
     68  CG        67.5710   26.6530    2.3700 C.ar   31  TYR31      -0.0198
     69  CD1       67.0530   26.2930    1.1340 C.ar   31  TYR31      -0.0009
     70  CD2       66.8250   27.5090    3.1700 C.ar   31  TYR31      -0.0009
     71  CE1       65.8320   26.7770    0.7040 C.ar   31  TYR31       0.0417
     72  CE2       65.6030   27.9960    2.7490 C.ar   31  TYR31       0.0417
     73  CZ        65.1110   27.6270    1.5170 C.ar   31  TYR31       0.1957
     74  OH        63.8940   28.1120    1.0970 O.3    31  TYR31      -0.2866
     75  N         66.2280   16.5710   13.8700 N.3    56  TYR56      -0.1241
     76  CA        65.0780   17.4520   14.0590 C.3    56  TYR56       0.1605
     77  C         64.4620   17.2910   15.4430 C.2    56  TYR56       0.2264
     78  O         64.0550   18.2790   16.0660 O.2    56  TYR56      -0.2867
     79  CB        64.0270   17.1890   12.9810 C.3    56  TYR56       0.0534
     80  CG        62.8000   18.0640   13.1150 C.ar   56  TYR56      -0.0201
     81  CD1       62.7710   19.3370   12.5620 C.ar   56  TYR56      -0.0009
     82  CD2       61.6750   17.6240   13.8040 C.ar   56  TYR56      -0.0009
     83  CE1       61.6580   20.1440   12.6840 C.ar   56  TYR56       0.0417
     84  CE2       60.5570   18.4250   13.9310 C.ar   56  TYR56       0.0417
     85  CZ        60.5540   19.6840   13.3700 C.ar   56  TYR56       0.1957
     86  OH        59.4450   20.4880   13.4920 O.3    56  TYR56      -0.2866
     87  N         58.5450   13.9940    3.6130 N.3    68  TRP68      -0.1241
     88  CA        59.1290   15.2640    3.1950 C.3    68  TRP68       0.1605
     89  C         60.6450   15.1710    3.0990 C.2    68  TRP68       0.2264
     90  O         61.2520   15.7600    2.1970 O.2    68  TRP68      -0.2867
     91  CB        58.7200   16.3850    4.1500 C.3    68  TRP68       0.0550
     92  CG        59.2760   17.7190    3.7440 C.ar   68  TRP68       0.0003
     93  CD1       58.9260   18.4460    2.6440 C.ar   68  TRP68       0.0946
     94  CD2       60.2720   18.4860    4.4320 C.ar   68  TRP68       0.0152
     95  NE1       59.6480   19.6130    2.5980 N.ar   68  TRP68      -0.2442
     96  CE2       60.4790   19.6640    3.6860 C.ar   68  TRP68       0.0810
     97  CE3       61.0100   18.2920    5.6020 C.ar   68  TRP68       0.0012
     98  CZ2       61.3920   20.6430    4.0720 C.ar   68  TRP68       0.0191
     99  CZ3       61.9170   19.2650    5.9850 C.ar   68  TRP68       0.0001
    100  CH2       62.0990   20.4250    5.2220 C.ar   68  TRP68       0.0015
    101  N         68.4850   35.2750    6.1680 N.3    93  ASP93      -0.1239
    102  CA        67.6700   34.8470    7.3110 C.3    93  ASP93       0.1674
    103  C         68.4510   35.0470    8.6100 C.2    93  ASP93       0.2266
    104  O         69.2130   34.1710    9.0270 O.2    93  ASP93      -0.2867
    105  CB        67.2350   33.3960    7.1340 C.3    93  ASP93       0.1410
    106  CG        66.0430   33.0310    8.0010 C.2    93  ASP93       0.3668
    107  OD1       65.9340   33.5580    9.1280 O.co2  93  ASP93      -0.2456
    108  OD2       65.2100   32.2150    7.5520 O.co2  93  ASP93      -0.2456
    109  N         67.1280   35.3340   11.6360 N.3    95  GLU95      -0.1245
    110  CA        66.5650   34.4790   12.6770 C.3    95  GLU95       0.1567
    111  C         67.2650   33.1280   12.6990 C.2    95  GLU95       0.2260
    112  O         67.6440   32.6240   13.7620 O.2    95  GLU95      -0.2867
    113  CB        65.0640   34.2890   12.4530 C.3    95  GLU95       0.0388
    114  CG        64.3600   35.4460   11.7740 C.3    95  GLU95       0.1160
    115  CD        63.0650   35.0150   11.1120 C.2    95  GLU95       0.3649
    116  OE1       62.3970   34.1060   11.6500 O.co2  95  GLU95      -0.2457
    117  OE2       62.7210   35.5730   10.0490 O.co2  95  GLU95      -0.2457
@<TRIPOS>BOND
     1    71    69   ar
     2    71    73   ar
     3    74    73    1
     4    69    68   ar
     5    61    60    1
     6    73    72   ar
     7    58    57    2
     8    62    60    1
     9    60    59    1
    10    90    89    2
    11    66    65    2
    12    68    67    1
    13    68    70   ar
    14    64    67    1
    15    64    65    1
    16    64    63    1
    17    95    93   ar
    18    95    96   ar
    19    93    92   ar
    20    57    63   am
    21    57    56    1
    22    72    70   ar
    23    89    88    1
    24    59    56    1
    25    88    87    1
    26    88    91    1
    27    56    55    1
    28    96    98   ar
    29    96    94   ar
    30    92    91    1
    31    92    94   ar
    32    98   100   ar
    33    94    97   ar
    34   100    99   ar
    35    97    99   ar
    36    47    46    2
    37   101   102    1
    38    38    37    2
    39    45    46    1
    40    45    48    1
    41    45    44    1
    42   105   102    1
    43   105   106    1
    44    48    49    1
    45    50    49    1
    46    50    51    1
    47   102   103    1
    48   108   106   ar
    49    37    44   am
    50    37    36    1
    51   106   107   ar
    52    51    52    2
    53    39    36    1
    54    39    40    1
    55   103   104    2
    56    36    35    1
    57    41    40    1
    58    41    42    1
    59    52    53    1
    60    52    54    1
    61    42    43    1
    62    35    26   am
    63    27    26    2
    64   117   115   ar
    65    26    25    1
    66    21    20    2
    67   115   116   ar
    68   115   114    1
    69    22    19    1
    70    22    23    1
    71   109   110    1
    72    20    19    1
    73    20    24   am
    74   114   113    1
    75    25    24    1
    76    25    28    1
    77    19    18    1
    78   113   110    1
    79    81    83   ar
    80    81    80   ar
    81   110   111    1
    82    83    85   ar
    83   111   112    2
    84    79    80    1
    85    79    76    1
    86    28    29    1
    87    80    82   ar
    88    85    86    1
    89    85    84   ar
    90    18    12   am
    91    13    12    2
    92    82    84   ar
    93    75    76    1
    94    76    77    1
    95    12    11    1
    96    29    30    1
    97    16    15   ar
    98    15    17   ar
    99    15    14    1
   100    30    31    1
   101    77    78    2
   102    31    32    2
   103    11    14    1
   104    11    10    1
   105    32    34    1
   106    32    33    1
   107    10     3   am
   108     4     3    2
   109     3     2    1
   110     1     2    1
   111     2     5    1
   112     5     6    1
   113     8     7    2
   114     7     9   am
   115     7     6    1
