@<TRIPOS>MOLECULE
tmp/5ofaA00.pdb
 202 190 0 0 0
SMALL
GASTEIGER

@<TRIPOS>ATOM
      1  N        -19.0200  -16.8030  -25.6200 N.3    31  GLU31      -0.1231
      2  CA       -18.2880  -17.5650  -26.6200 C.3    31  GLU31       0.1699
      3  C        -18.5970  -17.0300  -28.0120 C.2    31  GLU31       0.2592
      4  O        -17.6760  -16.9790  -28.8800 O.2    31  GLU31      -0.2718
      5  CB       -18.6100  -19.0560  -26.5460 C.3    31  GLU31       0.0402
      6  CG       -18.0650  -19.7530  -25.2890 C.3    31  GLU31       0.1161
      7  CD       -16.5660  -20.1110  -25.3070 C.2    31  GLU31       0.3649
      8  OE1      -16.1980  -20.8960  -24.3420 O.co2  31  GLU31      -0.2457
      9  OE2      -15.7780  -19.6750  -26.2660 O.co2  31  GLU31      -0.2457
     10  N        -19.8500  -16.6650  -28.2740 N.am   32  LEU32      -0.1980
     11  CA       -20.2010  -16.2190  -29.6490 C.3    32  LEU32       0.1596
     12  C        -19.7220  -14.7970  -29.9240 C.2    32  LEU32       0.2287
     13  O        -19.3110  -14.4720  -31.0630 O.2    32  LEU32      -0.2864
     14  CB       -21.7040  -16.3450  -29.8940 C.3    32  LEU32       0.0297
     15  CG       -22.1300  -17.8210  -30.1220 C.3    32  LEU32       0.0022
     16  CD1      -22.2000  -18.6140  -28.8260 C.3    32  LEU32       0.0001
     17  CD2      -23.4560  -17.8690  -30.8480 C.3    32  LEU32       0.0001
     18  N        -16.9850  -13.5850  -28.4820 N.3    34  ASP34      -0.1225
     19  CA       -15.5280  -13.7920  -28.6390 C.3    34  ASP34       0.1805
     20  C        -15.2050  -14.1380  -30.0900 C.2    34  ASP34       0.2598
     21  O        -14.2010  -13.6740  -30.6480 O.2    34  ASP34      -0.2718
     22  CB       -14.9900  -14.9290  -27.7890 C.3    34  ASP34       0.1424
     23  CG       -15.0500  -14.6830  -26.2670 C.2    34  ASP34       0.3668
     24  OD1      -15.1440  -13.5110  -25.8170 O.co2  34  ASP34      -0.2456
     25  OD2      -14.9570  -15.7240  -25.5160 O.co2  34  ASP34      -0.2456
     26  N        -16.0270  -14.9800  -30.7060 N.am   35  ASN35      -0.1960
     27  CA       -15.7380  -15.3870  -32.0440 C.3    35  ASN35       0.1819
     28  C        -15.8560  -14.1910  -33.0230 C.2    35  ASN35       0.2621
     29  O        -15.0660  -14.0760  -33.9690 O.2    35  ASN35      -0.2715
     30  CB       -16.6310  -16.5300  -32.4950 C.3    35  ASN35       0.1195
     31  CG       -16.2870  -17.8520  -31.8250 C.2    35  ASN35       0.2630
     32  OD1      -15.1820  -18.0450  -31.3280 O.2    35  ASN35      -0.2716
     33  ND2      -17.2680  -18.7700  -31.7700 N.am   35  ASN35      -0.0877
     34  N        -16.8270  -13.3160  -32.8030 N.am   36  ALA36      -0.1977
     35  CA       -16.9600  -12.1190  -33.6330 C.3    36  ALA36       0.1597
     36  C        -15.7570  -11.1860  -33.4440 C.2    36  ALA36       0.2287
     37  O        -15.2270  -10.6740  -34.3890 O.2    36  ALA36      -0.2864
     38  CB       -18.2440  -11.3880  -33.3220 C.3    36  ALA36       0.0319
     39  N        -12.8460  -12.5770  -35.3200 N.3    39  ALA39      -0.1245
     40  CA       -12.9850  -12.4510  -36.7510 C.3    39  ALA39       0.1562
     41  C        -12.8590  -10.9900  -37.2200 C.2    39  ALA39       0.2260
     42  O        -13.2420  -10.6610  -38.3490 O.2    39  ALA39      -0.2867
     43  CB       -14.3420  -13.0230  -37.1690 C.3    39  ALA39       0.0290
     44  N        -22.5250  -10.3190  -37.0490 N.3    64  ASP64      -0.1239
     45  CA       -21.2800   -9.5590  -37.0510 C.3    64  ASP64       0.1674
     46  C        -20.8320   -9.2610  -38.4710 C.2    64  ASP64       0.2266
     47  O        -21.2410   -9.9230  -39.4260 O.2    64  ASP64      -0.2867
     48  CB       -20.1850  -10.2750  -36.2570 C.3    64  ASP64       0.1410
     49  CG       -19.5910  -11.5010  -36.9890 C.2    64  ASP64       0.3668
     50  OD1      -19.0440  -11.3160  -38.1070 O.co2  64  ASP64      -0.2456
     51  OD2      -19.6450  -12.6520  -36.4540 O.co2  64  ASP64      -0.2456
     52  N        -15.9520  -13.4670  -41.8020 N.3    68  GLY68      -0.1210
     53  CA       -16.7350  -14.5740  -42.3430 C.3    68  GLY68       0.1956
     54  C        -15.9160  -15.8430  -42.5400 C.2    68  GLY68       0.2611
     55  O        -14.7690  -15.9600  -42.0690 O.2    68  GLY68      -0.2717
     56  N        -16.5320  -16.7940  -43.2200 N.am   69  MET69      -0.1979
     57  CA       -15.9530  -18.1080  -43.4120 C.3    69  MET69       0.1605
     58  C        -16.2360  -18.5940  -44.8210 C.2    69  MET69       0.2287
     59  O        -17.3630  -18.5140  -45.2880 O.2    69  MET69      -0.2864
     60  CB       -16.5570  -19.0990  -42.4320 C.3    69  MET69       0.0413
     61  CG       -16.0680  -19.0070  -40.9900 C.3    69  MET69       0.0598
     62  SD       -16.9600  -20.1830  -39.9050 S.3    69  MET69      -0.1393
     63  CE       -18.4980  -19.2980  -39.5660 C.3    69  MET69       0.0692
     64  N        -13.4650  -23.2600  -44.0320 N.3    73  ASP73      -0.1239
     65  CA       -13.5300  -22.7020  -42.6820 C.3    73  ASP73       0.1674
     66  C        -14.8250  -23.1240  -41.9810 C.2    73  ASP73       0.2266
     67  O        -14.8090  -23.4540  -40.8020 O.2    73  ASP73      -0.2867
     68  CB       -13.5480  -21.1710  -42.6710 C.3    73  ASP73       0.1410
     69  CG       -12.3060  -20.5130  -43.3210 C.2    73  ASP73       0.3668
     70  OD1      -11.2090  -21.0770  -43.1360 O.co2  73  ASP73      -0.2456
     71  OD2      -12.4480  -19.4130  -43.9860 O.co2  73  ASP73      -0.2456
     72  N        -14.7090  -26.7110  -40.8890 N.3    76  SER76      -0.1202
     73  CA       -13.8390  -26.9380  -39.7530 C.3    76  SER76       0.2020
     74  C        -14.5240  -26.5830  -38.4340 C.2    76  SER76       0.2618
     75  O        -14.0380  -27.0420  -37.4190 O.2    76  SER76      -0.2717
     76  CB       -12.5270  -26.1400  -39.7920 C.3    76  SER76       0.2103
     77  OG       -11.7100  -26.4480  -40.8280 O.3    76  SER76      -0.2182
     78  N        -15.5990  -25.7770  -38.4420 N.am   77  VAL77      -0.1979
     79  CA       -16.3720  -25.5100  -37.2310 C.3    77  VAL77       0.1595
     80  C        -16.7430  -26.8220  -36.5140 C.2    77  VAL77       0.2287
     81  O        -16.6650  -26.9270  -35.2610 O.2    77  VAL77      -0.2864
     82  CB       -17.6430  -24.7130  -37.5260 C.3    77  VAL77       0.0276
     83  CG1      -18.5360  -24.6040  -36.3070 C.3    77  VAL77       0.0022
     84  CG2      -17.2830  -23.3080  -37.9970 C.3    77  VAL77       0.0022
     85  N        -10.3950  -28.0580  -33.4390 N.3    82  LYS82      -0.1231
     86  CA        -9.6920  -27.3990  -34.4970 C.3    82  LYS82       0.1693
     87  C         -9.8470  -25.9050  -34.3390 C.2    82  LYS82       0.2593
     88  O        -10.9740  -25.3900  -34.2330 O.2    82  LYS82      -0.2718
     89  CB       -10.2390  -27.8320  -35.8410 C.3    82  LYS82       0.0285
     90  CG        -9.3750  -27.3770  -37.0200 C.3    82  LYS82       0.0035
     91  CD        -9.6400  -28.2770  -38.2410 C.3    82  LYS82       0.0206
     92  CE        -9.0410  -27.7090  -39.5300 C.3    82  LYS82       0.1093
     93  NZ        -9.3550  -28.6210  -40.6700 N.3    82  LYS82      -0.1314
     94  N         -8.7190  -25.2120  -34.2860 N.am   83  SER83      -0.1938
     95  CA        -8.6860  -23.7690  -34.1670 C.3    83  SER83       0.2055
     96  C         -7.4260  -23.2800  -34.8830 C.2    83  SER83       0.2643
     97  O         -6.3130  -23.5580  -34.4290 O.2    83  SER83      -0.2714
     98  CB        -8.6850  -23.3440  -32.6830 C.3    83  SER83       0.2130
     99  OG        -8.7730  -21.9180  -32.5880 O.3    83  SER83      -0.2179
    100  N         -7.6040  -22.5720  -35.9970 N.am   84  ALA84      -0.1963
    101  CA        -6.4820  -21.8440  -36.6720 C.3    84  ALA84       0.1728
    102  C         -5.9320  -20.6870  -35.8350 C.2    84  ALA84       0.2616
    103  O         -4.8630  -20.1610  -36.1260 O.2    84  ALA84      -0.2715
    104  CB        -6.9190  -21.3120  -38.0230 C.3    84  ALA84       0.0334
    105  N         -6.6570  -20.3240  -34.7810 N.am   85  LYS85      -0.1977
    106  CA        -6.2220  -19.2990  -33.8140 C.3    85  LYS85       0.1596
    107  C         -5.1370  -19.7790  -32.8630 C.2    85  LYS85       0.2287
    108  O         -4.4260  -18.9550  -32.2900 O.2    85  LYS85      -0.2864
    109  CB        -7.4000  -18.8270  -32.9560 C.3    85  LYS85       0.0298
    110  CG        -8.6200  -18.3880  -33.7590 C.3    85  LYS85       0.0038
    111  CD        -9.7670  -18.0630  -32.8390 C.3    85  LYS85       0.0206
    112  CE       -11.0200  -17.8320  -33.6500 C.3    85  LYS85       0.1093
    113  NZ       -12.1780  -17.6150  -32.7490 N.3    85  LYS85      -0.1314
    114  N         -9.8880  -17.2410  -28.9120 N.3    94  GLY94      -0.1210
    115  CA       -10.1270  -18.6410  -29.1930 C.3    94  GLY94       0.1956
    116  C         -8.8600  -19.4480  -29.2550 C.2    94  GLY94       0.2612
    117  O         -7.8690  -19.0060  -29.8230 O.2    94  GLY94      -0.2717
    118  N         -8.8830  -20.6260  -28.6420 N.am   95  GLN95      -0.1965
    119  CA        -7.7780  -21.5240  -28.7070 C.3    95  GLN95       0.1733
    120  C         -8.1740  -22.9830  -28.5630 C.2    95  GLN95       0.2616
    121  O         -7.3870  -23.8170  -28.9150 O.2    95  GLN95      -0.2715
    122  CB        -6.7470  -21.1510  -27.6430 C.3    95  GLN95       0.0408
    123  CG        -7.1890  -21.1750  -26.1820 C.3    95  GLN95       0.0908
    124  CD        -6.0470  -20.9610  -25.1520 C.2    95  GLN95       0.2608
    125  OE1       -6.1590  -20.1460  -24.2390 O.2    95  GLN95      -0.2717
    126  NE2       -4.9450  -21.7120  -25.3070 N.am   95  GLN95      -0.0878
    127  N         -9.3800  -23.3110  -28.0580 N.am   96  TYR96      -0.1960
    128  CA        -9.7300  -24.6900  -27.7460 C.3    96  TYR96       0.1771
    129  C        -10.6010  -25.4020  -28.8080 C.2    96  TYR96       0.2620
    130  O        -10.7900  -26.6280  -28.7260 O.2    96  TYR96      -0.2715
    131  CB       -10.3950  -24.7630  -26.3630 C.3    96  TYR96       0.0574
    132  CG        -9.5350  -24.4160  -25.1270 C.ar   96  TYR96      -0.0198
    133  CD1       -8.1590  -24.6320  -25.1010 C.ar   96  TYR96      -0.0009
    134  CD2      -10.1180  -23.8630  -23.9550 C.ar   96  TYR96      -0.0009
    135  CE1       -7.3920  -24.3280  -23.9530 C.ar   96  TYR96       0.0417
    136  CE2       -9.3490  -23.5680  -22.8000 C.ar   96  TYR96       0.0417
    137  CZ        -7.9820  -23.8170  -22.8030 C.ar   96  TYR96       0.1957
    138  OH        -7.2110  -23.5360  -21.6940 O.3    96  TYR96      -0.2866
    139  N        -11.1280  -24.6980  -29.8010 N.am   97  GLY97      -0.1940
    140  CA       -11.8690  -25.3870  -30.8810 C.3    97  GLY97       0.2014
    141  C        -13.2270  -25.9500  -30.4550 C.2    97  GLY97       0.2639
    142  O        -13.7300  -26.9250  -31.0070 O.2    97  GLY97      -0.2714
    143  N        -13.8230  -25.3150  -29.4570 N.am   98  ASN98      -0.1958
    144  CA       -15.0510  -25.7990  -28.8180 C.3    98  ASN98       0.1819
    145  C        -16.1530  -24.7620  -28.5250 C.2    98  ASN98       0.2622
    146  O        -17.3090  -25.1260  -28.4910 O.2    98  ASN98      -0.2715
    147  CB       -14.6230  -26.4250  -27.5270 C.3    98  ASN98       0.1195
    148  CG       -15.6660  -27.3760  -26.9460 C.2    98  ASN98       0.2630
    149  OD1      -16.2890  -28.1640  -27.6560 O.2    98  ASN98      -0.2716
    150  ND2      -15.8040  -27.3540  -25.6400 N.am   98  ASN98      -0.0877
    151  N        -15.8000  -23.4830  -28.3410 N.am   99  GLY99      -0.1940
    152  CA       -16.7030  -22.4880  -27.7410 C.3    99  GLY99       0.2014
    153  C        -18.0670  -22.3370  -28.3700 C.2    99  GLY99       0.2639
    154  O        -19.0670  -22.3430  -27.6750 O.2    99  GLY99      -0.2714
    155  N        -18.1330  -22.2770  -29.6810 N.am  100  LEU100     -0.1963
    156  CA       -19.4240  -22.1150  -30.3570 C.3   100  LEU100      0.1728
    157  C        -20.3190  -23.3100  -30.0430 C.2   100  LEU100      0.2616
    158  O        -21.5370  -23.1550  -29.8230 O.2   100  LEU100     -0.2715
    159  CB       -19.2460  -21.9570  -31.8660 C.3   100  LEU100      0.0311
    160  CG       -20.4930  -22.0350  -32.7270 C.3   100  LEU100      0.0022
    161  CD1      -21.5570  -20.9890  -32.4020 C.3   100  LEU100      0.0001
    162  CD2      -20.1410  -21.8750  -34.1900 C.3   100  LEU100      0.0001
    163  N        -19.7310  -24.5030  -30.0130 N.am  101  LYS101     -0.1977
    164  CA       -20.5350  -25.7120  -29.7720 C.3   101  LYS101      0.1596
    165  C        -20.9390  -25.8620  -28.2930 C.2   101  LYS101      0.2287
    166  O        -22.0760  -26.1930  -28.0070 O.2   101  LYS101     -0.2864
    167  CB       -19.7880  -26.9410  -30.2410 C.3   101  LYS101      0.0298
    168  CG       -19.6530  -27.0110  -31.7670 C.3   101  LYS101      0.0038
    169  CD       -18.4750  -26.2310  -32.3540 C.3   101  LYS101      0.0206
    170  CE       -17.1200  -26.8130  -31.9720 C.3   101  LYS101      0.1093
    171  NZ       -15.9840  -26.1190  -32.6610 N.3   101  LYS101     -0.1314
    172  N        -26.4010  -21.2880  -38.6990 N.3   113  LEU113     -0.1245
    173  CA       -25.4080  -20.2480  -38.9100 C.3   113  LEU113      0.1561
    174  C        -25.3450  -19.9400  -40.4190 C.2   113  LEU113      0.2260
    175  O        -25.3740  -20.8610  -41.2500 O.2   113  LEU113     -0.2867
    176  CB       -24.0680  -20.7420  -38.3490 C.3   113  LEU113      0.0270
    177  CG       -22.7710  -19.9540  -38.5920 C.3   113  LEU113      0.0019
    178  CD1      -21.7920  -20.3340  -37.4950 C.3   113  LEU113      0.0001
    179  CD2      -22.1540  -20.1940  -39.9820 C.3   113  LEU113      0.0001
    180  N        -21.0100  -12.9730  -40.4760 N.3   193  THR193     -0.1218
    181  CA       -21.6060  -14.1960  -39.9770 C.3   193  THR193      0.1862
    182  C        -22.8380  -13.8780  -39.1530 C.2   193  THR193      0.2287
    183  O        -22.8550  -12.8980  -38.3940 O.2   193  THR193     -0.2866
    184  CB       -20.5980  -14.9670  -39.1240 C.3   193  THR193      0.1770
    185  OG1      -19.4130  -15.2230  -39.8890 O.3   193  THR193     -0.2211
    186  CG2      -21.2100  -16.2780  -38.6160 C.3   193  THR193      0.0375
    187  N        -25.3200  -16.0500  -36.5450 N.3   195  VAL195     -0.1245
    188  CA       -25.5950  -17.2770  -35.8050 C.3   195  VAL195      0.1561
    189  C        -26.9630  -17.1270  -35.1510 C.2   195  VAL195      0.2260
    190  O        -27.1970  -16.1610  -34.4350 O.2   195  VAL195     -0.2867
    191  CB       -24.5430  -17.5370  -34.7350 C.3   195  VAL195      0.0252
    192  CG1      -24.7820  -18.9130  -34.0820 C.3   195  VAL195      0.0019
    193  CG2      -23.1620  -17.4820  -35.3050 C.3   195  VAL195      0.0019
    194  N        -14.1070  -20.9760  -19.8780 N.3   417  LYS417     -0.1245
    195  CA       -13.5710  -19.6220  -19.8430 C.3   417  LYS417      0.1561
    196  C        -14.1680  -18.7580  -18.7630 C.2   417  LYS417      0.2260
    197  O        -14.3510  -17.5730  -18.9690 O.2   417  LYS417     -0.2867
    198  CB       -13.6280  -18.9530  -21.1940 C.3   417  LYS417      0.0271
    199  CG       -12.8770  -19.7920  -22.1860 C.3   417  LYS417      0.0035
    200  CD       -12.2960  -19.0230  -23.3400 C.3   417  LYS417      0.0206
    201  CE       -11.8300  -20.0230  -24.4030 C.3   417  LYS417      0.1093
    202  NZ       -11.3330  -19.2610  -25.5580 N.3   417  LYS417     -0.1314
@<TRIPOS>BOND
     1    59    58    2
     2    58    57    1
     3    64    65    1
     4    71    69   ar
     5    57    56    1
     6    57    60    1
     7    69    70   ar
     8    69    68    1
     9    56    54   am
    10    65    68    1
    11    65    66    1
    12    54    53    1
    13    54    55    2
    14    60    61    1
    15    53    52    1
    16    66    67    2
    17   175   174    2
    18    61    62    1
    19    72    73    1
    20    77    76    1
    21    93    92    1
    22   180   181    1
    23   174   173    1
    24   179   177    1
    25   181   182    1
    26   181   184    1
    27    62    63    1
    28   185   184    1
    29    76    73    1
    30    73    74    1
    31    92    91    1
    32    47    46    2
    33   182   183    2
    34   184   186    1
    35   173   172    1
    36   173   176    1
    37   177   176    1
    38   177   178    1
    39    46    45    1
    40    78    74   am
    41    78    79    1
    42    74    75    2
    43    42    41    2
    44    91    90    1
    45    50    49   ar
    46   104   101    1
    47    84    82    1
    48    82    79    1
    49    82    83    1
    50    79    80    1
    51    41    40    1
    52    43    40    1
    53    45    44    1
    54    45    48    1
    55    90    89    1
    56    49    51   ar
    57    49    48    1
    58    40    39    1
    59   101   100    1
    60   101   102    1
    61   187   188    1
    62    80    81    2
    63   103   102    2
    64   100    96   am
    65    89    86    1
    66   102   105   am
    67   188   189    1
    68   188   191    1
    69   193   191    1
    70   189   190    2
    71    96    97    2
    72    96    95    1
    73   105   106    1
    74   191   192    1
    75    86    87    1
    76    86    85    1
    77    37    36    2
    78    87    94   am
    79    87    88    2
    80    94    95    1
    81   162   160    1
    82    95    98    1
    83    29    28    2
    84   106   109    1
    85   106   107    1
    86   110   109    1
    87   110   111    1
    88   112   111    1
    89   112   113    1
    90    35    36    1
    91    35    38    1
    92    35    34    1
    93    28    34   am
    94    28    27    1
    95   107   108    2
    96   160   161    1
    97   160   159    1
    98    98    99    1
    99   171   170    1
   100    30    27    1
   101    30    31    1
   102   169   170    1
   103   169   168    1
   104    27    26    1
   105   159   156    1
   106    31    33   am
   107    31    32    2
   108   168   167    1
   109    13    12    2
   110   142   141    2
   111   140   141    1
   112   140   139    1
   113    17    15    1
   114    26    20   am
   115    21    20    2
   116   141   143   am
   117   156   157    1
   118   156   155    1
   119   167   164    1
   120    15    14    1
   121    15    16    1
   122    20    19    1
   123   157   163   am
   124   157   158    2
   125   163   164    1
   126    12    11    1
   127    14    11    1
   128   117   116    2
   129   139   129   am
   130   164   165    1
   131   155   153   am
   132    11    10    1
   133   143   144    1
   134   116   115    1
   135   116   118   am
   136   115   114    1
   137   121   120    2
   138     4     3    2
   139   144   145    1
   140   144   147    1
   141   129   130    2
   142   129   128    1
   143   119   118    1
   144   119   120    1
   145   119   122    1
   146    19    18    1
   147    19    22    1
   148   120   127   am
   149   145   146    2
   150   145   151   am
   151   153   152    1
   152   153   154    2
   153   151   152    1
   154   165   166    2
   155    10     3   am
   156   127   128    1
   157     3     2    1
   158    22    23    1
   159   128   131    1
   160   149   148    2
   161   122   123    1
   162   147   148    1
   163   148   150   am
   164     2     5    1
   165     2     1    1
   166     5     6    1
   167   131   132    1
   168    23    24   ar
   169    23    25   ar
   170     9     7   ar
   171   123   124    1
   172   202   201    1
   173     7     6    1
   174     7     8   ar
   175   126   124   am
   176   124   125    2
   177   132   133   ar
   178   132   134   ar
   179   133   135   ar
   180   201   200    1
   181   134   136   ar
   182   135   137   ar
   183   200   199    1
   184   137   136   ar
   185   137   138    1
   186   199   198    1
   187   198   195    1
   188   194   195    1
   189   195   196    1
   190   197   196    2
