@<TRIPOS>MOLECULE
tmp/5ofbA00.pdb
 199 186 0 0 0
SMALL
GASTEIGER

@<TRIPOS>ATOM
      1  N        -18.7730  -16.2680  -24.7950 N.3    35  GLU35      -0.1231
      2  CA       -18.0450  -16.9930  -25.8450 C.3    35  GLU35       0.1699
      3  C        -18.3710  -16.4290  -27.2350 C.2    35  GLU35       0.2592
      4  O        -17.4890  -16.2530  -28.0820 O.2    35  GLU35      -0.2718
      5  CB       -18.3820  -18.4890  -25.8210 C.3    35  GLU35       0.0402
      6  CG       -17.8060  -19.2620  -24.6090 C.3    35  GLU35       0.1161
      7  CD       -16.2760  -19.4500  -24.7090 C.2    35  GLU35       0.3649
      8  OE1      -15.7630  -20.3010  -23.9320 O.co2  35  GLU35      -0.2457
      9  OE2      -15.5520  -18.7930  -25.5840 O.co2  35  GLU35      -0.2457
     10  N        -19.6480  -16.1080  -27.4770 N.am   36  LEU36      -0.1980
     11  CA       -20.0330  -15.6190  -28.8020 C.3    36  LEU36       0.1596
     12  C        -19.5790  -14.1730  -29.0400 C.2    36  LEU36       0.2287
     13  O        -19.2320  -13.7810  -30.1400 O.2    36  LEU36      -0.2864
     14  CB       -21.5590  -15.7600  -28.9690 C.3    36  LEU36       0.0297
     15  CG       -21.9850  -17.2260  -29.1790 C.3    36  LEU36       0.0022
     16  CD1      -22.1920  -17.9760  -27.8760 C.3    36  LEU36       0.0001
     17  CD2      -23.2690  -17.2690  -29.9690 C.3    36  LEU36       0.0001
     18  N        -16.8090  -12.9840  -27.6790 N.3    38  ASP38      -0.1225
     19  CA       -15.3660  -13.1850  -27.9390 C.3    38  ASP38       0.1805
     20  C        -15.1020  -13.5190  -29.4140 C.2    38  ASP38       0.2598
     21  O        -14.1320  -13.0520  -29.9850 O.2    38  ASP38      -0.2718
     22  CB       -14.8010  -14.3650  -27.1680 C.3    38  ASP38       0.1424
     23  CG       -14.7880  -14.1700  -25.6160 C.2    38  ASP38       0.3668
     24  OD1      -14.9360  -13.0880  -25.0550 O.co2  38  ASP38      -0.2456
     25  OD2      -14.5720  -15.1430  -24.8920 O.co2  38  ASP38      -0.2456
     26  N        -15.8940  -14.3950  -29.9800 N.am   39  ASN39      -0.1960
     27  CA       -15.7100  -14.7330  -31.3960 C.3    39  ASN39       0.1819
     28  C        -15.8640  -13.5400  -32.3390 C.2    39  ASN39       0.2621
     29  O        -15.1260  -13.4890  -33.3340 O.2    39  ASN39      -0.2715
     30  CB       -16.6540  -15.8310  -31.8350 C.3    39  ASN39       0.1195
     31  CG       -16.3190  -17.1930  -31.2180 C.2    39  ASN39       0.2630
     32  OD1      -15.1940  -17.4610  -30.7670 O.2    39  ASN39      -0.2716
     33  ND2      -17.2930  -18.0540  -31.2260 N.am   39  ASN39      -0.0877
     34  N        -16.8570  -12.6520  -32.0940 N.am   40  ALA40      -0.1977
     35  CA       -16.9870  -11.4060  -32.8480 C.3    40  ALA40       0.1597
     36  C        -15.7600  -10.5040  -32.6620 C.2    40  ALA40       0.2287
     37  O        -15.2120   -9.9710  -33.6220 O.2    40  ALA40      -0.2864
     38  CB       -18.2700  -10.6540  -32.4470 C.3    40  ALA40       0.0319
     39  N        -12.6970  -11.4140  -31.8700 N.3    42  ASP42      -0.1225
     40  CA       -11.5850  -12.0810  -32.5770 C.3    42  ASP42       0.1805
     41  C        -11.6960  -11.9200  -34.1010 C.2    42  ASP42       0.2597
     42  O        -10.6820  -11.9340  -34.7760 O.2    42  ASP42      -0.2718
     43  CB       -11.5430  -13.5670  -32.2750 C.3    42  ASP42       0.1424
     44  CG       -11.0260  -13.9100  -30.8590 C.2    42  ASP42       0.3668
     45  OD1      -10.3140  -13.0840  -30.2530 O.co2  42  ASP42      -0.2456
     46  OD2      -11.2950  -15.0770  -30.4390 O.co2  42  ASP42      -0.2456
     47  N        -12.9150  -11.7830  -34.6300 N.am   43  ALA43      -0.1979
     48  CA       -13.0890  -11.5630  -36.0640 C.3    43  ALA43       0.1597
     49  C        -12.9650  -10.0930  -36.4990 C.2    43  ALA43       0.2287
     50  O        -13.3580   -9.7490  -37.6130 O.2    43  ALA43      -0.2864
     51  CB       -14.4100  -12.1190  -36.4880 C.3    43  ALA43       0.0319
     52  N        -22.6300   -9.6140  -35.9430 N.3    68  ASP68      -0.1239
     53  CA       -21.4040   -8.8150  -35.9930 C.3    68  ASP68       0.1674
     54  C        -21.0310   -8.4340  -37.4260 C.2    68  ASP68       0.2266
     55  O        -21.4490   -9.1020  -38.3820 O.2    68  ASP68      -0.2867
     56  CB       -20.2740   -9.5230  -35.2860 C.3    68  ASP68       0.1410
     57  CG       -19.7020  -10.7300  -36.0290 C.2    68  ASP68       0.3668
     58  OD1      -19.1710  -10.6460  -37.1820 O.co2  68  ASP68      -0.2456
     59  OD2      -19.6810  -11.8310  -35.4470 O.co2  68  ASP68      -0.2456
     60  N        -16.2360  -12.4130  -41.0700 N.3    72  GLY72      -0.1210
     61  CA       -17.0180  -13.4650  -41.6790 C.3    72  GLY72       0.1956
     62  C        -16.1380  -14.6940  -41.9490 C.2    72  GLY72       0.2611
     63  O        -14.9790  -14.7630  -41.5060 O.2    72  GLY72      -0.2717
     64  N        -16.7130  -15.6840  -42.6050 N.am   73  MET73      -0.1979
     65  CA       -16.0510  -16.9560  -42.8730 C.3    73  MET73       0.1605
     66  C        -16.3290  -17.3930  -44.3010 C.2    73  MET73       0.2287
     67  O        -17.4750  -17.3720  -44.7220 O.2    73  MET73      -0.2864
     68  CB       -16.6010  -18.0140  -41.9170 C.3    73  MET73       0.0413
     69  CG       -16.0190  -17.8530  -40.4730 C.3    73  MET73       0.0598
     70  SD       -16.7460  -19.0620  -39.3580 S.3    73  MET73      -0.1393
     71  CE       -18.3260  -18.2770  -38.9750 C.3    73  MET73       0.0692
     72  N        -13.5500  -22.1120  -43.6920 N.3    77  ASP77      -0.1239
     73  CA       -13.5710  -21.5600  -42.3280 C.3    77  ASP77       0.1674
     74  C        -14.8560  -22.0640  -41.6280 C.2    77  ASP77       0.2266
     75  O        -14.8320  -22.5130  -40.5090 O.2    77  ASP77      -0.2867
     76  CB       -13.5980  -20.0040  -42.3000 C.3    77  ASP77       0.1410
     77  CG       -12.3790  -19.3150  -42.9860 C.2    77  ASP77       0.3668
     78  OD1      -11.2640  -19.8970  -42.8780 O.co2  77  ASP77      -0.2456
     79  OD2      -12.5590  -18.1710  -43.5900 O.co2  77  ASP77      -0.2456
     80  N        -14.7480  -25.5850  -40.4040 N.3    80  SER80      -0.1202
     81  CA       -13.9120  -25.8070  -39.2220 C.3    80  SER80       0.2020
     82  C        -14.5930  -25.3500  -37.9100 C.2    80  SER80       0.2618
     83  O        -14.1270  -25.6300  -36.8020 O.2    80  SER80      -0.2717
     84  CB       -12.5410  -25.1870  -39.4280 C.3    80  SER80       0.2103
     85  OG       -12.5760  -23.8370  -39.0660 O.3    80  SER80      -0.2182
     86  N        -15.7280  -24.6730  -38.0060 N.am   81  VAL81      -0.1979
     87  CA       -16.4720  -24.3290  -36.8010 C.3    81  VAL81       0.1595
     88  C        -16.8460  -25.5530  -35.9590 C.2    81  VAL81       0.2287
     89  O        -16.7610  -25.5000  -34.7240 O.2    81  VAL81      -0.2864
     90  CB       -17.7120  -23.5410  -37.1240 C.3    81  VAL81       0.0276
     91  CG1      -18.5300  -23.2880  -35.8760 C.3    81  VAL81       0.0022
     92  CG2      -17.3490  -22.2090  -37.7490 C.3    81  VAL81       0.0022
     93  N        -15.2210  -28.3920  -35.8710 N.3    83  GLN83      -0.1245
     94  CA       -14.1400  -29.1590  -35.4940 C.3    83  GLN83       0.1566
     95  C        -14.0020  -28.7290  -33.9870 C.2    83  GLN83       0.2260
     96  O        -13.9080  -27.5440  -33.5320 O.2    83  GLN83      -0.2867
     97  CB       -13.0050  -28.9640  -36.4190 C.3    83  GLN83       0.0367
     98  CG       -11.8870  -28.6600  -35.6040 C.3    83  GLN83       0.0905
     99  CD       -10.7390  -28.4000  -36.4500 C.2    83  GLN83       0.2608
    100  OE1      -10.7620  -28.7730  -37.6270 O.2    83  GLN83      -0.2717
    101  NE2       -9.8030  -27.6450  -35.9280 N.am   83  GLN83      -0.0878
    102  N         -8.6480  -26.8540  -32.0460 N.3    86  LYS86      -0.1245
    103  CA        -8.0590  -26.2620  -33.2480 C.3    86  LYS86       0.1561
    104  C         -6.9180  -27.1960  -33.7270 C.2    86  LYS86       0.2260
    105  O         -6.6420  -28.2690  -33.1450 O.2    86  LYS86      -0.2867
    106  CB        -7.4860  -24.9160  -32.8880 C.3    86  LYS86       0.0271
    107  CG        -8.5600  -23.9730  -32.3820 C.3    86  LYS86       0.0035
    108  CD        -7.8860  -22.6630  -32.0240 C.3    86  LYS86       0.0206
    109  CE        -8.3590  -21.4030  -32.7360 C.3    86  LYS86       0.1093
    110  NZ        -9.0870  -21.6510  -33.9850 N.3    86  LYS86      -0.1314
    111  N         -9.7690  -16.7380  -28.8020 N.3    98  GLY98      -0.1210
    112  CA       -10.0580  -18.1260  -29.1760 C.3    98  GLY98       0.1956
    113  C         -8.8080  -18.9780  -29.3470 C.2    98  GLY98       0.2612
    114  O         -7.9220  -18.6360  -30.1570 O.2    98  GLY98      -0.2717
    115  N         -8.6610  -20.0110  -28.5180 N.am   99  GLN99      -0.1965
    116  CA        -7.5400  -20.9340  -28.6130 C.3    99  GLN99       0.1733
    117  C         -7.9680  -22.3840  -28.4930 C.2    99  GLN99       0.2616
    118  O         -7.2930  -23.2510  -28.9830 O.2    99  GLN99      -0.2715
    119  CB        -6.4720  -20.6240  -27.5400 C.3    99  GLN99       0.0408
    120  CG        -5.8760  -19.1920  -27.5160 C.3    99  GLN99       0.0908
    121  CD        -4.9440  -18.8830  -28.7280 C.2    99  GLN99       0.2608
    122  OE1       -4.2570  -19.7730  -29.2170 O.2    99  GLN99      -0.2717
    123  NE2       -4.9530  -17.6310  -29.2220 N.am   99  GLN99      -0.0878
    124  N         -9.1180  -22.6470  -27.8490 N.am  100  TYR100     -0.1960
    125  CA        -9.5450  -23.9800  -27.4970 C.3   100  TYR100      0.1771
    126  C        -10.4280  -24.6980  -28.4940 C.2   100  TYR100      0.2620
    127  O        -10.6160  -25.9460  -28.4170 O.2   100  TYR100     -0.2715
    128  CB       -10.1960  -23.9850  -26.1090 C.3   100  TYR100      0.0574
    129  CG        -9.3010  -23.6890  -24.9640 C.ar  100  TYR100     -0.0198
    130  CD1       -7.8800  -23.7960  -25.0440 C.ar  100  TYR100     -0.0009
    131  CD2       -9.8570  -23.3520  -23.6950 C.ar  100  TYR100     -0.0009
    132  CE1       -7.1000  -23.4570  -23.9540 C.ar  100  TYR100      0.0417
    133  CE2       -9.0640  -23.1230  -22.5930 C.ar  100  TYR100      0.0417
    134  CZ        -7.6960  -23.1560  -22.7380 C.ar  100  TYR100      0.1957
    135  OH        -6.8960  -22.8670  -21.6560 O.3   100  TYR100     -0.2866
    136  N        -10.9050  -23.9860  -29.4770 N.am  101  GLY101     -0.1940
    137  CA       -11.7110  -24.5610  -30.4960 C.3   101  GLY101      0.2014
    138  C        -13.0510  -25.1310  -30.0240 C.2   101  GLY101      0.2639
    139  O        -13.5320  -26.1510  -30.5320 O.2   101  GLY101     -0.2714
    140  N        -13.6830  -24.4730  -29.0660 N.am  102  ASN102     -0.1958
    141  CA       -14.8080  -25.0610  -28.3570 C.3   102  ASN102      0.1819
    142  C        -15.9210  -24.0630  -27.9590 C.2   102  ASN102      0.2622
    143  O        -17.0920  -24.4880  -27.8250 O.2   102  ASN102     -0.2715
    144  CB       -14.2600  -25.6910  -27.0310 C.3   102  ASN102      0.1195
    145  CG       -15.2680  -26.6110  -26.3650 C.2   102  ASN102      0.2630
    146  OD1      -15.9480  -27.3500  -27.0360 O.2   102  ASN102     -0.2716
    147  ND2      -15.3800  -26.5330  -25.0740 N.am  102  ASN102     -0.0877
    148  N        -15.5840  -22.7910  -27.7580 N.am  103  GLY103     -0.1940
    149  CA       -16.4880  -21.8270  -27.0870 C.3   103  GLY103      0.2014
    150  C        -17.8540  -21.6920  -27.6790 C.2   103  GLY103      0.2639
    151  O        -18.8160  -21.6230  -26.9880 O.2   103  GLY103     -0.2714
    152  N        -17.9480  -21.6130  -28.9950 N.am  104  LEU104     -0.1963
    153  CA       -19.2220  -21.4740  -29.6030 C.3   104  LEU104      0.1728
    154  C        -20.1110  -22.7090  -29.3340 C.2   104  LEU104      0.2616
    155  O        -21.3150  -22.5850  -29.1200 O.2   104  LEU104     -0.2715
    156  CB       -19.0680  -21.3000  -31.1140 C.3   104  LEU104      0.0311
    157  CG       -20.3340  -21.3590  -31.9540 C.3   104  LEU104      0.0022
    158  CD1      -21.4090  -20.3450  -31.5740 C.3   104  LEU104      0.0001
    159  CD2      -19.9620  -21.1800  -33.4330 C.3   104  LEU104      0.0001
    160  N        -19.5320  -23.8920  -29.3010 N.am  105  LYS105     -0.1977
    161  CA       -20.3080  -25.0940  -29.0620 C.3   105  LYS105      0.1596
    162  C        -20.6580  -25.2070  -27.5720 C.2   105  LYS105      0.2287
    163  O        -21.8000  -25.4930  -27.2560 O.2   105  LYS105     -0.2864
    164  CB       -19.5670  -26.3310  -29.5720 C.3   105  LYS105      0.0298
    165  CG       -19.4680  -26.3400  -31.0890 C.3   105  LYS105      0.0038
    166  CD       -18.3140  -25.4800  -31.6810 C.3   105  LYS105      0.0206
    167  CE       -16.9410  -26.1120  -31.4680 C.3   105  LYS105      0.1093
    168  NZ       -15.8540  -25.2920  -32.1070 N.3   105  LYS105     -0.1314
    169  N        -26.2860  -20.5880  -37.8060 N.3   117  LEU117     -0.1245
    170  CA       -25.3360  -19.5080  -38.0100 C.3   117  LEU117      0.1561
    171  C        -25.3200  -19.1350  -39.5120 C.2   117  LEU117      0.2260
    172  O        -25.4220  -20.0120  -40.3760 O.2   117  LEU117     -0.2867
    173  CB       -23.9710  -19.9560  -37.5450 C.3   117  LEU117      0.0270
    174  CG       -22.6980  -19.1420  -37.8170 C.3   117  LEU117      0.0019
    175  CD1      -21.6750  -19.5840  -36.7920 C.3   117  LEU117      0.0001
    176  CD2      -22.1370  -19.3370  -39.2210 C.3   117  LEU117      0.0001
    177  N        -21.2170  -12.1170  -39.4950 N.3   197  THR197     -0.1218
    178  CA       -21.7550  -13.3400  -39.0280 C.3   197  THR197      0.1862
    179  C        -22.9550  -13.0500  -38.1310 C.2   197  THR197      0.2287
    180  O        -22.9150  -12.1300  -37.2890 O.2   197  THR197     -0.2866
    181  CB       -20.6990  -14.1590  -38.2530 C.3   197  THR197      0.1770
    182  OG1      -19.5530  -14.4180  -39.0860 O.3   197  THR197     -0.2211
    183  CG2      -21.2620  -15.4230  -37.7330 C.3   197  THR197      0.0375
    184  N        -25.3530  -15.3400  -35.5410 N.3   199  VAL199     -0.1245
    185  CA       -25.5680  -16.5820  -34.8440 C.3   199  VAL199      0.1561
    186  C        -26.9140  -16.4740  -34.1160 C.2   199  VAL199      0.2260
    187  O        -27.1390  -15.5350  -33.3490 O.2   199  VAL199     -0.2867
    188  CB       -24.4560  -16.8670  -33.7920 C.3   199  VAL199      0.0252
    189  CG1      -24.6050  -18.2660  -33.2050 C.3   199  VAL199      0.0019
    190  CG2      -23.0660  -16.6540  -34.3720 C.3   199  VAL199      0.0019
    191  N        -13.6580  -20.6590  -19.3680 N.3   425  LYS425     -0.1245
    192  CA       -13.1370  -19.2860  -19.3600 C.3   425  LYS425      0.1561
    193  C        -13.7110  -18.4620  -18.2200 C.2   425  LYS425      0.2260
    194  O        -13.9050  -17.2680  -18.3580 O.2   425  LYS425     -0.2867
    195  CB       -13.2780  -18.5930  -20.7310 C.3   425  LYS425      0.0271
    196  CG       -12.6430  -19.4510  -21.8400 C.3   425  LYS425      0.0035
    197  CD       -12.0780  -18.6440  -22.9680 C.3   425  LYS425      0.0206
    198  CE       -11.5110  -19.5860  -24.0560 C.3   425  LYS425      0.1093
    199  NZ       -11.2240  -18.7830  -25.2610 N.3   425  LYS425     -0.1314
@<TRIPOS>BOND
     1    67    66    2
     2    66    65    1
     3    72    73    1
     4    79    77   ar
     5    77    78   ar
     6    77    76    1
     7    65    64    1
     8    65    68    1
     9    64    62   am
    10    73    76    1
    11    73    74    1
    12    62    61    1
    13    62    63    2
    14    68    69    1
    15    61    60    1
    16    74    75    2
    17    69    70    1
    18    80    81    1
    19   172   171    2
    20   171   170    1
    21   177   178    1
    22    84    81    1
    23    84    85    1
    24    70    71    1
    25    81    82    1
    26   176   174    1
    27   182   181    1
    28   178   181    1
    29   178   179    1
    30    55    54    2
    31   181   183    1
    32   179   180    2
    33   170   169    1
    34   170   173    1
    35    86    82   am
    36    86    87    1
    37    82    83    2
    38   174   173    1
    39   174   175    1
    40    92    90    1
    41   100    99    2
    42    50    49    2
    43    54    53    1
    44    58    57   ar
    45    90    87    1
    46    90    91    1
    47    87    88    1
    48    49    48    1
    49    51    48    1
    50    99   101   am
    51    99    98    1
    52    97    98    1
    53    97    94    1
    54    48    47    1
    55    57    59   ar
    56    57    56    1
    57    53    52    1
    58    53    56    1
    59    88    89    2
    60    93    94    1
    61   184   185    1
    62    94    95    1
    63   185   186    1
    64   185   188    1
    65    42    41    2
    66    47    41   am
    67   190   188    1
    68   186   187    2
    69    41    40    1
    70    95    96    2
    71   110   109    1
    72   188   189    1
    73   104   103    1
    74   104   105    2
    75    37    36    2
    76   159   157    1
    77    29    28    2
    78   103   106    1
    79   103   102    1
    80   106   107    1
    81    35    36    1
    82    35    38    1
    83    35    34    1
    84   109   108    1
    85    40    43    1
    86    40    39    1
    87   107   108    1
    88    28    34   am
    89    28    27    1
    90    43    44    1
    91   168   167    1
    92   157   158    1
    93   157   156    1
    94    30    27    1
    95    30    31    1
    96   166   167    1
    97   166   165    1
    98    27    26    1
    99    33    31   am
   100    31    32    2
   101   156   153    1
   102   165   164    1
   103    44    46   ar
   104    44    45   ar
   105   139   138    2
   106   137   138    1
   107   137   136    1
   108   114   113    2
   109    13    12    2
   110   138   140   am
   111    21    20    2
   112    26    20   am
   113    17    15    1
   114   153   154    1
   115   153   152    1
   116   164   161    1
   117   136   126   am
   118    20    19    1
   119   113   112    1
   120   113   115   am
   121   154   160   am
   122   154   155    2
   123   160   161    1
   124   123   121   am
   125   122   121    2
   126    15    14    1
   127    15    16    1
   128   112   111    1
   129   140   141    1
   130   161   162    1
   131    12    11    1
   132   152   150   am
   133   118   117    2
   134    14    11    1
   135    11    10    1
   136   121   120    1
   137   116   115    1
   138   116   117    1
   139   116   119    1
   140   126   127    2
   141   126   125    1
   142   117   124   am
   143   141   142    1
   144   141   144    1
   145     4     3    2
   146   142   143    2
   147   142   148   am
   148    19    18    1
   149    19    22    1
   150   124   125    1
   151   148   149    1
   152   150   149    1
   153   150   151    2
   154   162   163    2
   155   119   120    1
   156   125   128    1
   157    10     3   am
   158     3     2    1
   159    22    23    1
   160   146   145    2
   161   144   145    1
   162   145   147   am
   163   128   129    1
   164     2     5    1
   165     2     1    1
   166     5     6    1
   167    23    24   ar
   168    23    25   ar
   169     9     7   ar
   170   199   198    1
   171   130   129   ar
   172   130   132   ar
   173   129   131   ar
   174     7     6    1
   175     7     8   ar
   176   198   197    1
   177   132   134   ar
   178   131   133   ar
   179   197   196    1
   180   134   133   ar
   181   134   135    1
   182   196   195    1
   183   195   192    1
   184   191   192    1
   185   192   193    1
   186   194   193    2
