@<TRIPOS>MOLECULE
tmp/5ofiA00.pdb
 98 94 0 0 0
SMALL
GASTEIGER

@<TRIPOS>ATOM
      1  N         15.1710    2.8380  -46.8800 N.3    37  TYR37      -0.1227
      2  CA        13.8390    3.3350  -46.5690 C.3    37  TYR37       0.1736
      3  C         13.2520    4.1330  -47.7230 C.2    37  TYR37       0.2596
      4  O         12.1820    4.7260  -47.5740 O.2    37  TYR37      -0.2718
      5  CB        13.8570    4.1740  -45.2840 C.3    37  TYR37       0.0548
      6  CG        14.6980    5.4370  -45.3170 C.ar   37  TYR37      -0.0200
      7  CD1       14.1240    6.6680  -45.6060 C.ar   37  TYR37      -0.0009
      8  CD2       16.0550    5.4010  -45.0220 C.ar   37  TYR37      -0.0009
      9  CE1       14.8810    7.8280  -45.6190 C.ar   37  TYR37       0.0417
     10  CE2       16.8210    6.5500  -45.0330 C.ar   37  TYR37       0.0417
     11  CZ        16.2310    7.7590  -45.3320 C.ar   37  TYR37       0.1957
     12  OH        17.0040    8.8960  -45.3410 O.3    37  TYR37      -0.2866
     13  N         13.9260    4.1450  -48.8680 N.am   38  GLY38      -0.1957
     14  CA        13.4090    4.7440  -50.0840 C.3    38  GLY38       0.1869
     15  C         14.3140    4.3660  -51.2360 C.2    38  GLY38       0.2309
     16  O         15.3720    3.7580  -51.0500 O.2    38  GLY38      -0.2863
     17  N         18.9410    7.2010  -49.3040 N.3    43  GLU43      -0.1245
     18  CA        17.9690    6.7540  -48.3050 C.3    43  GLU43       0.1567
     19  C         18.3390    5.3710  -47.7650 C.2    43  GLU43       0.2260
     20  O         17.5650    4.4120  -47.7970 O.2    43  GLU43      -0.2867
     21  CB        16.5660    6.7820  -48.8970 C.3    43  GLU43       0.0388
     22  CG        16.0890    8.2030  -49.1500 C.3    43  GLU43       0.1160
     23  CD        14.7810    8.2720  -49.9050 C.2    43  GLU43       0.3649
     24  OE1       14.6310    7.5520  -50.9140 O.co2  43  GLU43      -0.2457
     25  OE2       13.9030    9.0540  -49.4890 O.co2  43  GLU43      -0.2457
     26  N         20.7880   12.8240  -44.5810 N.3    54  ASN54      -0.1240
     27  CA        19.3840   12.9290  -44.9880 C.3    54  ASN54       0.1653
     28  C         18.5080   12.5530  -43.7980 C.2    54  ASN54       0.2266
     29  O         17.7470   11.5820  -43.8420 O.2    54  ASN54      -0.2867
     30  CB        19.1000   12.0360  -46.1970 C.3    54  ASN54       0.1155
     31  CG        17.7600   12.3400  -46.8470 C.2    54  ASN54       0.2627
     32  OD1       17.5270   13.4490  -47.3260 O.2    54  ASN54      -0.2716
     33  ND2       16.8780   11.3510  -46.8790 N.am   54  ASN54      -0.0877
     34  N         15.7940   11.9780  -40.9090 N.3    56  GLN56      -0.1231
     35  CA        14.3520   11.8510  -40.8320 C.3    56  GLN56       0.1683
     36  C         13.8750   12.1800  -39.4280 C.2    56  GLN56       0.2434
     37  O         14.6780   12.3000  -38.4950 O.2    56  GLN56      -0.2733
     38  CB        13.9360   10.4280  -41.2230 C.3    56  GLN56       0.0380
     39  CG        14.3080   10.0800  -42.6560 C.3    56  GLN56       0.0905
     40  CD        13.7700   11.0880  -43.6480 C.2    56  GLN56       0.2608
     41  OE1       12.5890   11.4320  -43.6150 O.2    56  GLN56      -0.2717
     42  NE2       14.6390   11.5810  -44.5300 N.am   56  GLN56      -0.0878
     43  N         12.5670   12.3510  -39.2360 N.am   57  PRO57      -0.2729
     44  CA        12.0590   12.6860  -37.9030 C.3    57  PRO57       0.1401
     45  C         12.4510   11.6380  -36.8680 C.2    57  PRO57       0.2269
     46  O         12.7430   10.4810  -37.1820 O.2    57  PRO57      -0.2865
     47  CB        10.5420   12.7430  -38.1100 C.3    57  PRO57       0.0296
     48  CG        10.3870   13.0960  -39.5510 C.3    57  PRO57       0.0237
     49  CD        11.4990   12.3850  -40.2520 C.3    57  PRO57       0.0939
     50  N         12.2180    7.6760  -36.6780 N.3    60  ILE60      -0.1245
     51  CA        11.7870    7.1700  -37.9760 C.3    60  ILE60       0.1561
     52  C         12.9350    6.4350  -38.6550 C.2    60  ILE60       0.2260
     53  O         14.0780    6.9100  -38.6850 O.2    60  ILE60      -0.2867
     54  CB        11.2630    8.3200  -38.8550 C.3    60  ILE60       0.0252
     55  CG1        9.9780    8.9110  -38.2560 C.3    60  ILE60       0.0019
     56  CG2       11.0510    7.8580  -40.3030 C.3    60  ILE60       0.0019
     57  CD1        8.8560    7.9060  -37.9960 C.3    60  ILE60       0.0001
     58  N          9.5350    2.7430  -39.9580 N.3    95  ASP95      -0.1225
     59  CA         9.2820    3.7270  -40.9970 C.3    95  ASP95       0.1805
     60  C          7.9290    4.3940  -40.7680 C.2    95  ASP95       0.2598
     61  O          7.0850    3.9030  -40.0140 O.2    95  ASP95      -0.2718
     62  CB         9.3220    3.0760  -42.3790 C.3    95  ASP95       0.1424
     63  CG         9.7130    4.0530  -43.4740 C.2    95  ASP95       0.3668
     64  OD1        9.8100    5.2680  -43.1950 O.co2  95  ASP95      -0.2456
     65  OD2        9.9300    3.6030  -44.6160 O.co2  95  ASP95      -0.2456
     66  N          7.7390    5.5400  -41.4140 N.am   96  VAL96      -0.1966
     67  CA         6.4470    6.2290  -41.3080 C.3    96  VAL96       0.1712
     68  C          5.3490    5.2960  -41.8080 C.2    96  VAL96       0.2458
     69  O          5.4880    4.7130  -42.9010 O.2    96  VAL96      -0.2730
     70  CB         6.4700    7.5390  -42.1160 C.3    96  VAL96       0.0289
     71  CG1        5.0740    8.1520  -42.2200 C.3    96  VAL96       0.0023
     72  CG2        7.4330    8.5320  -41.4840 C.3    96  VAL96       0.0023
     73  N          4.2600    5.0940  -41.0670 N.am   97  PRO97      -0.2716
     74  CA         3.2030    4.2020  -41.5580 C.3    97  PRO97       0.1536
     75  C          2.7660    4.5820  -42.9670 C.2    97  PRO97       0.2599
     76  O          2.6190    5.7590  -43.2990 O.2    97  PRO97      -0.2715
     77  CB         2.0750    4.3960  -40.5390 C.3    97  PRO97       0.0310
     78  CG         2.7630    4.8100  -39.2980 C.3    97  PRO97       0.0237
     79  CD         3.9490    5.6230  -39.7260 C.3    97  PRO97       0.0939
     80  N          2.5620    3.5630  -43.8010 N.am   98  GLY98      -0.1941
     81  CA         2.1530    3.7560  -45.1740 C.3    98  GLY98       0.2014
     82  C          3.2830    3.9350  -46.1700 C.2    98  GLY98       0.2639
     83  O          3.0240    3.9150  -47.3820 O.2    98  GLY98      -0.2714
     84  N          4.5260    4.0930  -45.7130 N.am   99  THR99      -0.1950
     85  CA         5.6510    4.3660  -46.6010 C.3    99  THR99       0.1897
     86  C          6.6430    3.2080  -46.6350 C.2    99  THR99       0.2313
     87  O          7.8260    3.4080  -46.9140 O.2    99  THR99      -0.2863
     88  CB         6.3650    5.6530  -46.1900 C.3    99  THR99       0.1794
     89  OG1        7.1360    5.4220  -45.0040 O.3    99  THR99      -0.2208
     90  CG2        5.3650    6.7750  -45.9390 C.3    99  THR99       0.0378
     91  N          8.4470    1.4290  -50.5620 N.3   102  ASP102     -0.1239
     92  CA         9.6860    1.7190  -51.2690 C.3   102  ASP102      0.1674
     93  C         10.9160    1.2730  -50.4910 C.2   102  ASP102      0.2266
     94  O         12.0310    1.6750  -50.8350 O.2   102  ASP102     -0.2867
     95  CB         9.7730    3.2150  -51.5920 C.3   102  ASP102      0.1410
     96  CG         9.7090    4.0930  -50.3570 C.2   102  ASP102      0.3668
     97  OD1        9.6440    3.5500  -49.2350 O.co2 102  ASP102     -0.2456
     98  OD2        9.7210    5.3350  -50.5090 O.co2 102  ASP102     -0.2456
@<TRIPOS>BOND
     1    95    92    1
     2    95    96    1
     3    92    91    1
     4    92    93    1
     5    15    16    2
     6    15    14    1
     7    24    23   ar
     8    94    93    2
     9    98    96   ar
    10    96    97   ar
    11    14    13    1
    12    23    25   ar
    13    23    22    1
    14    17    18    1
    15    22    21    1
    16    21    18    1
    17    13     3   am
    18    18    19    1
    19    20    19    2
    20     3     4    2
    21     3     2    1
    22    83    82    2
    23    32    31    2
    24    87    86    2
    25     1     2    1
    26    33    31   am
    27    31    30    1
    28    86    85    1
    29    85    88    1
    30    85    84    1
    31     2     5    1
    32    30    27    1
    33    88    90    1
    34    88    89    1
    35    82    84   am
    36    82    81    1
    37     9     7   ar
    38     9    11   ar
    39     7     6   ar
    40    12    11    1
    41    11    10   ar
    42     6     5    1
    43     6     8   ar
    44    81    80    1
    45    10     8   ar
    46    27    26    1
    47    27    28    1
    48    65    63   ar
    49    42    40   am
    50    29    28    2
    51    80    75   am
    52    40    41    2
    53    40    39    1
    54    63    64   ar
    55    63    62    1
    56    76    75    2
    57    75    74    1
    58    69    68    2
    59    39    38    1
    60    62    59    1
    61    71    70    1
    62    70    72    1
    63    70    67    1
    64    68    67    1
    65    68    73   am
    66    74    73    1
    67    74    77    1
    68    66    67    1
    69    66    60   am
    70    38    35    1
    71    73    79    1
    72    59    60    1
    73    59    58    1
    74    34    35    1
    75    35    36    1
    76    60    61    2
    77    77    78    1
    78    56    54    1
    79    49    48    1
    80    49    43    1
    81    79    78    1
    82    48    47    1
    83    36    43   am
    84    36    37    2
    85    43    44    1
    86    54    55    1
    87    54    51    1
    88    53    52    2
    89    52    51    1
    90    55    57    1
    91    47    44    1
    92    51    50    1
    93    44    45    1
    94    46    45    2
