@<TRIPOS>MOLECULE
tmp/5ofkA05.pdb
 105 107 0 0 0
SMALL
GASTEIGER

@<TRIPOS>ATOM
      1  N         15.3950  143.2250   55.8320 N.3   188  TYR188     -0.1227
      2  CA        15.6730  142.7300   54.4860 C.3   188  TYR188      0.1736
      3  C         15.8510  143.9090   53.5370 C.2   188  TYR188      0.2595
      4  O         15.5500  145.0600   53.8670 O.2   188  TYR188     -0.2718
      5  CB        14.5550  141.8050   53.9600 C.3   188  TYR188      0.0548
      6  CG        13.2610  142.5100   53.7060 C.ar  188  TYR188     -0.0200
      7  CD1       12.3770  142.7430   54.7520 C.ar  188  TYR188     -0.0009
      8  CD2       12.9060  142.9510   52.4470 C.ar  188  TYR188     -0.0009
      9  CE1       11.2080  143.4150   54.5610 C.ar  188  TYR188      0.0417
     10  CE2       11.7200  143.6230   52.2420 C.ar  188  TYR188      0.0417
     11  CZ        10.8730  143.8570   53.3180 C.ar  188  TYR188      0.1957
     12  OH         9.6760  144.5100   53.1800 O.3   188  TYR188     -0.2866
     13  N         16.3240  143.6070   52.3230 N.am  189  ASN189     -0.1974
     14  CA        16.5240  144.6290   51.2840 C.3   189  ASN189      0.1688
     15  C         17.5610  145.6650   51.7090 C.2   189  ASN189      0.2292
     16  O         17.4990  146.8320   51.3230 O.2   189  ASN189     -0.2864
     17  CB        15.2180  145.2910   50.8220 C.3   189  ASN189      0.1181
     18  CG        14.5330  144.5460   49.7000 C.2   189  ASN189      0.2629
     19  OD1       15.0850  143.6280   49.1420 O.2   189  ASN189     -0.2716
     20  ND2       13.3280  144.9730   49.3430 N.am  189  ASN189     -0.0877
     21  N         17.6460  137.5730   52.3370 N.3   221  HIS221     -0.1226
     22  CA        16.7080  136.7810   51.5370 C.3   221  HIS221      0.1752
     23  C         16.9630  137.1930   50.1030 C.2   221  HIS221      0.2596
     24  O         16.4390  138.2120   49.6350 O.2   221  HIS221     -0.2718
     25  CB        15.2720  137.0900   51.9280 C.3   221  HIS221      0.0759
     26  CG        14.8860  136.5140   53.2440 C.ar  221  HIS221      0.0818
     27  ND1       14.8410  135.1590   53.4700 N.ar  221  HIS221     -0.2268
     28  CD2       14.5000  137.1090   54.3960 C.ar  221  HIS221      0.1154
     29  CE1       14.4580  134.9400   54.7190 C.ar  221  HIS221      0.1986
     30  NE2       14.2220  136.1110   55.2930 N.ar  221  HIS221     -0.2212
     31  N         17.8240  136.4370   49.4090 N.am  222  ILE222     -0.1966
     32  CA        18.3600  136.8160   48.1050 C.3   222  ILE222      0.1727
     33  C         18.0120  135.7610   47.0730 C.2   222  ILE222      0.2616
     34  O         17.2170  134.8520   47.3330 O.2   222  ILE222     -0.2715
     35  CB        19.8700  137.1030   48.1910 C.3   222  ILE222      0.0290
     36  CG1       20.6880  135.8420   48.5490 C.3   222  ILE222      0.0022
     37  CG2       20.1000  138.2410   49.2010 C.3   222  ILE222      0.0023
     38  CD1       22.2130  136.0170   48.5520 C.3   222  ILE222      0.0001
     39  N         18.5520  135.9150   45.8650 N.am  223  ASN223     -0.1972
     40  CA        18.3050  134.9380   44.8110 C.3   223  ASN223      0.1688
     41  C         19.5630  134.8110   43.9740 C.2   223  ASN223      0.2292
     42  O         20.5440  135.5050   44.2120 O.2   223  ASN223     -0.2864
     43  CB        17.0230  135.2280   44.0010 C.3   223  ASN223      0.1181
     44  CG        17.1190  136.4660   43.1310 C.2   223  ASN223      0.2629
     45  OD1       17.9860  136.5710   42.2680 O.2   223  ASN223     -0.2716
     46  ND2       16.1990  137.4030   43.3190 N.am  223  ASN223     -0.0877
     47  N         20.3400  138.3160   42.1560 N.3   226  TRP226     -0.1241
     48  CA        20.2980  139.6280   42.7870 C.3   226  TRP226      0.1605
     49  C         20.2720  139.4210   44.2960 C.2   226  TRP226      0.2264
     50  O         19.6400  138.4660   44.7620 O.2   226  TRP226     -0.2867
     51  CB        19.0420  140.3930   42.3480 C.3   226  TRP226      0.0550
     52  CG        19.0520  141.8230   42.8010 C.ar  226  TRP226      0.0003
     53  CD1       19.5270  142.8890   42.1040 C.ar  226  TRP226      0.0946
     54  CD2       18.6040  142.3270   44.0580 C.ar  226  TRP226      0.0152
     55  NE1       19.3990  144.0340   42.8500 N.ar  226  TRP226     -0.2442
     56  CE2       18.8390  143.7170   44.0560 C.ar  226  TRP226      0.0810
     57  CE3       18.0430  141.7400   45.1840 C.ar  226  TRP226      0.0012
     58  CZ2       18.5080  144.5390   45.1450 C.ar  226  TRP226      0.0191
     59  CZ3       17.7130  142.5510   46.2740 C.ar  226  TRP226      0.0001
     60  CH2       17.9610  143.9400   46.2390 C.ar  226  TRP226      0.0015
     61  N         13.0960  137.5510   41.0700 N.3   259  TYR259     -0.1241
     62  CA        11.9710  138.0740   41.8210 C.3   259  TYR259      0.1605
     63  C         10.8480  138.5070   40.8850 C.2   259  TYR259      0.2264
     64  O         11.0770  139.2670   39.9370 O.2   259  TYR259     -0.2867
     65  CB        12.4870  139.2940   42.5560 C.3   259  TYR259      0.0534
     66  CG        11.4640  140.0580   43.3650 C.ar  259  TYR259     -0.0201
     67  CD1       10.8310  139.4780   44.4400 C.ar  259  TYR259     -0.0009
     68  CD2       11.1540  141.3780   43.0500 C.ar  259  TYR259     -0.0009
     69  CE1        9.9130  140.2130   45.1880 C.ar  259  TYR259      0.0417
     70  CE2       10.2550  142.1060   43.7920 C.ar  259  TYR259      0.0417
     71  CZ         9.6370  141.5070   44.8530 C.ar  259  TYR259      0.1957
     72  OH         8.7430  142.2600   45.5920 O.3   259  TYR259     -0.2866
     73  N         10.2730  128.4560   53.5270 N.3   308  TRP308     -0.1227
     74  CA         9.1250  129.3390   53.4800 C.3   308  TRP308      0.1737
     75  C          8.8590  129.8630   52.0830 C.2   308  TRP308      0.2595
     76  O          7.7330  130.3010   51.8140 O.2   308  TRP308     -0.2718
     77  CB         9.3630  130.5180   54.4280 C.3   308  TRP308      0.0564
     78  CG        10.3220  131.5410   53.9130 C.ar  308  TRP308      0.0003
     79  CD1       11.6560  131.3760   53.6920 C.ar  308  TRP308      0.0946
     80  CD2       10.0140  132.8900   53.5440 C.ar  308  TRP308      0.0152
     81  NE1       12.2050  132.5390   53.1810 N.ar  308  TRP308     -0.2442
     82  CE2       11.2070  133.4810   53.0860 C.ar  308  TRP308      0.0810
     83  CE3        8.8310  133.6440   53.5170 C.ar  308  TRP308      0.0012
     84  CZ2       11.2510  134.8020   52.6260 C.ar  308  TRP308      0.0191
     85  CZ3        8.8880  134.9470   53.0540 C.ar  308  TRP308      0.0001
     86  CH2       10.0810  135.5160   52.6270 C.ar  308  TRP308      0.0015
     87  N          9.8480  129.8510   51.1980 N.am  309  LEU309     -0.1980
     88  CA         9.6440  130.3950   49.8540 C.3   309  LEU309      0.1596
     89  C          8.6290  129.5940   49.0570 C.2   309  LEU309      0.2287
     90  O          8.0000  130.1320   48.1320 O.2   309  LEU309     -0.2864
     91  CB        10.9790  130.4950   49.1060 C.3   309  LEU309      0.0297
     92  CG        11.8980  131.5630   49.6900 C.3   309  LEU309      0.0022
     93  CD1       13.2300  131.5110   48.9780 C.3   309  LEU309      0.0001
     94  CD2       11.3020  132.9430   49.5900 C.3   309  LEU309      0.0001
     95  N          5.4610  131.0800   50.1890 N.3   312  PHE312     -0.1241
     96  CA         5.4550  132.5170   49.9200 C.3   312  PHE312      0.1605
     97  C          5.1130  132.8020   48.4610 C.2   312  PHE312      0.2264
     98  O          4.3200  133.7090   48.1590 O.2   312  PHE312     -0.2867
     99  CB         6.8220  133.1010   50.2710 C.3   312  PHE312      0.0534
    100  CG         6.9260  134.6120   50.1840 C.ar  312  PHE312     -0.0203
    101  CD1        6.1100  135.4180   50.9410 C.ar  312  PHE312     -0.0042
    102  CD2        7.9080  135.1990   49.4090 C.ar  312  PHE312     -0.0042
    103  CE1        6.2650  136.8080   50.9040 C.ar  312  PHE312     -0.0003
    104  CE2        8.0610  136.5900   49.3660 C.ar  312  PHE312     -0.0003
    105  CZ         7.2360  137.3780   50.1110 C.ar  312  PHE312     -0.0000
@<TRIPOS>BOND
     1    64    63    2
     2    63    62    1
     3    61    62    1
     4    62    65    1
     5    53    52   ar
     6    53    55   ar
     7    47    48    1
     8    45    44    2
     9    51    48    1
    10    51    52    1
    11    65    66    1
    12    48    49    1
    13    52    54   ar
    14    55    56   ar
    15    68    66   ar
    16    68    70   ar
    17    44    46   am
    18    44    43    1
    19    66    67   ar
    20    70    71   ar
    21    41    42    2
    22    41    40    1
    23    43    40    1
    24    56    54   ar
    25    56    58   ar
    26    54    57   ar
    27    49    50    2
    28    67    69   ar
    29    40    39    1
    30    71    69   ar
    31    71    72    1
    32    58    60   ar
    33    57    59   ar
    34    39    33   am
    35    60    59   ar
    36    33    34    2
    37    33    32    1
    38    32    35    1
    39    32    31    1
    40    90    89    2
    41    98    97    2
    42    35    36    1
    43    35    37    1
    44    97    96    1
    45    36    38    1
    46    93    92    1
    47    89    88    1
    48    91    92    1
    49    91    88    1
    50    19    18    2
    51    20    18   am
    52   104   102   ar
    53   104   105   ar
    54    31    23   am
    55   102   100   ar
    56    94    92    1
    57    24    23    2
    58    18    17    1
    59    88    87    1
    60    96    95    1
    61    96    99    1
    62    23    22    1
    63   105   103   ar
    64   100    99    1
    65   100   101   ar
    66    17    14    1
    67   103   101   ar
    68    87    75   am
    69    14    15    1
    70    14    13    1
    71    16    15    2
    72    22    25    1
    73    22    21    1
    74    76    75    2
    75    25    26    1
    76    75    74    1
    77    10     8   ar
    78    10    11   ar
    79    13     3   am
    80     8     6   ar
    81    84    86   ar
    82    84    82   ar
    83    86    85   ar
    84    85    83   ar
    85    82    81   ar
    86    82    80   ar
    87    12    11    1
    88    81    79   ar
    89    26    27   ar
    90    26    28   ar
    91    11     9   ar
    92    27    29   ar
    93    74    73    1
    94    74    77    1
    95    83    80   ar
    96     3     4    2
    97     3     2    1
    98    80    78   ar
    99    79    78   ar
   100     6     5    1
   101     6     7   ar
   102    78    77    1
   103     5     2    1
   104    28    30   ar
   105     2     1    1
   106     9     7   ar
   107    29    30   ar
