@<TRIPOS>MOLECULE
tmp/5ofkA03.pdb
 144 141 0 0 0
SMALL
GASTEIGER

@<TRIPOS>ATOM
      1  N         11.5420  129.4840   63.7530 N.3    49  GLU49      -0.1231
      2  CA        11.0350  130.0690   62.5130 C.3    49  GLU49       0.1699
      3  C          9.8080  130.9400   62.7470 C.2    49  GLU49       0.2592
      4  O          9.6280  131.9870   62.1020 O.2    49  GLU49      -0.2718
      5  CB        10.7160  128.9650   61.5100 C.3    49  GLU49       0.0402
      6  CG        10.4230  129.5110   60.1170 C.3    49  GLU49       0.1161
      7  CD        10.2450  128.4430   59.0650 C.2    49  GLU49       0.3649
      8  OE1       10.2110  127.2270   59.4220 O.co2  49  GLU49      -0.2457
      9  OE2       10.1300  128.8150   57.8670 O.co2  49  GLU49      -0.2457
     10  N          8.9430  130.5130   63.6670 N.am   50  ASN50      -0.1974
     11  CA         7.7240  131.2550   63.9900 C.3    50  ASN50       0.1688
     12  C          7.3930  131.3080   65.4580 C.2    50  ASN50       0.2292
     13  O          6.6180  132.1930   65.8660 O.2    50  ASN50      -0.2864
     14  CB         6.4970  130.6660   63.2850 C.3    50  ASN50       0.1181
     15  CG         6.5470  130.8810   61.8080 C.2    50  ASN50       0.2629
     16  OD1        6.4600  132.0050   61.3250 O.2    50  ASN50      -0.2716
     17  ND2        6.7370  129.7890   61.0770 N.am   50  ASN50      -0.0877
     18  N          7.6450  134.5470   67.7180 N.3    53  LYS53      -0.1245
     19  CA         7.0120  135.7640   67.2530 C.3    53  LYS53       0.1561
     20  C          5.8400  136.1400   68.1550 C.2    53  LYS53       0.2260
     21  O          5.2930  135.3050   68.8760 O.2    53  LYS53      -0.2867
     22  CB         6.5320  135.5790   65.8140 C.3    53  LYS53       0.0271
     23  CG         7.6780  135.4420   64.8500 C.3    53  LYS53       0.0035
     24  CD         7.2140  134.9900   63.4820 C.3    53  LYS53       0.0206
     25  CE         8.4010  134.9010   62.5490 C.3    53  LYS53       0.1093
     26  NZ         8.0860  134.3670   61.1920 N.3    53  LYS53      -0.1314
     27  N         13.5710  135.5700   67.9200 N.3    90  HIS90      -0.1241
     28  CA        12.9710  136.2580   66.7840 C.3    90  HIS90       0.1621
     29  C         11.4620  136.2190   66.9640 C.2    90  HIS90       0.2264
     30  O         10.8820  135.1300   66.9450 O.2    90  HIS90      -0.2867
     31  CB        13.3960  135.5120   65.5190 C.3    90  HIS90       0.0745
     32  CG        12.8460  136.0820   64.2520 C.ar   90  HIS90       0.0817
     33  ND1       13.3940  137.1910   63.6380 N.ar   90  HIS90      -0.2268
     34  CD2       11.8190  135.6850   63.4660 C.ar   90  HIS90       0.1154
     35  CE1       12.7050  137.4570   62.5330 C.ar   90  HIS90       0.1986
     36  NE2       11.7290  136.5740   62.4180 N.ar   90  HIS90      -0.2212
     37  N          7.2150  143.6330   65.5720 N.3    94  TRP94      -0.1241
     38  CA         7.1030  143.4340   64.1290 C.3    94  TRP94       0.1605
     39  C          5.6870  143.7320   63.6940 C.2    94  TRP94       0.2264
     40  O          4.7390  143.3620   64.3910 O.2    94  TRP94      -0.2867
     41  CB         7.4200  141.9900   63.7650 C.3    94  TRP94       0.0550
     42  CG         7.6050  141.6970   62.3230 C.ar   94  TRP94       0.0003
     43  CD1        7.9130  142.5790   61.3220 C.ar   94  TRP94       0.0946
     44  CD2        7.5410  140.3990   61.7150 C.ar   94  TRP94       0.0152
     45  NE1        8.0350  141.8950   60.1200 N.ar   94  TRP94      -0.2442
     46  CE2        7.8180  140.5640   60.3430 C.ar   94  TRP94       0.0810
     47  CE3        7.2680  139.1040   62.1980 C.ar   94  TRP94       0.0012
     48  CZ2        7.8110  139.5040   59.4490 C.ar   94  TRP94       0.0191
     49  CZ3        7.2700  138.0740   61.3300 C.ar   94  TRP94       0.0001
     50  CH2        7.5530  138.2620   59.9730 C.ar   94  TRP94       0.0015
     51  N          2.6810  139.1580   61.9030 N.3    97  GLN97      -0.1245
     52  CA         2.5840  138.0620   62.8660 C.3    97  GLN97       0.1566
     53  C          2.4670  138.5890   64.2910 C.2    97  GLN97       0.2260
     54  O          3.0150  138.0300   65.2440 O.2    97  GLN97      -0.2867
     55  CB         3.6810  137.0090   62.6940 C.3    97  GLN97       0.0367
     56  CG         3.4620  136.2210   61.4070 C.3    97  GLN97       0.0905
     57  CD         4.5200  135.1630   61.1600 C.2    97  GLN97       0.2608
     58  OE1        5.5140  135.4110   60.4790 O.2    97  GLN97      -0.2717
     59  NE2        4.3150  133.9910   61.7160 N.am   97  GLN97      -0.0878
     60  N         11.9810  144.2020   64.0260 N.3   142  ASN142     -0.1225
     61  CA        12.0530  143.5920   62.7030 C.3   142  ASN142      0.1785
     62  C         11.3280  144.4920   61.6990 C.2   142  ASN142      0.2597
     63  O         10.1430  144.8280   61.8740 O.2   142  ASN142     -0.2718
     64  CB        11.3750  142.2130   62.7790 C.3   142  ASN142      0.1169
     65  CG        11.8710  141.2130   61.7480 C.2   142  ASN142      0.2627
     66  OD1       13.0610  141.1400   61.4670 O.2   142  ASN142     -0.2716
     67  ND2       10.9590  140.4480   61.1730 N.am  142  ASN142     -0.0877
     68  N         12.0440  144.8920   60.6370 N.am  143  GLN143     -0.1979
     69  CA        11.4150  145.4620   59.4340 C.3   143  GLN143      0.1601
     70  C         10.6220  146.7390   59.7070 C.2   143  GLN143      0.2287
     71  O          9.5030  146.9220   59.2140 O.2   143  GLN143     -0.2864
     72  CB        10.5350  144.4050   58.7560 C.3   143  GLN143      0.0394
     73  CG        11.2760  143.1590   58.3350 C.3   143  GLN143      0.0908
     74  CD        10.3650  142.1240   57.7140 C.2   143  GLN143      0.2608
     75  OE1        9.1600  142.3630   57.5370 O.2   143  GLN143     -0.2717
     76  NE2       10.9300  140.9800   57.3380 N.am  143  GLN143     -0.0878
     77  N         15.3950  143.2250   55.8320 N.3   188  TYR188     -0.1241
     78  CA        15.6730  142.7300   54.4860 C.3   188  TYR188      0.1605
     79  C         15.8510  143.9090   53.5370 C.2   188  TYR188      0.2264
     80  O         15.5500  145.0600   53.8670 O.2   188  TYR188     -0.2867
     81  CB        14.5550  141.8050   53.9600 C.3   188  TYR188      0.0534
     82  CG        13.2610  142.5100   53.7060 C.ar  188  TYR188     -0.0201
     83  CD1       12.3770  142.7430   54.7520 C.ar  188  TYR188     -0.0009
     84  CD2       12.9060  142.9510   52.4470 C.ar  188  TYR188     -0.0009
     85  CE1       11.2080  143.4150   54.5610 C.ar  188  TYR188      0.0417
     86  CE2       11.7200  143.6230   52.2420 C.ar  188  TYR188      0.0417
     87  CZ        10.8730  143.8570   53.3180 C.ar  188  TYR188      0.1957
     88  OH         9.6760  144.5100   53.1800 O.3   188  TYR188     -0.2866
     89  N         18.9700  140.2600   56.7910 N.3   219  GLN219     -0.1245
     90  CA        18.2450  139.0120   56.5530 C.3   219  GLN219      0.1566
     91  C         18.8510  138.2180   55.4110 C.2   219  GLN219      0.2260
     92  O         18.9800  136.9900   55.4840 O.2   219  GLN219     -0.2867
     93  CB        16.7620  139.3000   56.3310 C.3   219  GLN219      0.0367
     94  CG        16.0830  139.7430   57.6280 C.3   219  GLN219      0.0905
     95  CD        14.6180  139.9580   57.5240 C.2   219  GLN219      0.2608
     96  OE1       14.0020  139.6840   56.5000 O.2   219  GLN219     -0.2717
     97  NE2       14.0260  140.4480   58.6190 N.am  219  GLN219     -0.0878
     98  N         17.6460  137.5730   52.3370 N.3   221  HIS221     -0.1241
     99  CA        16.7080  136.7810   51.5370 C.3   221  HIS221      0.1621
    100  C         16.9630  137.1930   50.1030 C.2   221  HIS221      0.2264
    101  O         16.4390  138.2120   49.6350 O.2   221  HIS221     -0.2867
    102  CB        15.2720  137.0900   51.9280 C.3   221  HIS221      0.0745
    103  CG        14.8860  136.5140   53.2440 C.ar  221  HIS221      0.0817
    104  ND1       14.8410  135.1590   53.4700 N.ar  221  HIS221     -0.2268
    105  CD2       14.5000  137.1090   54.3960 C.ar  221  HIS221      0.1154
    106  CE1       14.4580  134.9400   54.7190 C.ar  221  HIS221      0.1986
    107  NE2       14.2220  136.1110   55.2930 N.ar  221  HIS221     -0.2212
    108  N         18.9080  135.4640   58.0340 N.3   251  GLN251     -0.1245
    109  CA        17.8480  134.6860   57.4060 C.3   251  GLN251      0.1566
    110  C         18.2310  134.3100   55.9910 C.2   251  GLN251      0.2260
    111  O         17.4170  134.3770   55.0710 O.2   251  GLN251     -0.2867
    112  CB        16.5220  135.4460   57.4320 C.3   251  GLN251      0.0367
    113  CG        16.2260  136.0300   58.7990 C.3   251  GLN251      0.0905
    114  CD        14.8910  136.7160   58.9590 C.2   251  GLN251      0.2608
    115  OE1       14.6110  137.2350   60.0420 O.2   251  GLN251     -0.2717
    116  NE2       14.0760  136.7110   57.9800 N.am  251  GLN251     -0.0878
    117  N         17.8190  130.4110   56.6130 N.3   300  TRP300     -0.1241
    118  CA        16.3870  130.3940   56.9270 C.3   300  TRP300      0.1605
    119  C         15.7350  129.0830   56.4710 C.2   300  TRP300      0.2264
    120  O         14.8100  129.0620   55.6490 O.2   300  TRP300     -0.2867
    121  CB        15.6830  131.6460   56.3930 C.3   300  TRP300      0.0550
    122  CG        14.4590  131.9920   57.1810 C.ar  300  TRP300      0.0003
    123  CD1       13.1660  131.8770   56.7740 C.ar  300  TRP300      0.0946
    124  CD2       14.4090  132.4630   58.5360 C.ar  300  TRP300      0.0152
    125  NE1       12.3080  132.2480   57.7900 N.ar  300  TRP300     -0.2442
    126  CE2       13.0590  132.6170   58.8800 C.ar  300  TRP300      0.0810
    127  CE3       15.3900  132.7640   59.4960 C.ar  300  TRP300      0.0012
    128  CZ2       12.6530  133.0710   60.1480 C.ar  300  TRP300      0.0191
    129  CZ3       14.9920  133.2140   60.7410 C.ar  300  TRP300      0.0001
    130  CH2       13.6320  133.3690   61.0550 C.ar  300  TRP300      0.0015
    131  N         10.2730  128.4560   53.5270 N.3   308  TRP308     -0.1241
    132  CA         9.1250  129.3390   53.4800 C.3   308  TRP308      0.1605
    133  C          8.8590  129.8630   52.0830 C.2   308  TRP308      0.2264
    134  O          7.7330  130.3010   51.8140 O.2   308  TRP308     -0.2867
    135  CB         9.3630  130.5180   54.4280 C.3   308  TRP308      0.0550
    136  CG        10.3220  131.5410   53.9130 C.ar  308  TRP308      0.0003
    137  CD1       11.6560  131.3760   53.6920 C.ar  308  TRP308      0.0946
    138  CD2       10.0140  132.8900   53.5440 C.ar  308  TRP308      0.0152
    139  NE1       12.2050  132.5390   53.1810 N.ar  308  TRP308     -0.2442
    140  CE2       11.2070  133.4810   53.0860 C.ar  308  TRP308      0.0810
    141  CE3        8.8310  133.6440   53.5170 C.ar  308  TRP308      0.0012
    142  CZ2       11.2510  134.8020   52.6260 C.ar  308  TRP308      0.0191
    143  CZ3        8.8880  134.9470   53.0540 C.ar  308  TRP308      0.0001
    144  CH2       10.0810  135.5160   52.6270 C.ar  308  TRP308      0.0015
@<TRIPOS>BOND
     1   101   100    2
     2   100    99    1
     3    99   102    1
     4    99    98    1
     5   134   133    2
     6   102   103    1
     7   133   132    1
     8    86    84   ar
     9    86    87   ar
    10    84    82   ar
    11   142   144   ar
    12   142   140   ar
    13   144   143   ar
    14   143   141   ar
    15   140   139   ar
    16   140   138   ar
    17    88    87    1
    18   139   137   ar
    19   103   104   ar
    20   103   105   ar
    21    87    85   ar
    22   104   106   ar
    23   132   131    1
    24   132   135    1
    25   141   138   ar
    26    79    80    2
    27    79    78    1
    28   138   136   ar
    29   137   136   ar
    30    82    81    1
    31    82    83   ar
    32   136   135    1
    33    81    78    1
    34   105   107   ar
    35    78    77    1
    36    85    83   ar
    37   106   107   ar
    38   111   110    2
    39    91    92    2
    40    91    90    1
    41   120   119    2
    42   110   109    1
    43    93    90    1
    44    93    94    1
    45   121   118    1
    46   121   122    1
    47   119   118    1
    48    96    95    2
    49    90    89    1
    50   117   118    1
    51   123   122   ar
    52   123   125   ar
    53   122   124   ar
    54    76    74   am
    55   109   112    1
    56   109   108    1
    57   112   113    1
    58    95    94    1
    59    95    97   am
    60    75    74    2
    61    74    73    1
    62   125   126   ar
    63     9     7   ar
    64   116   114   am
    65    73    72    1
    66   124   126   ar
    67   124   127   ar
    68    72    69    1
    69   113   114    1
    70   126   128   ar
    71   114   115    2
    72     7     8   ar
    73     7     6    1
    74    71    70    2
    75    69    70    1
    76    69    68    1
    77    48    50   ar
    78    48    46   ar
    79   127   129   ar
    80    50    49   ar
    81     6     5    1
    82    45    46   ar
    83    45    43   ar
    84   128   130   ar
    85    46    44   ar
    86    58    57    2
    87    68    62   am
    88   129   130   ar
    89    17    15   am
    90    57    56    1
    91    57    59   am
    92    67    65   am
    93    26    25    1
    94    43    42   ar
    95    16    15    2
    96    49    47   ar
    97    56    55    1
    98    66    65    2
    99     5     2    1
   100    62    63    2
   101    62    61    1
   102    44    47   ar
   103    44    42   ar
   104    65    64    1
   105    15    14    1
   106    51    52    1
   107     4     3    2
   108    42    41    1
   109    36    35   ar
   110    36    34   ar
   111     2     3    1
   112     2     1    1
   113    35    33   ar
   114    25    24    1
   115    55    52    1
   116    61    64    1
   117    61    60    1
   118     3    10   am
   119    52    53    1
   120    14    11    1
   121    34    32   ar
   122    24    23    1
   123    33    32   ar
   124    10    11    1
   125    39    38    1
   126    39    40    2
   127    41    38    1
   128    11    12    1
   129    38    37    1
   130    32    31    1
   131    53    54    2
   132    23    22    1
   133    12    13    2
   134    31    28    1
   135    22    19    1
   136    28    29    1
   137    28    27    1
   138    30    29    2
   139    19    18    1
   140    19    20    1
   141    20    21    2
