@<TRIPOS>MOLECULE
tmp/5oflA06.pdb
 123 122 0 0 0
SMALL
GASTEIGER

@<TRIPOS>ATOM
      1  N         11.9420  130.8670   63.8080 N.3    49  GLU49      -0.1231
      2  CA        11.4900  131.4640   62.5540 C.3    49  GLU49       0.1699
      3  C         10.2490  132.3240   62.7560 C.2    49  GLU49       0.2592
      4  O         10.1220  133.3890   62.1430 O.2    49  GLU49      -0.2718
      5  CB        11.1940  130.3950   61.5180 C.3    49  GLU49       0.0402
      6  CG        10.9590  130.9950   60.1420 C.3    49  GLU49       0.1161
      7  CD        10.7550  129.9220   59.0930 C.2    49  GLU49       0.3649
      8  OE1       10.9070  128.7350   59.4540 O.co2  49  GLU49      -0.2457
      9  OE2       10.4600  130.2610   57.9280 O.co2  49  GLU49      -0.2457
     10  N          9.3110  131.8600   63.5800 N.am   50  ASN50      -0.1974
     11  CA         8.0570  132.5860   63.8200 C.3    50  ASN50       0.1688
     12  C          7.6440  132.6340   65.2700 C.2    50  ASN50       0.2292
     13  O          6.8040  133.4730   65.6290 O.2    50  ASN50      -0.2864
     14  CB         6.9030  131.9470   63.0370 C.3    50  ASN50       0.1181
     15  CG         7.0510  132.1250   61.5600 C.2    50  ASN50       0.2629
     16  OD1        6.9930  133.2300   61.0500 O.2    50  ASN50      -0.2716
     17  ND2        7.2600  131.0380   60.8680 N.am   50  ASN50      -0.0877
     18  N          7.7930  135.9440   67.6130 N.3    53  LYS53      -0.1245
     19  CA         7.1690  137.1820   67.1610 C.3    53  LYS53       0.1561
     20  C          6.0570  137.5710   68.1250 C.2    53  LYS53       0.2260
     21  O          5.5740  136.7220   68.8710 O.2    53  LYS53      -0.2867
     22  CB         6.5640  136.9900   65.7770 C.3    53  LYS53       0.0271
     23  CG         7.5650  136.5530   64.7390 C.3    53  LYS53       0.0035
     24  CD         6.9270  136.4510   63.3560 C.3    53  LYS53       0.0206
     25  CE         5.5910  135.7170   63.3670 C.3    53  LYS53       0.1093
     26  NZ         5.1110  135.2630   62.0170 N.3    53  LYS53      -0.1314
     27  N         13.8010  136.9570   67.7720 N.3    90  HIS90      -0.1241
     28  CA        13.1350  137.5080   66.5780 C.3    90  HIS90       0.1621
     29  C         11.6390  137.5490   66.9170 C.2    90  HIS90       0.2264
     30  O         10.9880  136.5020   66.8730 O.2    90  HIS90      -0.2867
     31  CB        13.4420  136.5870   65.3990 C.3    90  HIS90       0.0745
     32  CG        12.6890  136.8590   64.1340 C.ar   90  HIS90       0.0817
     33  ND1       12.9960  137.9180   63.3090 N.ar   90  HIS90      -0.2268
     34  CD2       11.7300  136.1440   63.4900 C.ar   90  HIS90       0.1154
     35  CE1       12.2270  137.8710   62.2320 C.ar   90  HIS90       0.1986
     36  NE2       11.4450  136.8090   62.3210 N.ar   90  HIS90      -0.2212
     37  N          7.4490  144.7950   65.6540 N.3    94  TRP94      -0.1241
     38  CA         7.2850  144.4420   64.2390 C.3    94  TRP94       0.1605
     39  C          5.7900  144.5490   63.9290 C.2    94  TRP94       0.2264
     40  O          5.0130  143.6460   64.2720 O.2    94  TRP94      -0.2867
     41  CB         7.8090  143.0520   63.9530 C.3    94  TRP94       0.0550
     42  CG         7.8470  142.7200   62.5200 C.ar   94  TRP94       0.0003
     43  CD1        7.5610  143.5370   61.4580 C.ar   94  TRP94       0.0946
     44  CD2        8.1890  141.4640   61.9790 C.ar   94  TRP94       0.0152
     45  NE1        7.7020  142.8450   60.2750 N.ar   94  TRP94      -0.2442
     46  CE2        8.1020  141.5720   60.5730 C.ar   94  TRP94       0.0810
     47  CE3        8.5760  140.2450   62.5440 C.ar   94  TRP94       0.0012
     48  CZ2        8.3790  140.5160   59.7390 C.ar   94  TRP94       0.0191
     49  CZ3        8.8620  139.1920   61.7040 C.ar   94  TRP94       0.0001
     50  CH2        8.7530  139.3360   60.3160 C.ar   94  TRP94       0.0015
     51  N          3.6150  144.3540   61.3420 N.3    96  SER96      -0.1202
     52  CA         2.7730  143.4110   60.6050 C.3    96  SER96       0.2020
     53  C          2.6380  142.0600   61.3050 C.2    96  SER96       0.2618
     54  O          1.7310  141.2830   60.9780 O.2    96  SER96      -0.2717
     55  CB         3.3220  143.2280   59.2010 C.3    96  SER96       0.2103
     56  OG         4.5180  142.4610   59.1830 O.3    96  SER96      -0.2182
     57  N          3.5020  141.7620   62.2590 N.am   97  GLN97      -0.1979
     58  CA         3.4840  140.4870   62.9670 C.3    97  GLN97       0.1601
     59  C          2.9950  140.6700   64.3890 C.2    97  GLN97       0.2287
     60  O          3.3890  139.9420   65.3050 O.2    97  GLN97      -0.2864
     61  CB         4.8730  139.8650   62.9240 C.3    97  GLN97       0.0394
     62  CG         5.3380  139.6690   61.4760 C.3    97  GLN97       0.0908
     63  CD         4.3930  138.8120   60.6700 C.2    97  GLN97       0.2608
     64  OE1        3.9990  137.7330   61.0870 O.2    97  GLN97      -0.2717
     65  NE2        3.9800  139.3240   59.5260 N.am   97  GLN97      -0.0878
     66  N         17.8590  139.0570   52.4640 N.3   221  HIS221     -0.1241
     67  CA        16.9880  138.2810   51.5750 C.3   221  HIS221      0.1621
     68  C         17.3270  138.7330   50.1620 C.2   221  HIS221      0.2264
     69  O         16.8640  139.7850   49.7090 O.2   221  HIS221     -0.2867
     70  CB        15.5070  138.5140   51.8890 C.3   221  HIS221      0.0745
     71  CG        15.0600  137.8830   53.1690 C.ar  221  HIS221      0.0817
     72  ND1       15.0070  136.5210   53.3470 N.ar  221  HIS221     -0.2268
     73  CD2       14.6880  138.4340   54.3480 C.ar  221  HIS221      0.1154
     74  CE1       14.5860  136.2540   54.5740 C.ar  221  HIS221      0.1986
     75  NE2       14.3880  137.4020   55.2010 N.ar  221  HIS221     -0.2212
     76  N         19.0340  137.0000   58.1200 N.3   251  GLN251     -0.1245
     77  CA        18.0140  136.1690   57.4610 C.3   251  GLN251      0.1566
     78  C         18.4490  135.8480   56.0380 C.2   251  GLN251      0.2260
     79  O         17.6700  135.9440   55.0940 O.2   251  GLN251     -0.2867
     80  CB        16.6570  136.8680   57.4650 C.3   251  GLN251      0.0367
     81  CG        16.2650  137.3790   58.8430 C.3   251  GLN251      0.0905
     82  CD        14.8870  138.0140   58.8290 C.2   251  GLN251      0.2608
     83  OE1       14.1150  137.8600   57.8720 O.2   251  GLN251     -0.2717
     84  NE2       14.5870  138.7330   59.8710 N.am  251  GLN251     -0.0878
     85  N         18.2080  131.8000   56.6080 N.3   300  TRP300     -0.1241
     86  CA        16.7810  131.7810   56.9520 C.3   300  TRP300      0.1605
     87  C         16.1420  130.4770   56.4720 C.2   300  TRP300      0.2264
     88  O         15.2660  130.4370   55.6110 O.2   300  TRP300     -0.2867
     89  CB        16.0680  133.0190   56.4210 C.3   300  TRP300      0.0550
     90  CG        14.8750  133.3390   57.2520 C.ar  300  TRP300      0.0003
     91  CD1       13.5760  133.2360   56.8730 C.ar  300  TRP300      0.0946
     92  CD2       14.8560  133.7910   58.6220 C.ar  300  TRP300      0.0152
     93  NE1       12.7460  133.6000   57.8920 N.ar  300  TRP300     -0.2442
     94  CE2       13.5010  133.9500   58.9820 C.ar  300  TRP300      0.0810
     95  CE3       15.8460  134.0880   59.5640 C.ar  300  TRP300      0.0012
     96  CZ2       13.1110  134.3640   60.2460 C.ar  300  TRP300      0.0191
     97  CZ3       15.4610  134.5190   60.8150 C.ar  300  TRP300      0.0001
     98  CH2       14.1030  134.6590   61.1450 C.ar  300  TRP300      0.0015
     99  N         10.6290  129.8500   53.6630 N.3   308  TRP308     -0.1241
    100  CA         9.4400  130.6980   53.6100 C.3   308  TRP308      0.1605
    101  C          9.0850  131.1400   52.2000 C.2   308  TRP308      0.2264
    102  O          7.9370  131.5260   51.9320 O.2   308  TRP308     -0.2867
    103  CB         9.6780  131.9500   54.4500 C.3   308  TRP308      0.0550
    104  CG        10.6440  132.8950   53.8430 C.ar  308  TRP308      0.0003
    105  CD1       12.0150  132.7340   53.7200 C.ar  308  TRP308      0.0946
    106  CD2       10.3440  134.1730   53.2820 C.ar  308  TRP308      0.0152
    107  NE1       12.5620  133.8320   53.0980 N.ar  308  TRP308     -0.2442
    108  CE2       11.5660  134.7330   52.8310 C.ar  308  TRP308      0.0810
    109  CE3        9.1660  134.8990   53.1060 C.ar  308  TRP308      0.0012
    110  CZ2       11.6360  135.9860   52.2180 C.ar  308  TRP308      0.0191
    111  CZ3        9.2400  136.1470   52.4800 C.ar  308  TRP308      0.0001
    112  CH2       10.4620  136.6710   52.0490 C.ar  308  TRP308      0.0015
    113  N          5.4350  132.0490   50.3190 N.3   312  PHE312     -0.1241
    114  CA         5.3180  133.4750   50.0820 C.3   312  PHE312      0.1605
    115  C          4.9970  133.7760   48.6220 C.2   312  PHE312      0.2264
    116  O          4.1460  134.6230   48.3250 O.2   312  PHE312     -0.2867
    117  CB         6.6130  134.1700   50.5120 C.3   312  PHE312      0.0534
    118  CG         6.5550  135.6760   50.4470 C.ar  312  PHE312     -0.0203
    119  CD1        5.7690  136.3790   51.3250 C.ar  312  PHE312     -0.0042
    120  CD2        7.3070  136.3760   49.5140 C.ar  312  PHE312     -0.0042
    121  CE1        5.7160  137.7690   51.2770 C.ar  312  PHE312     -0.0003
    122  CE2        7.2630  137.7640   49.4630 C.ar  312  PHE312     -0.0003
    123  CZ         6.4620  138.4550   50.3410 C.ar  312  PHE312     -0.0000
@<TRIPOS>BOND
     1   116   115    2
     2   115   114    1
     3   122   120   ar
     4   122   123   ar
     5   120   118   ar
     6    69    68    2
     7   114   113    1
     8   114   117    1
     9    68    67    1
    10   123   121   ar
    11   118   117    1
    12   118   119   ar
    13   121   119   ar
    14    67    70    1
    15    67    66    1
    16    70    71    1
    17   102   101    2
    18   112   110   ar
    19   112   111   ar
    20   101   100    1
    21   110   108   ar
    22   111   109   ar
    23   108   107   ar
    24   108   106   ar
    25   107   105   ar
    26   109   106   ar
    27    71    72   ar
    28    71    73   ar
    29   106   104   ar
    30    72    74   ar
    31   100    99    1
    32   100   103    1
    33   105   104   ar
    34   104   103    1
    35    73    75   ar
    36    74    75   ar
    37    79    78    2
    38    88    87    2
    39    78    77    1
    40    89    86    1
    41    89    90    1
    42    87    86    1
    43    85    86    1
    44    91    90   ar
    45    91    93   ar
    46    90    92   ar
    47    77    80    1
    48    77    76    1
    49    80    81    1
    50    83    82    2
    51    93    94   ar
    52     9     7   ar
    53    92    94   ar
    54    92    95   ar
    55    82    81    1
    56    82    84   am
    57    94    96   ar
    58     7     8   ar
    59     7     6    1
    60    56    55    1
    61    55    52    1
    62    65    63   am
    63    95    97   ar
    64    48    50   ar
    65    48    46   ar
    66     6     5    1
    67    96    98   ar
    68    45    46   ar
    69    45    43   ar
    70    50    49   ar
    71    46    44   ar
    72    52    53    1
    73    52    51    1
    74    63    64    2
    75    63    62    1
    76    97    98   ar
    77    17    15   am
    78    54    53    2
    79    16    15    2
    80    53    57   am
    81    43    42   ar
    82    62    61    1
    83     5     2    1
    84    15    14    1
    85    49    47   ar
    86    44    42   ar
    87    44    47   ar
    88    26    25    1
    89     4     3    2
    90    35    36   ar
    91    35    33   ar
    92    57    58    1
    93    36    34   ar
    94    42    41    1
    95     2     3    1
    96     2     1    1
    97     3    10   am
    98    61    58    1
    99    58    59    1
   100    14    11    1
   101    33    32   ar
   102    24    25    1
   103    24    23    1
   104    34    32   ar
   105    10    11    1
   106    11    12    1
   107    39    38    1
   108    39    40    2
   109    41    38    1
   110    32    31    1
   111    38    37    1
   112    59    60    2
   113    23    22    1
   114    12    13    2
   115    31    28    1
   116    22    19    1
   117    28    29    1
   118    28    27    1
   119    30    29    2
   120    19    18    1
   121    19    20    1
   122    20    21    2
