@<TRIPOS>MOLECULE
tmp/5oflA04.pdb
 123 121 0 0 0
SMALL
GASTEIGER

@<TRIPOS>ATOM
      1  N          7.4490  144.7950   65.6540 N.3    94  TRP94      -0.1241
      2  CA         7.2850  144.4420   64.2390 C.3    94  TRP94       0.1605
      3  C          5.7900  144.5490   63.9290 C.2    94  TRP94       0.2264
      4  O          5.0130  143.6460   64.2720 O.2    94  TRP94      -0.2867
      5  CB         7.8090  143.0520   63.9530 C.3    94  TRP94       0.0550
      6  CG         7.8470  142.7200   62.5200 C.ar   94  TRP94       0.0003
      7  CD1        7.5610  143.5370   61.4580 C.ar   94  TRP94       0.0946
      8  CD2        8.1890  141.4640   61.9790 C.ar   94  TRP94       0.0152
      9  NE1        7.7020  142.8450   60.2750 N.ar   94  TRP94      -0.2442
     10  CE2        8.1020  141.5720   60.5730 C.ar   94  TRP94       0.0810
     11  CE3        8.5760  140.2450   62.5440 C.ar   94  TRP94       0.0012
     12  CZ2        8.3790  140.5160   59.7390 C.ar   94  TRP94       0.0191
     13  CZ3        8.8620  139.1920   61.7040 C.ar   94  TRP94       0.0001
     14  CH2        8.7530  139.3360   60.3160 C.ar   94  TRP94       0.0015
     15  N          3.6150  144.3540   61.3420 N.3    96  SER96      -0.1202
     16  CA         2.7730  143.4110   60.6050 C.3    96  SER96       0.2020
     17  C          2.6380  142.0600   61.3050 C.2    96  SER96       0.2618
     18  O          1.7310  141.2830   60.9780 O.2    96  SER96      -0.2717
     19  CB         3.3220  143.2280   59.2010 C.3    96  SER96       0.2103
     20  OG         4.5180  142.4610   59.1830 O.3    96  SER96      -0.2182
     21  N          3.5020  141.7620   62.2590 N.am   97  GLN97      -0.1979
     22  CA         3.4840  140.4870   62.9670 C.3    97  GLN97       0.1601
     23  C          2.9950  140.6700   64.3890 C.2    97  GLN97       0.2287
     24  O          3.3890  139.9420   65.3050 O.2    97  GLN97      -0.2864
     25  CB         4.8730  139.8650   62.9240 C.3    97  GLN97       0.0394
     26  CG         5.3380  139.6690   61.4760 C.3    97  GLN97       0.0908
     27  CD         4.3930  138.8120   60.6700 C.2    97  GLN97       0.2608
     28  OE1        3.9990  137.7330   61.0870 O.2    97  GLN97      -0.2717
     29  NE2        3.9800  139.3240   59.5260 N.am   97  GLN97      -0.0878
     30  N         12.1160  146.6800   60.6380 N.3   143  GLN143     -0.1245
     31  CA        11.4410  147.2110   59.4540 C.3   143  GLN143      0.1566
     32  C         10.6900  148.5090   59.7460 C.2   143  GLN143      0.2260
     33  O          9.5240  148.6660   59.3940 O.2   143  GLN143     -0.2867
     34  CB        10.5020  146.1370   58.8670 C.3   143  GLN143      0.0367
     35  CG        11.3460  144.9850   58.3080 C.3   143  GLN143      0.0905
     36  CD        10.5840  143.7790   57.7980 C.2   143  GLN143      0.2608
     37  OE1       11.1570  142.6940   57.7010 O.2   143  GLN143     -0.2717
     38  NE2        9.3180  143.9550   57.4380 N.am  143  GLN143     -0.0878
     39  N         15.4950  144.9370   55.8680 N.3   188  TYR188     -0.1227
     40  CA        15.7710  144.2930   54.5840 C.3   188  TYR188      0.1736
     41  C         15.9870  145.3660   53.5240 C.2   188  TYR188      0.2595
     42  O         15.7050  146.5470   53.7340 O.2   188  TYR188     -0.2718
     43  CB        14.6240  143.3650   54.1640 C.3   188  TYR188      0.0548
     44  CG        13.3550  144.1040   53.8210 C.ar  188  TYR188     -0.0200
     45  CD1       12.4260  144.4180   54.8120 C.ar  188  TYR188     -0.0009
     46  CD2       13.0700  144.4710   52.5110 C.ar  188  TYR188     -0.0009
     47  CE1       11.2680  145.0850   54.5150 C.ar  188  TYR188      0.0417
     48  CE2       11.8960  145.1690   52.2000 C.ar  188  TYR188      0.0417
     49  CZ        11.0020  145.4620   53.2150 C.ar  188  TYR188      0.1957
     50  OH         9.8500  146.1410   52.9540 O.3   188  TYR188     -0.2866
     51  N         16.4780  144.9320   52.3640 N.am  189  ASN189     -0.1974
     52  CA        16.8620  145.8470   51.2800 C.3   189  ASN189      0.1688
     53  C         17.7550  146.9860   51.7600 C.2   189  ASN189      0.2292
     54  O         17.6610  148.1320   51.3010 O.2   189  ASN189     -0.2864
     55  CB        15.6450  146.3920   50.5710 C.3   189  ASN189      0.1181
     56  CG        15.0270  145.3790   49.6560 C.2   189  ASN189      0.2629
     57  OD1       15.5730  144.2960   49.4300 O.2   189  ASN189     -0.2716
     58  ND2       13.8810  145.7120   49.1350 N.am  189  ASN189     -0.0877
     59  N         19.0660  141.8080   56.8950 N.3   219  GLN219     -0.1245
     60  CA        18.3790  140.5450   56.6410 C.3   219  GLN219      0.1566
     61  C         19.0220  139.7620   55.4970 C.2   219  GLN219      0.2260
     62  O         19.2000  138.5340   55.5880 O.2   219  GLN219     -0.2867
     63  CB        16.9080  140.8230   56.3360 C.3   219  GLN219      0.0367
     64  CG        16.1180  141.1940   57.5890 C.3   219  GLN219      0.0905
     65  CD        14.6820  141.4240   57.3270 C.2   219  GLN219      0.2608
     66  OE1       14.1170  140.8550   56.4080 O.2   219  GLN219     -0.2717
     67  NE2       14.0710  142.2520   58.1340 N.am  219  GLN219     -0.0878
     68  N         17.8590  139.0570   52.4640 N.3   221  HIS221     -0.1241
     69  CA        16.9880  138.2810   51.5750 C.3   221  HIS221      0.1621
     70  C         17.3270  138.7330   50.1620 C.2   221  HIS221      0.2264
     71  O         16.8640  139.7850   49.7090 O.2   221  HIS221     -0.2867
     72  CB        15.5070  138.5140   51.8890 C.3   221  HIS221      0.0745
     73  CG        15.0600  137.8830   53.1690 C.ar  221  HIS221      0.0817
     74  ND1       15.0070  136.5210   53.3470 N.ar  221  HIS221     -0.2268
     75  CD2       14.6880  138.4340   54.3480 C.ar  221  HIS221      0.1154
     76  CE1       14.5860  136.2540   54.5740 C.ar  221  HIS221      0.1986
     77  NE2       14.3880  137.4020   55.2010 N.ar  221  HIS221     -0.2212
     78  N         19.0340  137.0000   58.1200 N.3   251  GLN251     -0.1245
     79  CA        18.0140  136.1690   57.4610 C.3   251  GLN251      0.1566
     80  C         18.4490  135.8480   56.0380 C.2   251  GLN251      0.2260
     81  O         17.6700  135.9440   55.0940 O.2   251  GLN251     -0.2867
     82  CB        16.6570  136.8680   57.4650 C.3   251  GLN251      0.0367
     83  CG        16.2650  137.3790   58.8430 C.3   251  GLN251      0.0905
     84  CD        14.8870  138.0140   58.8290 C.2   251  GLN251      0.2608
     85  OE1       14.1150  137.8600   57.8720 O.2   251  GLN251     -0.2717
     86  NE2       14.5870  138.7330   59.8710 N.am  251  GLN251     -0.0878
     87  N         12.9030  139.0590   41.6080 N.3   259  TYR259     -0.1241
     88  CA        11.7150  139.4580   42.3400 C.3   259  TYR259      0.1605
     89  C         10.6820  139.9770   41.3500 C.2   259  TYR259      0.2264
     90  O         11.0190  140.7640   40.4670 O.2   259  TYR259     -0.2867
     91  CB        12.0640  140.5390   43.3610 C.3   259  TYR259      0.0534
     92  CG        10.8920  140.9860   44.2090 C.ar  259  TYR259     -0.0201
     93  CD1       10.1920  140.0760   44.9860 C.ar  259  TYR259     -0.0009
     94  CD2       10.4850  142.3150   44.2290 C.ar  259  TYR259     -0.0009
     95  CE1        9.1260  140.4630   45.7560 C.ar  259  TYR259      0.0417
     96  CE2        9.4180  142.7240   45.0170 C.ar  259  TYR259      0.0417
     97  CZ         8.7410  141.7940   45.7700 C.ar  259  TYR259      0.1957
     98  OH         7.6620  142.1800   46.5350 O.3   259  TYR259     -0.2866
     99  N         10.6290  129.8500   53.6630 N.3   308  TRP308     -0.1241
    100  CA         9.4400  130.6980   53.6100 C.3   308  TRP308      0.1605
    101  C          9.0850  131.1400   52.2000 C.2   308  TRP308      0.2264
    102  O          7.9370  131.5260   51.9320 O.2   308  TRP308     -0.2867
    103  CB         9.6780  131.9500   54.4500 C.3   308  TRP308      0.0550
    104  CG        10.6440  132.8950   53.8430 C.ar  308  TRP308      0.0003
    105  CD1       12.0150  132.7340   53.7200 C.ar  308  TRP308      0.0946
    106  CD2       10.3440  134.1730   53.2820 C.ar  308  TRP308      0.0152
    107  NE1       12.5620  133.8320   53.0980 N.ar  308  TRP308     -0.2442
    108  CE2       11.5660  134.7330   52.8310 C.ar  308  TRP308      0.0810
    109  CE3        9.1660  134.8990   53.1060 C.ar  308  TRP308      0.0012
    110  CZ2       11.6360  135.9860   52.2180 C.ar  308  TRP308      0.0191
    111  CZ3        9.2400  136.1470   52.4800 C.ar  308  TRP308      0.0001
    112  CH2       10.4620  136.6710   52.0490 C.ar  308  TRP308      0.0015
    113  N          5.4350  132.0490   50.3190 N.3   312  PHE312     -0.1241
    114  CA         5.3180  133.4750   50.0820 C.3   312  PHE312      0.1605
    115  C          4.9970  133.7760   48.6220 C.2   312  PHE312      0.2264
    116  O          4.1460  134.6230   48.3250 O.2   312  PHE312     -0.2867
    117  CB         6.6130  134.1700   50.5120 C.3   312  PHE312      0.0534
    118  CG         6.5550  135.6760   50.4470 C.ar  312  PHE312     -0.0203
    119  CD1        5.7690  136.3790   51.3250 C.ar  312  PHE312     -0.0042
    120  CD2        7.3070  136.3760   49.5140 C.ar  312  PHE312     -0.0042
    121  CE1        5.7160  137.7690   51.2770 C.ar  312  PHE312     -0.0003
    122  CE2        7.2630  137.7640   49.4630 C.ar  312  PHE312     -0.0003
    123  CZ         6.4620  138.4550   50.3410 C.ar  312  PHE312     -0.0000
@<TRIPOS>BOND
     1    90    89    2
     2    89    88    1
     3    87    88    1
     4    88    91    1
     5    91    92    1
     6    92    94   ar
     7    92    93   ar
     8    94    96   ar
     9    93    95   ar
    10    96    97   ar
    11    95    97   ar
    12    97    98    1
    13   116   115    2
    14   115   114    1
    15    58    56   am
    16    57    56    2
    17   122   120   ar
    18   122   123   ar
    19   120   118   ar
    20    56    55    1
    21    71    70    2
    22   114   113    1
    23   114   117    1
    24    70    69    1
    25   123   121   ar
    26   118   117    1
    27   118   119   ar
    28    55    52    1
    29   121   119   ar
    30    52    53    1
    31    52    51    1
    32    54    53    2
    33    69    72    1
    34    69    68    1
    35    72    73    1
    36   102   101    2
    37   112   110   ar
    38   112   111   ar
    39   101   100    1
    40    48    46   ar
    41    48    49   ar
    42   110   108   ar
    43    51    41   am
    44   111   109   ar
    45    46    44   ar
    46   108   107   ar
    47   108   106   ar
    48    50    49    1
    49   107   105   ar
    50   109   106   ar
    51    73    74   ar
    52    73    75   ar
    53    49    47   ar
    54   106   104   ar
    55    74    76   ar
    56    41    42    2
    57    41    40    1
    58   100    99    1
    59   100   103    1
    60   105   104   ar
    61    44    43    1
    62    44    45   ar
    63   104   103    1
    64    43    40    1
    65    75    77   ar
    66    47    45   ar
    67    76    77   ar
    68    40    39    1
    69    81    80    2
    70    61    62    2
    71    61    60    1
    72    80    79    1
    73    63    60    1
    74    63    64    1
    75    66    65    2
    76    60    59    1
    77    65    64    1
    78    65    67   am
    79    38    36   am
    80    79    82    1
    81    79    78    1
    82    82    83    1
    83    37    36    2
    84    36    35    1
    85    85    84    2
    86    35    34    1
    87    84    83    1
    88    84    86   am
    89    34    31    1
    90    20    19    1
    91    19    16    1
    92    33    32    2
    93    31    32    1
    94    31    30    1
    95    29    27   am
    96    12    14   ar
    97    12    10   ar
    98     9    10   ar
    99     9     7   ar
   100    14    13   ar
   101    10     8   ar
   102    16    17    1
   103    16    15    1
   104    27    28    2
   105    27    26    1
   106    18    17    2
   107    17    21   am
   108     7     6   ar
   109    26    25    1
   110    13    11   ar
   111     8     6   ar
   112     8    11   ar
   113    21    22    1
   114     6     5    1
   115    25    22    1
   116    22    23    1
   117     3     2    1
   118     3     4    2
   119     5     2    1
   120     2     1    1
   121    23    24    2
