@<TRIPOS>MOLECULE
tmp/5ofmA00.pdb
 108 105 0 0 0
SMALL
GASTEIGER

@<TRIPOS>ATOM
      1  N        -25.2720    7.3380    2.7070 N.3    52  LEU52      -0.1231
      2  CA       -25.3060    8.5850    3.4580 C.3    52  LEU52       0.1693
      3  C        -25.9700    9.5970    2.6680 C.2    52  LEU52       0.2592
      4  O        -25.3750   10.1680    1.6890 O.2    52  LEU52      -0.2718
      5  CB       -23.8970    9.0000    3.8920 C.3    52  LEU52       0.0284
      6  CG       -23.1130    7.9080    4.5090 C.3    52  LEU52       0.0019
      7  CD1      -21.8050    8.5260    5.0270 C.3    52  LEU52       0.0001
      8  CD2      -23.7390    7.1880    5.6460 C.3    52  LEU52       0.0001
      9  N        -27.2380    9.8440    3.0120 N.am   53  GLY53      -0.1957
     10  CA       -28.0620   10.6870    2.1800 C.3    53  GLY53       0.1869
     11  C        -29.0750    9.8830    1.4090 C.2    53  GLY53       0.2309
     12  O        -28.7490    9.1720    0.4580 O.2    53  GLY53      -0.2863
     13  N        -28.3560    6.7530    6.5660 N.3    75  TYR75      -0.1227
     14  CA       -28.4670    7.9010    7.4920 C.3    75  TYR75       0.1736
     15  C        -28.8630    9.1280    6.6950 C.2    75  TYR75       0.2595
     16  O        -28.2090    9.4120    5.7080 O.2    75  TYR75      -0.2718
     17  CB       -27.1110    8.2010    8.2360 C.3    75  TYR75       0.0548
     18  CG       -27.1280    9.5060    9.1190 C.ar   75  TYR75      -0.0200
     19  CD1      -26.9010   10.7450    8.5680 C.ar   75  TYR75      -0.0009
     20  CD2      -27.4920    9.4800   10.4510 C.ar   75  TYR75      -0.0009
     21  CE1      -26.9310   11.9200    9.3230 C.ar   75  TYR75       0.0417
     22  CE2      -27.5510   10.6600   11.2420 C.ar   75  TYR75       0.0417
     23  CZ       -27.3050   11.8860   10.6750 C.ar   75  TYR75       0.1957
     24  OH       -27.3020   13.0600   11.4290 O.3    75  TYR75      -0.2866
     25  N        -29.8010    9.9290    7.2050 N.am   76  ASP76      -0.1960
     26  CA       -30.1910   11.2070    6.6340 C.3    76  ASP76       0.1825
     27  C        -30.9060   11.8730    7.7830 C.2    76  ASP76       0.2464
     28  O        -31.7230   11.2250    8.4250 O.2    76  ASP76      -0.2730
     29  CB       -31.1450   11.0670    5.4210 C.3    76  ASP76       0.1450
     30  CG       -31.3130   12.3320    4.6670 C.2    76  ASP76       0.3671
     31  OD1      -31.8300   13.3100    5.2200 O.co2  76  ASP76      -0.2456
     32  OD2      -30.9870   12.3880    3.4680 O.co2  76  ASP76      -0.2456
     33  N        -30.5710   13.1260    8.0730 N.am   77  PRO77      -0.2715
     34  CA       -31.1090   13.7140    9.2940 C.3    77  PRO77       0.1536
     35  C        -32.4730   14.2830    9.0810 C.2    77  PRO77       0.2598
     36  O        -33.1020   14.6730   10.0230 O.2    77  PRO77      -0.2715
     37  CB       -30.1350   14.8340    9.5890 C.3    77  PRO77       0.0310
     38  CG       -29.5190   15.2170    8.2750 C.3    77  PRO77       0.0237
     39  CD       -29.4940   13.9450    7.4680 C.3    77  PRO77       0.0939
     40  N        -32.8900   14.3410    7.8280 N.am   78  ILE78      -0.1978
     41  CA       -34.0680   15.0810    7.3960 C.3    78  ILE78       0.1596
     42  C        -35.1660   14.0220    7.1490 C.2    78  ILE78       0.2287
     43  O        -36.2310   14.1790    7.6660 O.2    78  ILE78      -0.2864
     44  CB       -33.6230   15.9620    6.1450 C.3    78  ILE78       0.0276
     45  CG1      -34.0790   17.4120    6.2660 C.3    78  ILE78       0.0022
     46  CG2      -34.0040   15.4200    4.7750 C.3    78  ILE78       0.0022
     47  CD1      -33.1790   18.2380    7.1540 C.3    78  ILE78       0.0001
     48  N        -24.8880    7.6160   12.4530 N.3    94  LEU94      -0.1245
     49  CA       -23.5860    7.4540   11.7990 C.3    94  LEU94       0.1561
     50  C        -22.6520    6.5800   12.5310 C.2    94  LEU94       0.2260
     51  O        -22.0530    5.6620   11.9410 O.2    94  LEU94      -0.2867
     52  CB       -22.8520    8.7370   11.6200 C.3    94  LEU94       0.0270
     53  CG       -23.2160    9.6750   10.5050 C.3    94  LEU94       0.0019
     54  CD1      -22.4920   10.9910   10.7060 C.3    94  LEU94       0.0001
     55  CD2      -23.0710    9.0190    9.1520 C.3    94  LEU94       0.0001
     56  N        -24.3750   10.7100   -0.7700 N.3   107  HIS107     -0.1226
     57  CA       -25.4260   11.3830   -1.5950 C.3   107  HIS107      0.1752
     58  C        -26.0290   12.5990   -0.8820 C.2   107  HIS107      0.2597
     59  O        -27.2640   12.6730   -0.5670 O.2   107  HIS107     -0.2718
     60  CB       -26.4810   10.3640   -1.9990 C.3   107  HIS107      0.0759
     61  CG       -25.8910    9.2470   -2.7940 C.ar  107  HIS107      0.0818
     62  ND1      -25.4410    9.4280   -4.1030 N.ar  107  HIS107     -0.2268
     63  CD2      -25.5170    8.0000   -2.4250 C.ar  107  HIS107      0.1154
     64  CE1      -24.9010    8.3060   -4.5100 C.ar  107  HIS107      0.1986
     65  NE2      -24.9350    7.4220   -3.5400 N.ar  107  HIS107     -0.2212
     66  N        -25.1480   13.5590   -0.6230 N.am  108  THR108     -0.1939
     67  CA       -25.4240   14.7190    0.3170 C.3   108  THR108      0.2013
     68  C        -25.0120   15.9570   -0.4470 C.2   108  THR108      0.2484
     69  O        -24.1310   15.9140   -1.3010 O.2   108  THR108     -0.2729
     70  CB       -24.6890   14.7190    1.7290 C.3   108  THR108      0.1807
     71  OG1      -23.2890   14.9120    1.5430 O.3   108  THR108     -0.2208
     72  CG2      -24.8410   13.3620    2.4730 C.3   108  THR108      0.0379
     73  N        -25.5480   17.1120   -0.0640 N.am  109  PRO109     -0.2726
     74  CA       -24.9310   18.3770   -0.4230 C.3   109  PRO109      0.1402
     75  C        -23.5860   18.5340    0.3170 C.2   109  PRO109      0.2269
     76  O        -23.2820   17.7240    1.1720 O.2   109  PRO109     -0.2865
     77  CB       -25.9090   19.4360    0.0960 C.3   109  PRO109      0.0296
     78  CG       -27.0770   18.7320    0.6530 C.3   109  PRO109      0.0237
     79  CD       -26.6810   17.2970    0.8440 C.3   109  PRO109      0.0939
     80  N        -22.1390   20.6640    2.8600 N.3   111  LEU111     -0.1245
     81  CA       -22.3860   21.5270    3.9960 C.3   111  LEU111      0.1561
     82  C        -21.2560   21.4090    4.9980 C.2   111  LEU111      0.2260
     83  O        -20.4470   20.4890    4.9230 O.2   111  LEU111     -0.2867
     84  CB       -23.6460   21.0400    4.7140 C.3   111  LEU111      0.0270
     85  CG       -24.7800   20.7680    3.7320 C.3   111  LEU111      0.0019
     86  CD1      -25.9700   20.3090    4.5580 C.3   111  LEU111      0.0001
     87  CD2      -25.1890   22.0650    3.0720 C.3   111  LEU111      0.0001
     88  N        -21.4970   20.2000    7.9350 N.3   113  SER113     -0.1202
     89  CA       -21.6240   18.8760    8.5070 C.3   113  SER113      0.2020
     90  C        -21.1840   17.6910    7.6330 C.2   113  SER113      0.2619
     91  O        -20.8460   16.6100    8.1490 O.2   113  SER113     -0.2717
     92  CB       -23.0790   18.7220    8.9440 C.3   113  SER113      0.2103
     93  OG       -23.9190   18.6060    7.8080 O.3   113  SER113     -0.2182
     94  N        -21.2180   17.8920    6.3170 N.am  114  THR114     -0.1952
     95  CA       -20.8230   16.8760    5.3650 C.3   114  THR114      0.1897
     96  C        -19.4380   17.0410    4.7240 C.2   114  THR114      0.2313
     97  O        -19.0500   16.1410    4.0390 O.2   114  THR114     -0.2863
     98  CB       -21.8410   16.7930    4.2370 C.3   114  THR114      0.1794
     99  OG1      -21.8220   18.0330    3.5340 O.3   114  THR114     -0.2208
    100  CG2      -23.1450   16.5110    4.7420 C.3   114  THR114      0.0378
    101  N        -17.2170   14.2870    5.9220 N.3   117  LEU117     -0.1245
    102  CA       -18.0760   13.2460    6.4700 C.3   117  LEU117      0.1561
    103  C        -17.2970   11.9620    6.6440 C.2   117  LEU117      0.2260
    104  O        -17.4650   11.2610    7.6470 O.2   117  LEU117     -0.2867
    105  CB       -19.2970   13.0810    5.5720 C.3   117  LEU117      0.0270
    106  CG       -20.4590   12.1700    5.9770 C.3   117  LEU117      0.0019
    107  CD1      -21.0690   12.5230    7.2960 C.3   117  LEU117      0.0001
    108  CD2      -21.5660   12.2730    4.9310 C.3   117  LEU117      0.0001
@<TRIPOS>BOND
     1    64    62   ar
     2    64    65   ar
     3    62    61   ar
     4    65    63   ar
     5    61    63   ar
     6    61    60    1
     7    60    57    1
     8    57    58    1
     9    57    56    1
    10    69    68    2
    11    58    66   am
    12    58    59    2
    13    66    67    1
    14    68    73   am
    15    68    67    1
    16    74    73    1
    17    74    77    1
    18    74    75    1
    19    73    79    1
    20    77    78    1
    21    67    70    1
    22    75    76    2
    23    12    11    2
    24    78    79    1
    25    11    10    1
    26    71    70    1
    27     4     3    2
    28    70    72    1
    29    10     9    1
    30     3     9   am
    31     3     2    1
    32     1     2    1
    33    80    81    1
    34    87    85    1
    35     2     5    1
    36    32    30   ar
    37    99    98    1
    38    85    86    1
    39    85    84    1
    40     5     6    1
    41    81    84    1
    42    81    82    1
    43    97    96    2
    44    98   100    1
    45    98    95    1
    46     6     7    1
    47     6     8    1
    48    30    31   ar
    49    30    29    1
    50    96    95    1
    51    46    44    1
    52    83    82    2
    53   108   106    1
    54    95    94    1
    55    29    26    1
    56   105   106    1
    57   105   102    1
    58    16    15    2
    59   101   102    1
    60   106   107    1
    61    44    45    1
    62    44    41    1
    63    45    47    1
    64    94    90   am
    65   102   103    1
    66    13    14    1
    67    26    25    1
    68    26    27    1
    69   103   104    2
    70    15    25   am
    71    15    14    1
    72    42    41    1
    73    42    43    2
    74    41    40    1
    75    39    33    1
    76    39    38    1
    77    14    17    1
    78    90    91    2
    79    90    89    1
    80    27    33   am
    81    27    28    2
    82    93    92    1
    83    40    35   am
    84    88    89    1
    85    33    34    1
    86    17    18    1
    87    38    37    1
    88    89    92    1
    89    19    18   ar
    90    19    21   ar
    91    35    34    1
    92    35    36    2
    93    18    20   ar
    94    55    53    1
    95    34    37    1
    96    21    23   ar
    97    20    22   ar
    98    53    54    1
    99    53    52    1
   100    23    22   ar
   101    23    24    1
   102    52    49    1
   103    49    48    1
   104    49    50    1
   105    51    50    2
