@<TRIPOS>MOLECULE
tmp/5ofoA00.pdb
 188 181 0 0 0
SMALL
GASTEIGER

@<TRIPOS>ATOM
      1  N        215.9960  151.3630  183.2900 N.3    18  ASP18      -0.1225
      2  CA       215.7730  150.0990  183.9610 C.3    18  ASP18       0.1790
      3  C        215.3860  149.0250  182.9600 C.2    18  ASP18       0.2440
      4  O        214.7330  149.3230  181.9600 O.2    18  ASP18      -0.2733
      5  CB       214.6820  150.2480  185.0170 C.3    18  ASP18       0.1423
      6  CG       215.1530  151.0530  186.2010 C.2    18  ASP18       0.3668
      7  OD1      216.3770  151.0780  186.4390 O.co2  18  ASP18      -0.2456
      8  OD2      214.3090  151.6480  186.9010 O.co2  18  ASP18      -0.2456
      9  N        215.8030  147.7830  183.1880 N.am   19  PRO19      -0.2718
     10  CA       215.5370  146.7300  182.2060 C.3    19  PRO19       0.1535
     11  C        214.0720  146.3480  182.1640 C.2    19  PRO19       0.2598
     12  O        213.3370  146.5120  183.1380 O.2    19  PRO19      -0.2715
     13  CB       216.3950  145.5650  182.6990 C.3    19  PRO19       0.0310
     14  CG       216.5270  145.8010  184.1480 C.3    19  PRO19       0.0237
     15  CD       216.6060  147.2810  184.3130 C.3    19  PRO19       0.0939
     16  N        213.6530  145.8520  181.0080 N.am   20  VAL20      -0.1964
     17  CA       212.2740  145.4730  180.7440 C.3    20  VAL20       0.1727
     18  C        212.2870  144.0820  180.1380 C.2    20  VAL20       0.2616
     19  O        212.9340  143.8540  179.1120 O.2    20  VAL20      -0.2715
     20  CB       211.5910  146.4690  179.8010 C.3    20  VAL20       0.0290
     21  CG1      210.2470  145.9450  179.3860 C.3    20  VAL20       0.0023
     22  CG2      211.4350  147.8140  180.4710 C.3    20  VAL20       0.0023
     23  N        211.5650  143.1580  180.7500 N.am   21  ILE21      -0.1977
     24  CA       211.6450  141.7530  180.3870 C.3    21  ILE21       0.1596
     25  C        210.4200  141.3520  179.5840 C.2    21  ILE21       0.2287
     26  O        209.2940  141.3880  180.0880 O.2    21  ILE21      -0.2864
     27  CB       211.7780  140.8770  181.6360 C.3    21  ILE21       0.0276
     28  CG1      213.0490  141.2420  182.3850 C.3    21  ILE21       0.0022
     29  CG2      211.7960  139.4220  181.2440 C.3    21  ILE21       0.0022
     30  CD1      213.1370  140.5930  183.7270 C.3    21  ILE21       0.0001
     31  N        207.8100  140.9380  176.0770 N.3    23  ARG23      -0.1245
     32  CA       207.0980  141.6280  174.9980 C.3    23  ARG23       0.1563
     33  C        207.8500  141.5090  173.6770 C.2    23  ARG23       0.2260
     34  O        208.0460  142.4930  172.9660 O.2    23  ARG23      -0.2867
     35  CB       206.8460  143.0970  175.3470 C.3    23  ARG23       0.0307
     36  CG       206.0240  143.3480  176.5880 C.3    23  ARG23       0.0489
     37  CD       204.5790  143.0770  176.3230 C.3    23  ARG23       0.2205
     38  NE       203.7490  143.5310  177.4230 N.pl3  23  ARG23      -0.0865
     39  CZ       202.4320  143.3790  177.4610 C.cat  23  ARG23       0.5346
     40  NH1      201.8040  142.7850  176.4580 N.pl3  23  ARG23       0.1354
     41  NH2      201.7470  143.8220  178.4990 N.pl3  23  ARG23       0.1354
     42  N        196.5730  151.1220  178.1460 N.3    47  GLU47      -0.1231
     43  CA       196.4550  151.9170  179.3440 C.3    47  GLU47       0.1684
     44  C        197.8030  152.5240  179.7000 C.2    47  GLU47       0.2434
     45  O        198.8340  152.1260  179.1540 O.2    47  GLU47      -0.2733
     46  CB       195.9190  151.0590  180.4820 C.3    47  GLU47       0.0402
     47  CG       194.4980  150.6930  180.2480 C.3    47  GLU47       0.1161
     48  CD       193.6200  151.9170  180.2430 C.2    47  GLU47       0.3649
     49  OE1      193.8740  152.8440  181.0420 O.co2  47  GLU47      -0.2457
     50  OE2      192.6860  151.9670  179.4210 O.co2  47  GLU47      -0.2457
     51  N        197.8320  153.5150  180.5870 N.am   48  PRO48      -0.2718
     52  CA       199.1200  153.9500  181.1300 C.3    48  PRO48       0.1535
     53  C        199.7270  152.8870  182.0090 C.2    48  PRO48       0.2599
     54  O        199.0810  151.9150  182.3940 O.2    48  PRO48      -0.2715
     55  CB       198.7600  155.1830  181.9540 C.3    48  PRO48       0.0310
     56  CG       197.5510  155.6630  181.3540 C.3    48  PRO48       0.0237
     57  CD       196.7760  154.4860  180.9050 C.3    48  PRO48       0.0939
     58  N        201.0230  153.0360  182.2570 N.am   49  GLY49      -0.1941
     59  CA       201.7580  152.1410  183.1060 C.3    49  GLY49       0.2014
     60  C        201.9950  150.7570  182.5400 C.2    49  GLY49       0.2639
     61  O        202.7880  149.9960  183.1120 O.2    49  GLY49      -0.2714
     62  N        201.3320  150.4040  181.4370 N.am   50  VAL50      -0.1963
     63  CA       201.4610  149.0820  180.8550 C.3    50  VAL50       0.1727
     64  C        202.8580  148.9090  180.3040 C.2    50  VAL50       0.2617
     65  O        203.3780  147.7910  180.2520 O.2    50  VAL50      -0.2715
     66  CB       200.3580  148.8990  179.8030 C.3    50  VAL50       0.0290
     67  CG1      200.3710  147.5130  179.2060 C.3    50  VAL50       0.0023
     68  CG2      199.0380  149.1390  180.4560 C.3    50  VAL50       0.0023
     69  N        203.5220  150.0080  179.9840 N.am   51  GLY51      -0.1940
     70  CA       204.9430  149.9680  179.7820 C.3    51  GLY51       0.2014
     71  C        205.3800  150.5100  178.4600 C.2    51  GLY51       0.2639
     72  O        206.4840  150.1860  178.0170 O.2    51  GLY51      -0.2714
     73  N        204.5540  151.3540  177.8430 N.am   52  LYS52      -0.1963
     74  CA       204.7840  151.8140  176.4820 C.3    52  LYS52       0.1728
     75  C        206.0890  152.5830  176.3830 C.2    52  LYS52       0.2617
     76  O        206.9650  152.2610  175.5610 O.2    52  LYS52      -0.2715
     77  CB       203.5980  152.6700  176.0440 C.3    52  LYS52       0.0311
     78  CG       202.3180  151.8710  175.9150 C.3    52  LYS52       0.0038
     79  CD       201.1840  152.6900  175.3340 C.3    52  LYS52       0.0206
     80  CE       200.2250  153.1700  176.4020 C.3    52  LYS52       0.1093
     81  NZ       200.7760  154.2500  177.2540 N.3    52  LYS52      -0.1314
     82  N        206.2640  153.5420  177.2870 N.am   53  THR53      -0.1937
     83  CA       207.5280  154.2480  177.3810 C.3    53  THR53       0.2028
     84  C        208.6510  153.2900  177.7480 C.2    53  THR53       0.2642
     85  O        209.7470  153.3670  177.1860 O.2    53  THR53      -0.2714
     86  CB       207.4120  155.3600  178.4110 C.3    53  THR53       0.1808
     87  OG1      206.1990  156.0840  178.1820 O.3    53  THR53      -0.2208
     88  CG2      208.5800  156.3010  178.2960 C.3    53  THR53       0.0379
     89  N        208.3630  152.3150  178.6130 N.am   54  ALA54      -0.1963
     90  CA       209.3830  151.3400  178.9790 C.3    54  ALA54       0.1728
     91  C        209.6590  150.3660  177.8440 C.2    54  ALA54       0.2616
     92  O        210.7520  149.7960  177.7710 O.2    54  ALA54      -0.2715
     93  CB       208.9690  150.5790  180.2350 C.3    54  ALA54       0.0334
     94  N        208.6770  150.1370  176.9660 N.am   55  ILE55      -0.1977
     95  CA       208.9460  149.3400  175.7700 C.3    55  ILE55       0.1596
     96  C        209.9490  150.0560  174.8860 C.2    55  ILE55       0.2287
     97  O        210.8960  149.4460  174.3670 O.2    55  ILE55      -0.2864
     98  CB       207.6450  149.0190  175.0130 C.3    55  ILE55       0.0276
     99  CG1      206.8230  147.9900  175.7740 C.3    55  ILE55       0.0022
    100  CG2      207.9330  148.4440  173.6480 C.3    55  ILE55       0.0022
    101  CD1      207.5460  146.6930  175.9860 C.3    55  ILE55       0.0001
    102  N        212.1390  152.0730  176.0550 N.3    57  GLU57      -0.1245
    103  CA       213.3800  151.9870  176.8160 C.3    57  GLU57       0.1567
    104  C        214.1140  150.6820  176.5720 C.2    57  GLU57       0.2260
    105  O        215.2760  150.7000  176.1540 O.2    57  GLU57      -0.2867
    106  CB       213.0750  152.1230  178.2990 C.3    57  GLU57       0.0388
    107  CG       212.5410  153.4680  178.6810 C.3    57  GLU57       0.1160
    108  CD       211.9660  153.4790  180.0740 C.2    57  GLU57       0.3649
    109  OE1      211.9950  152.4210  180.7370 O.co2  57  GLU57      -0.2457
    110  OE2      211.4320  154.5270  180.4860 O.co2  57  GLU57      -0.2457
    111  N        207.0830  161.2620  172.8020 N.3   118  ASP118     -0.1239
    112  CA       206.1540  160.8330  173.8220 C.3   118  ASP118      0.1674
    113  C        204.9640  161.7710  173.8120 C.2   118  ASP118      0.2266
    114  O        205.1000  162.9600  173.5080 O.2   118  ASP118     -0.2867
    115  CB       206.8030  160.8190  175.1980 C.3   118  ASP118      0.1410
    116  CG       206.0060  160.0210  176.1930 C.2   118  ASP118      0.3668
    117  OD1      206.0100  158.7800  176.0740 O.co2 118  ASP118     -0.2456
    118  OD2      205.3810  160.6140  177.0920 O.co2 118  ASP118     -0.2456
    119  N        203.2670  157.4320  171.4880 N.3   142  ALA142     -0.1231
    120  CA       202.6720  156.6540  172.5690 C.3   142  ALA142      0.1694
    121  C        201.5280  157.4240  173.2120 C.2   142  ALA142      0.2593
    122  O        201.7020  158.5850  173.5890 O.2   142  ALA142     -0.2718
    123  CB       203.7200  156.3010  173.6250 C.3   142  ALA142      0.0304
    124  N        200.3810  156.7610  173.3690 N.am  143  THR143     -0.1939
    125  CA       199.1840  157.3790  173.9270 C.3   143  THR143      0.2028
    126  C        198.1960  156.2960  174.3400 C.2   143  THR143      0.2642
    127  O        198.4490  155.1010  174.1820 O.2   143  THR143     -0.2714
    128  CB       198.5190  158.3120  172.9250 C.3   143  THR143      0.1808
    129  OG1      197.4000  158.9420  173.5520 O.3   143  THR143     -0.2208
    130  CG2      198.0380  157.5260  171.7330 C.3   143  THR143      0.0379
    131  N        197.0520  156.7350  174.8590 N.am  144  THR144     -0.1950
    132  CA       195.9260  155.8630  175.1490 C.3   144  THR144      0.1897
    133  C        194.8610  156.0070  174.0780 C.2   144  THR144      0.2313
    134  O        195.0100  156.7690  173.1240 O.2   144  THR144     -0.2863
    135  CB       195.3110  156.1910  176.4950 C.3   144  THR144      0.1794
    136  OG1      194.7690  157.5140  176.4460 O.3   144  THR144     -0.2208
    137  CG2      196.3630  156.1260  177.5520 C.3   144  THR144      0.0378
    138  N        208.7420  140.4760  185.8110 N.3   178  ILE178     -0.1245
    139  CA       209.1340  141.8820  185.8300 C.3   178  ILE178      0.1561
    140  C        209.6380  142.2770  187.2040 C.2   178  ILE178      0.2260
    141  O        210.6730  142.9430  187.3410 O.2   178  ILE178     -0.2867
    142  CB       207.9550  142.7640  185.3900 C.3   178  ILE178      0.0252
    143  CG1      207.5800  142.4450  183.9550 C.3   178  ILE178      0.0019
    144  CG2      208.2930  144.2250  185.5200 C.3   178  ILE178      0.0019
    145  CD1      208.7180  142.6230  183.0190 C.3   178  ILE178      0.0001
    146  N        213.1620  143.8040  188.6030 N.3   182  LEU182     -0.1245
    147  CA       213.3600  145.1090  189.2110 C.3   182  LEU182      0.1561
    148  C        213.6410  145.0350  190.7000 C.2   182  LEU182      0.2260
    149  O        213.9410  146.0710  191.3210 O.2   182  LEU182     -0.2867
    150  CB       212.1300  145.9620  188.9490 C.3   182  LEU182      0.0270
    151  CG       211.9120  146.0900  187.4470 C.3   182  LEU182      0.0019
    152  CD1      210.6170  146.8060  187.1580 C.3   182  LEU182      0.0001
    153  CD2      213.0850  146.7960  186.7830 C.3   182  LEU182      0.0001
    154  N        215.3930  147.8190  193.3330 N.3   186  TYR186     -0.1241
    155  CA       214.7540  148.4550  194.4720 C.3   186  TYR186      0.1605
    156  C        215.3990  147.9990  195.7650 C.2   186  TYR186      0.2264
    157  O        215.1610  148.5770  196.8230 O.2   186  TYR186     -0.2867
    158  CB       213.2590  148.1820  194.4630 C.3   186  TYR186      0.0534
    159  CG       212.5530  148.6870  193.2220 C.ar  186  TYR186     -0.0201
    160  CD1      213.1280  149.6430  192.3770 C.ar  186  TYR186     -0.0009
    161  CD2      211.3110  148.1880  192.8850 C.ar  186  TYR186     -0.0009
    162  CE1      212.5070  150.0410  191.2430 C.ar  186  TYR186      0.0417
    163  CE2      210.6600  148.6170  191.7600 C.ar  186  TYR186      0.0417
    164  CZ       211.2630  149.5360  190.9410 C.ar  186  TYR186      0.1957
    165  OH       210.6150  149.9660  189.8160 O.3   186  TYR186     -0.2866
    166  N        201.5270  146.2100  185.2460 N.3   216  PRO216     -0.2102
    167  CA       202.3220  145.8200  186.4040 C.3   216  PRO216      0.1504
    168  C        202.3020  146.8620  187.4950 C.2   216  PRO216      0.2575
    169  O        202.8040  146.5880  188.5790 O.2   216  PRO216     -0.2718
    170  CB       203.7150  145.6940  185.8270 C.3   216  PRO216      0.0282
    171  CG       203.7280  146.6950  184.7700 C.3   216  PRO216      0.0208
    172  CD       202.3760  146.7190  184.1620 C.3   216  PRO216      0.0893
    173  N        201.6610  147.9960  187.2060 N.am  217  ASP217     -0.1974
    174  CA       201.9520  149.2490  187.8970 C.3   217  ASP217      0.1708
    175  C        201.5790  149.1740  189.3720 C.2   217  ASP217      0.2293
    176  O        202.3060  149.6750  190.2440 O.2   217  ASP217     -0.2864
    177  CB       201.2020  150.3790  187.1970 C.3   217  ASP217      0.1436
    178  CG       201.7620  151.7510  187.5100 C.2   217  ASP217      0.3671
    179  OD1      202.7240  151.8520  188.2940 O.co2 217  ASP217     -0.2456
    180  OD2      201.2540  152.7390  186.9430 O.co2 217  ASP217     -0.2456
    181  N        204.1010  147.3340  191.2810 N.3   220  ILE220     -0.1245
    182  CA       205.3170  148.1370  191.3370 C.3   220  ILE220      0.1561
    183  C        205.2650  149.1070  192.4990 C.2   220  ILE220      0.2260
    184  O        206.1560  149.1170  193.3590 O.2   220  ILE220     -0.2867
    185  CB       205.5230  148.8880  190.0150 C.3   220  ILE220      0.0252
    186  CG1      205.7320  147.9070  188.8660 C.3   220  ILE220      0.0019
    187  CG2      206.6960  149.8310  190.1480 C.3   220  ILE220      0.0019
    188  CD1      205.5960  148.5280  187.4870 C.3   220  ILE220      0.0001
@<TRIPOS>BOND
     1   119   120    1
     2   130   128    1
     3   120   121    1
     4   120   123    1
     5   111   112    1
     6   128   129    1
     7   128   125    1
     8    34    33    2
     9   134   133    2
    10   121   124   am
    11   121   122    2
    12   124   125    1
    13   114   113    2
    14   100    98    1
    15    33    32    1
    16   113   112    1
    17   112   115    1
    18   125   126    1
    19   133   132    1
    20   127   126    2
    21   126   131   am
    22    97    96    2
    23   131   132    1
    24    96    95    1
    25    32    35    1
    26    32    31    1
    27    98    95    1
    28    98    99    1
    29   132   135    1
    30   115   116    1
    31    79    78    1
    32    79    80    1
    33    35    36    1
    34    76    75    2
    35    95    94    1
    36    99   101    1
    37    78    77    1
    38    77    74    1
    39   102   103    1
    40   117   116   ar
    41   105   104    2
    42   116   118   ar
    43    37    36    1
    44    37    38    1
    45    75    74    1
    46    75    82   am
    47    80    81    1
    48   136   135    1
    49    40    39    1
    50    74    73    1
    51   135   137    1
    52   104   103    1
    53   103   106    1
    54    94    91   am
    55    85    84    2
    56    82    83    1
    57    83    84    1
    58    83    86    1
    59    38    39    2
    60    39    41    1
    61    84    89   am
    62    92    91    2
    63    73    71   am
    64    91    90    1
    65    72    71    2
    66    42    43    1
    67    87    86    1
    68    88    86    1
    69   106   107    1
    70    71    70    1
    71    89    90    1
    72   107   108    1
    73    90    93    1
    74    19    18    2
    75    45    44    2
    76    67    66    1
    77    43    44    1
    78    43    46    1
    79    21    20    1
    80    50    48   ar
    81    25    26    2
    82    25    24    1
    83    44    51   am
    84    70    69    1
    85    20    22    1
    86    20    17    1
    87    66    68    1
    88    66    63    1
    89    69    64   am
    90   108   110   ar
    91   108   109   ar
    92    18    17    1
    93    18    23   am
    94    48    47    1
    95    48    49   ar
    96    47    46    1
    97    65    64    2
    98    64    63    1
    99    24    23    1
   100    24    27    1
   101    51    57    1
   102    51    52    1
   103    17    16    1
   104    63    62    1
   105    57    56    1
   106    16    11   am
   107    52    55    1
   108    52    53    1
   109    29    27    1
   110    56    55    1
   111    62    60   am
   112    27    28    1
   113     4     3    2
   114    53    58   am
   115    53    54    2
   116    11    10    1
   117    11    12    2
   118    10    13    1
   119    10     9    1
   120    58    59    1
   121    28    30    1
   122    60    59    1
   123    60    61    2
   124    13    14    1
   125     3     9   am
   126     3     2    1
   127   145   143    1
   128     9    15    1
   129     1     2    1
   130   143   142    1
   131     2     5    1
   132    14    15    1
   133   172   171    1
   134   172   166    1
   135   171   170    1
   136     5     6    1
   137   166   167    1
   138   142   144    1
   139   142   139    1
   140   138   139    1
   141   170   167    1
   142   139   140    1
   143     6     7   ar
   144     6     8   ar
   145   167   168    1
   146   153   151    1
   147   180   178   ar
   148   152   151    1
   149   177   178    1
   150   177   174    1
   151   140   141    2
   152   173   168   am
   153   173   174    1
   154   151   150    1
   155   188   186    1
   156   168   169    2
   157   178   179   ar
   158   174   175    1
   159   146   147    1
   160   186   185    1
   161   150   147    1
   162   147   148    1
   163   175   176    2
   164   165   164    1
   165   185   187    1
   166   185   182    1
   167   148   149    2
   168   164   162   ar
   169   164   163   ar
   170   162   160   ar
   171   181   182    1
   172   182   183    1
   173   163   161   ar
   174   160   159   ar
   175   183   184    2
   176   161   159   ar
   177   159   158    1
   178   154   155    1
   179   158   155    1
   180   155   156    1
   181   156   157    2
