@<TRIPOS>MOLECULE
tmp/5ofoA01.pdb
 168 160 0 0 0
SMALL
GASTEIGER

@<TRIPOS>ATOM
      1  N        173.1820  144.4940  222.4840 N.3   398  ARG398     -0.1231
      2  CA       172.1230  145.3990  222.0670 C.3   398  ARG398      0.1694
      3  C        171.0460  144.7410  221.2230 C.2   398  ARG398      0.2592
      4  O        170.1820  145.4510  220.7060 O.2   398  ARG398     -0.2718
      5  CB       172.7170  146.5940  221.3370 C.3   398  ARG398      0.0321
      6  CG       173.4510  146.2760  220.0840 C.3   398  ARG398      0.0489
      7  CD       173.9680  147.5730  219.5350 C.3   398  ARG398      0.2205
      8  NE       172.8580  148.4510  219.1940 N.pl3 398  ARG398     -0.0865
      9  CZ       172.9670  149.7650  219.0500 C.cat 398  ARG398      0.5346
     10  NH1      174.1390  150.3540  219.2270 N.pl3 398  ARG398      0.1354
     11  NH2      171.9060  150.4910  218.7390 N.pl3 398  ARG398      0.1354
     12  N        171.0580  143.4180  221.0780 N.am  399  VAL399     -0.1966
     13  CA       169.9350  142.6770  220.5140 C.3   399  VAL399      0.1727
     14  C        169.7170  141.4230  221.3420 C.2   399  VAL399      0.2616
     15  O        170.6180  140.5870  221.4510 O.2   399  VAL399     -0.2715
     16  CB       170.1620  142.2870  219.0420 C.3   399  VAL399      0.0290
     17  CG1      169.1040  141.2980  218.6030 C.3   399  VAL399      0.0023
     18  CG2      170.1140  143.4930  218.1300 C.3   399  VAL399      0.0023
     19  N        168.5260  141.2730  221.9080 N.am  400  ILE400     -0.1977
     20  CA       168.1490  140.0360  222.5670 C.3   400  ILE400      0.1596
     21  C        167.4240  139.1570  221.5450 C.2   400  ILE400      0.2287
     22  O        166.9030  139.6340  220.5380 O.2   400  ILE400     -0.2864
     23  CB       167.2980  140.2870  223.8310 C.3   400  ILE400      0.0276
     24  CG1      167.3360  139.0740  224.7610 C.3   400  ILE400      0.0022
     25  CG2      165.8630  140.6130  223.4730 C.3   400  ILE400      0.0022
     26  CD1      166.8570  139.3370  226.1350 C.3   400  ILE400      0.0001
     27  N        166.7470  135.5370  219.0480 N.3   402  GLN402     -0.1245
     28  CA       167.0750  135.0440  217.7080 C.3   402  GLN402      0.1566
     29  C        168.5570  134.6990  217.5940 C.2   402  GLN402      0.2260
     30  O        169.3140  135.3220  216.8460 O.2   402  GLN402     -0.2867
     31  CB       166.6810  136.0440  216.6180 C.3   402  GLN402      0.0367
     32  CG       165.2010  136.2520  216.3900 C.3   402  GLN402      0.0905
     33  CD       164.5630  137.1020  217.4520 C.2   402  GLN402      0.2608
     34  OE1      163.5420  136.7420  218.0230 O.2   402  GLN402     -0.2717
     35  NE2      165.1990  138.2200  217.7620 N.am  402  GLN402     -0.0878
     36  N        158.7130  138.5320  211.9160 N.3   435  PRO435     -0.2102
     37  CA       157.5740  139.4110  212.1880 C.3   435  PRO435      0.1504
     38  C        157.9960  140.8650  212.2830 C.2   435  PRO435      0.2576
     39  O        159.1040  141.2710  211.9330 O.2   435  PRO435     -0.2718
     40  CB       157.0510  138.9170  213.5360 C.3   435  PRO435      0.0282
     41  CG       157.5700  137.5420  213.6640 C.3   435  PRO435      0.0208
     42  CD       158.9050  137.5510  212.9900 C.3   435  PRO435      0.0893
     43  N        157.0600  141.6680  212.7430 N.am  436  THR436     -0.1939
     44  CA       157.3650  143.0300  213.1240 C.3   436  THR436      0.2028
     45  C        157.8150  143.0560  214.5710 C.2   436  THR436      0.2643
     46  O        157.6480  142.0860  215.3100 O.2   436  THR436     -0.2714
     47  CB       156.1420  143.9120  212.9490 C.3   436  THR436      0.1808
     48  OG1      155.1140  143.4830  213.8430 O.3   436  THR436     -0.2208
     49  CG2      155.6500  143.8110  211.5350 C.3   436  THR436      0.0379
     50  N        158.3780  144.1890  214.9720 N.am  437  GLY437     -0.1939
     51  CA       158.7010  144.3880  216.3670 C.3   437  GLY437      0.2014
     52  C        159.8200  143.5360  216.8950 C.2   437  GLY437      0.2639
     53  O        159.7820  143.1340  218.0570 O.2   437  GLY437     -0.2714
     54  N        160.8120  143.2290  216.0730 N.am  438  VAL438     -0.1963
     55  CA       161.7730  142.2030  216.4190 C.3   438  VAL438      0.1727
     56  C        163.2100  142.7000  216.4150 C.2   438  VAL438      0.2617
     57  O        164.0940  141.9890  216.9040 O.2   438  VAL438     -0.2715
     58  CB       161.6120  141.0060  215.4760 C.3   438  VAL438      0.0290
     59  CG1      160.3450  140.2510  215.7950 C.3   438  VAL438      0.0023
     60  CG2      161.5440  141.5360  214.0910 C.3   438  VAL438      0.0023
     61  N        163.4740  143.9020  215.9190 N.am  439  GLY439     -0.1940
     62  CA       164.8260  144.4190  215.9910 C.3   439  GLY439      0.2014
     63  C        165.7030  144.0860  214.8040 C.2   439  GLY439      0.2639
     64  O        166.8970  143.8110  214.9620 O.2   439  GLY439     -0.2714
     65  N        165.1150  144.1050  213.6090 N.am  440  LYS440     -0.1963
     66  CA       165.9030  143.9670  212.3930 C.3   440  LYS440      0.1728
     67  C        166.8610  145.1410  212.2410 C.2   440  LYS440      0.2617
     68  O        168.0820  144.9540  212.1230 O.2   440  LYS440     -0.2715
     69  CB       164.9550  143.8590  211.1980 C.3   440  LYS440      0.0311
     70  CG       164.0950  142.6030  211.2530 C.3   440  LYS440      0.0038
     71  CD       162.9980  142.5140  210.2010 C.3   440  LYS440      0.0206
     72  CE       162.1030  141.3050  210.4760 C.3   440  LYS440      0.1093
     73  NZ       160.8530  141.2690  209.6630 N.3   440  LYS440     -0.1314
     74  N        166.3280  146.3590  212.3240 N.am  441  THR441     -0.1937
     75  CA       167.1540  147.5530  212.2060 C.3   441  THR441      0.2028
     76  C        168.0900  147.6770  213.4000 C.2   441  THR441      0.2642
     77  O        169.1880  148.2330  213.2860 O.2   441  THR441     -0.2714
     78  CB       166.2480  148.7760  212.0780 C.3   441  THR441      0.1808
     79  OG1      165.2580  148.5160  211.0780 O.3   441  THR441     -0.2208
     80  CG2      167.0260  150.0140  211.6800 C.3   441  THR441      0.0379
     81  N        167.6830  147.1190  214.5420 N.am  442  GLU442     -0.1976
     82  CA       168.5980  146.9560  215.6630 C.3   442  GLU442      0.1602
     83  C        169.8060  146.1290  215.2880 C.2   442  GLU442      0.2287
     84  O        170.9340  146.4800  215.6440 O.2   442  GLU442     -0.2864
     85  CB       167.8910  146.2940  216.8310 C.3   442  GLU442      0.0415
     86  CG       167.0850  147.2160  217.6240 C.3   442  GLU442      0.1163
     87  CD       167.9420  148.1380  218.4590 C.2   442  GLU442      0.3649
     88  OE1      169.0230  147.6920  218.9040 O.co2 442  GLU442     -0.2457
     89  OE2      167.5480  149.3040  218.6650 O.co2 442  GLU442     -0.2457
     90  N        172.0560  148.1680  212.7930 N.3   445  LYS445     -0.1245
     91  CA       172.7950  149.1920  213.5120 C.3   445  LYS445      0.1561
     92  C        173.8380  148.5800  214.4240 C.2   445  LYS445      0.2260
     93  O        174.8970  149.1720  214.6490 O.2   445  LYS445     -0.2867
     94  CB       171.8430  150.0470  214.3290 C.3   445  LYS445      0.0271
     95  CG       170.9560  150.9290  213.5120 C.3   445  LYS445      0.0035
     96  CD       170.0590  151.7310  214.4170 C.3   445  LYS445      0.0206
     97  CE       169.1070  152.5970  213.6250 C.3   445  LYS445      0.1093
     98  NZ       168.2370  153.3810  214.5400 N.3   445  LYS445     -0.1314
     99  N        165.8670  143.2550  204.9130 N.3   546  THR546     -0.1203
    100  CA       164.7700  143.0330  205.8340 C.3   546  THR546      0.1994
    101  C        163.5340  143.5750  205.1650 C.2   546  THR546      0.2619
    102  O        163.5510  144.6910  204.6400 O.2   546  THR546     -0.2717
    103  CB       164.9630  143.7560  207.1480 C.3   546  THR546      0.1784
    104  OG1      164.8690  145.1650  206.9140 O.3   546  THR546     -0.2211
    105  CG2      166.3230  143.4470  207.6960 C.3   546  THR546      0.0376
    106  N        162.4680  142.7970  205.1740 N.am  547  SER547     -0.1937
    107  CA       161.4030  143.1540  204.2590 C.3   547  SER547      0.2055
    108  C        160.0860  142.5910  204.7440 C.2   547  SER547      0.2643
    109  O        159.9660  142.0890  205.8630 O.2   547  SER547     -0.2714
    110  CB       161.6980  142.6490  202.8590 C.3   547  SER547      0.2130
    111  OG       161.6920  141.2390  202.8540 O.3   547  SER547     -0.2179
    112  N        159.0960  142.6890  203.8620 N.am  548  ASN548     -0.1971
    113  CA       157.7030  142.4800  204.1940 C.3   548  ASN548      0.1688
    114  C        156.9260  141.7340  203.1180 C.2   548  ASN548      0.2292
    115  O        155.7120  141.9370  203.0120 O.2   548  ASN548     -0.2864
    116  CB       157.0240  143.8280  204.4680 C.3   548  ASN548      0.1181
    117  CG       157.6430  144.5800  205.6370 C.2   548  ASN548      0.2629
    118  OD1      158.3160  145.5870  205.4450 O.2   548  ASN548     -0.2716
    119  ND2      157.3950  144.1140  206.8460 N.am  548  ASN548     -0.0877
    120  N        158.7030  137.6620  221.1220 N.3   595  LEU595     -0.1245
    121  CA       159.4800  137.7430  222.3430 C.3   595  LEU595      0.1561
    122  C        158.6800  137.2970  223.5600 C.2   595  LEU595      0.2260
    123  O        157.4490  137.2660  223.5610 O.2   595  LEU595     -0.2867
    124  CB       159.9900  139.1640  222.5600 C.3   595  LEU595      0.0270
    125  CG       161.0120  139.6410  221.5370 C.3   595  LEU595      0.0019
    126  CD1      161.4090  141.0750  221.8140 C.3   595  LEU595      0.0001
    127  CD2      162.2210  138.7350  221.5570 C.3   595  LEU595      0.0001
    128  N        165.2150  144.5550  227.4400 N.3   603  ILE603     -0.1245
    129  CA       165.2430  145.7170  226.5610 C.3   603  ILE603      0.1561
    130  C        164.7000  146.9300  227.2810 C.2   603  ILE603      0.2260
    131  O        164.9460  148.0710  226.8740 O.2   603  ILE603     -0.2867
    132  CB       164.4870  145.4320  225.2630 C.3   603  ILE603      0.0252
    133  CG1      163.0100  145.2170  225.5540 C.3   603  ILE603      0.0019
    134  CG2      165.0890  144.2390  224.5580 C.3   603  ILE603      0.0019
    135  CD1      162.1730  145.1280  224.3410 C.3   603  ILE603      0.0001
    136  N        168.2280  147.9920  228.9380 N.3   606  ILE606     -0.1231
    137  CA       169.1780  148.6080  228.0220 C.3   606  ILE606      0.1692
    138  C        168.5440  149.7960  227.3250 C.2   606  ILE606      0.2591
    139  O        169.2420  150.6890  226.8300 O.2   606  ILE606     -0.2718
    140  CB       169.6990  147.5630  227.0230 C.3   606  ILE606      0.0266
    141  CG1      168.5740  147.1060  226.1140 C.3   606  ILE606      0.0019
    142  CG2      170.2180  146.3680  227.7720 C.3   606  ILE606      0.0020
    143  CD1      169.0050  146.1930  225.0230 C.3   606  ILE606      0.0001
    144  N        167.2160  149.8380  227.2950 N.am  607  GLN607     -0.1979
    145  CA       166.5420  151.0520  226.8830 C.3   607  GLN607      0.1601
    146  C        166.7910  152.1590  227.8870 C.2   607  GLN607      0.2287
    147  O        167.1330  153.2870  227.5150 O.2   607  GLN607     -0.2864
    148  CB       165.0530  150.7780  226.7430 C.3   607  GLN607      0.0394
    149  CG       164.3120  151.9560  226.2100 C.3   607  GLN607      0.0908
    150  CD       164.7660  152.2940  224.8230 C.2   607  GLN607      0.2608
    151  OE1      164.9420  151.4110  223.9860 O.2   607  GLN607     -0.2717
    152  NE2      164.9940  153.5740  224.5730 N.am  607  GLN607     -0.0878
    153  N        158.0510  144.2050  220.4730 N.3   643  ALA643     -0.1231
    154  CA       158.8470  145.0140  221.3900 C.3   643  ALA643      0.1694
    155  C        158.6240  146.5150  221.2870 C.2   643  ALA643      0.2591
    156  O        159.2130  147.2800  222.0510 O.2   643  ALA643     -0.2718
    157  CB       160.3290  144.7180  221.1720 C.3   643  ALA643      0.0304
    158  N        157.7840  146.9550  220.3670 N.am  644  ARG644     -0.1980
    159  CA       157.7340  148.3820  220.0730 C.3   644  ARG644      0.1597
    160  C        156.9420  149.2300  221.0800 C.2   644  ARG644      0.2287
    161  O        157.5360  150.1840  221.6160 O.2   644  ARG644     -0.2864
    162  CB       157.2470  148.5490  218.6320 C.3   644  ARG644      0.0334
    163  CG       158.0750  147.7090  217.6570 C.3   644  ARG644      0.0492
    164  CD       157.6770  147.8430  216.1820 C.3   644  ARG644      0.2205
    165  NE       158.2090  149.0000  215.4630 N.pl3 644  ARG644     -0.0865
    166  CZ       159.1520  148.8890  214.5220 C.cat 644  ARG644      0.5346
    167  NH1      159.5710  147.6790  214.1940 N.pl3 644  ARG644      0.1354
    168  NH2      159.6390  149.9470  213.8920 N.pl3 644  ARG644      0.1354
@<TRIPOS>BOND
     1   111   110    1
     2   110   107    1
     3   115   114    2
     4   114   113    1
     5   112   113    1
     6   112   108   am
     7   113   116    1
     8   107   108    1
     9   107   106    1
    10   116   117    1
    11   102   101    2
    12   108   109    2
    13    99   100    1
    14   101   106   am
    15   101   100    1
    16   118   117    2
    17   117   119   am
    18   100   103    1
    19   104   103    1
    20   103   105    1
    21    73    72    1
    22    71    72    1
    23    71    70    1
    24    79    78    1
    25    69    70    1
    26    69    66    1
    27    49    47    1
    28    80    78    1
    29    36    37    1
    30    36    42    1
    31    39    38    2
    32    78    75    1
    33    68    67    2
    34    37    38    1
    35    37    40    1
    36    75    74    1
    37    75    76    1
    38    67    74   am
    39    67    66    1
    40    38    43   am
    41    66    65    1
    42    43    44    1
    43    90    91    1
    44    47    44    1
    45    47    48    1
    46    42    41    1
    47    44    45    1
    48    77    76    2
    49    76    81   am
    50    91    94    1
    51    91    92    1
    52    95    94    1
    53    95    96    1
    54    40    41    1
    55    65    63   am
    56    97    96    1
    57    97    98    1
    58   168   166    1
    59    60    58    1
    60   167   166    1
    61    92    93    2
    62   166   165    2
    63    81    82    1
    64    45    50   am
    65    45    46    2
    66    63    64    2
    67    63    62    1
    68    50    51    1
    69    83    84    2
    70    83    82    1
    71   165   164    1
    72    58    59    1
    73    58    55    1
    74    82    85    1
    75    61    62    1
    76    61    56   am
    77    54    55    1
    78    54    52   am
    79   164   163    1
    80    51    52    1
    81    32    31    1
    82    32    33    1
    83    56    55    1
    84    56    57    2
    85    31    28    1
    86    85    86    1
    87    30    29    2
    88    52    53    2
    89    33    35   am
    90    33    34    2
    91    29    28    1
    92    86    87    1
    93   163   162    1
    94    28    27    1
    95    18    16    1
    96    87    89   ar
    97    87    88   ar
    98    17    16    1
    99   162   159    1
   100    11     9    1
   101    16    13    1
   102     9     8    2
   103     9    10    1
   104     8     7    1
   105     7     6    1
   106   159   158    1
   107   159   160    1
   108     6     5    1
   109   158   155   am
   110   153   154    1
   111    13    12    1
   112    13    14    1
   113    22    21    2
   114     4     3    2
   115    12     3   am
   116   160   161    2
   117   120   121    1
   118   157   154    1
   119     3     2    1
   120   155   154    1
   121   155   156    2
   122     5     2    1
   123    14    15    2
   124    14    19   am
   125   125   127    1
   126   125   126    1
   127   125   124    1
   128    21    20    1
   129    19    20    1
   130     2     1    1
   131   121   124    1
   132   121   122    1
   133    20    23    1
   134    25    23    1
   135   122   123    2
   136    23    24    1
   137   151   150    2
   138   135   133    1
   139   134   132    1
   140   152   150   am
   141    24    26    1
   142   150   149    1
   143   143   141    1
   144   132   133    1
   145   132   129    1
   146   141   140    1
   147   149   148    1
   148   129   130    1
   149   129   128    1
   150   148   145    1
   151   139   138    2
   152   131   130    2
   153   145   144    1
   154   145   146    1
   155   140   142    1
   156   140   137    1
   157   144   138   am
   158   138   137    1
   159   147   146    2
   160   137   136    1
