@<TRIPOS>MOLECULE
tmp/5ofqB01.pdb
 116 114 0 0 0
SMALL
GASTEIGER

@<TRIPOS>ATOM
      1  N         10.9690  -69.1640   21.8430 N.3    10  GLU10      -0.1245
      2  CA        10.8590  -67.7120   21.9810 C.3    10  GLU10       0.1567
      3  C         11.2930  -67.2480   23.3720 C.2    10  GLU10       0.2260
      4  O         11.9840  -66.2330   23.5150 O.2    10  GLU10      -0.2867
      5  CB         9.4220  -67.2640   21.6680 C.3    10  GLU10       0.0388
      6  CG         9.3130  -65.7960   21.1210 C.3    10  GLU10       0.1160
      7  CD         7.8690  -65.3220   20.8900 C.2    10  GLU10       0.3649
      8  OE1        7.2740  -64.7160   21.8160 O.co2  10  GLU10      -0.2457
      9  OE2        7.3360  -65.5420   19.7770 O.co2  10  GLU10      -0.2457
     10  N         15.1030  -67.2960   23.8240 N.3    13  LEU13      -0.1231
     11  CA        15.7610  -66.1890   23.1640 C.3    13  LEU13       0.1693
     12  C         15.5590  -64.8850   23.9020 C.2    13  LEU13       0.2592
     13  O         16.2320  -63.9000   23.5820 O.2    13  LEU13      -0.2718
     14  CB        15.2740  -66.0400   21.7330 C.3    13  LEU13       0.0284
     15  CG        15.7120  -67.1440   20.7820 C.3    13  LEU13       0.0019
     16  CD1       15.0050  -67.0660   19.4400 C.3    13  LEU13       0.0001
     17  CD2       17.2210  -67.0760   20.5990 C.3    13  LEU13       0.0001
     18  N         14.6110  -64.8490   24.8290 N.am   14  TYR14      -0.1976
     19  CA        14.4410  -63.7160   25.7370 C.3    14  TYR14       0.1639
     20  C         13.7460  -64.2060   26.9990 C.2    14  TYR14       0.2290
     21  O         12.5120  -64.1730   27.1140 O.2    14  TYR14      -0.2864
     22  CB        13.6660  -62.5800   25.0800 C.3    14  TYR14       0.0560
     23  CG        13.8030  -61.2720   25.8010 C.ar   14  TYR14      -0.0198
     24  CD1       12.8870  -60.9290   26.7660 C.ar   14  TYR14      -0.0009
     25  CD2       14.8540  -60.3850   25.5330 C.ar   14  TYR14      -0.0009
     26  CE1       12.9710  -59.7500   27.4450 C.ar   14  TYR14       0.0417
     27  CE2       14.9360  -59.1810   26.2140 C.ar   14  TYR14       0.0417
     28  CZ        13.9670  -58.8830   27.1750 C.ar   14  TYR14       0.1957
     29  OH        13.9490  -57.7360   27.9080 O.3    14  TYR14      -0.2866
     30  N         12.0550  -61.5740   31.1700 N.3    17  ASP17      -0.1239
     31  CA        10.7370  -61.4150   31.7680 C.3    17  ASP17       0.1674
     32  C         10.3510  -62.6190   32.6340 C.2    17  ASP17       0.2266
     33  O          9.7200  -62.4450   33.6730 O.2    17  ASP17      -0.2867
     34  CB         9.7040  -61.2050   30.6670 C.3    17  ASP17       0.1410
     35  CG         9.9440  -59.9480   29.8900 C.2    17  ASP17       0.3668
     36  OD1       10.2600  -58.9500   30.5520 O.co2  17  ASP17      -0.2456
     37  OD2        9.7890  -59.9350   28.6510 O.co2  17  ASP17      -0.2456
     38  N         22.7640  -58.2000   17.6510 N.3   240  ARG240     -0.1231
     39  CA        21.3420  -58.5020   17.7550 C.3   240  ARG240      0.1694
     40  C         20.5650  -57.3340   18.3490 C.2   240  ARG240      0.2592
     41  O         19.5930  -56.8660   17.7490 O.2   240  ARG240     -0.2718
     42  CB        21.1190  -59.7460   18.5950 C.3   240  ARG240      0.0321
     43  CG        19.6830  -59.9070   18.9640 C.3   240  ARG240      0.0489
     44  CD        19.4620  -61.1520   19.7760 C.3   240  ARG240      0.2205
     45  NE        18.1880  -61.1740   20.4950 N.pl3 240  ARG240     -0.0865
     46  CZ        17.8790  -62.1180   21.3710 C.cat 240  ARG240      0.5346
     47  NH1       18.7300  -63.1030   21.6350 N.pl3 240  ARG240      0.1354
     48  NH2       16.7400  -62.0860   21.9970 N.pl3 240  ARG240      0.1354
     49  N         20.9560  -56.8660   19.5500 N.am  241  TYR241     -0.1976
     50  CA        20.2430  -55.7330   20.1360 C.3   241  TYR241      0.1639
     51  C         20.2130  -54.5730   19.1670 C.2   241  TYR241      0.2290
     52  O         19.1460  -54.0500   18.8540 O.2   241  TYR241     -0.2864
     53  CB        20.8470  -55.2500   21.4660 C.3   241  TYR241      0.0560
     54  CG        19.8500  -54.2950   22.0880 C.ar  241  TYR241     -0.0198
     55  CD1       18.7990  -54.7670   22.8580 C.ar  241  TYR241     -0.0009
     56  CD2       19.8570  -52.9290   21.7630 C.ar  241  TYR241     -0.0009
     57  CE1       17.7860  -53.8640   23.3700 C.ar  241  TYR241      0.0417
     58  CE2       18.8950  -52.0470   22.2350 C.ar  241  TYR241      0.0417
     59  CZ        17.8380  -52.5100   23.0270 C.ar  241  TYR241      0.1957
     60  OH        16.8730  -51.6330   23.5030 O.3   241  TYR241     -0.2866
     61  N         17.7290  -55.0720   16.7480 N.3   244  GLU244     -0.1231
     62  CA        16.4250  -55.0490   17.3700 C.3   244  GLU244      0.1699
     63  C         16.0060  -53.6170   17.7130 C.2   244  GLU244      0.2592
     64  O         14.8150  -53.3020   17.6540 O.2   244  GLU244     -0.2718
     65  CB        16.4210  -55.9560   18.6270 C.3   244  GLU244      0.0402
     66  CG        16.4690  -57.4230   18.3150 C.3   244  GLU244      0.1161
     67  CD        16.5970  -58.3400   19.5000 C.2   244  GLU244      0.3649
     68  OE1       17.0320  -57.9240   20.5840 O.co2 244  GLU244     -0.2457
     69  OE2       16.2630  -59.5290   19.3120 O.co2 244  GLU244     -0.2457
     70  N         16.9640  -52.7430   18.0560 N.am  245  ASP245     -0.1960
     71  CA        16.7200  -51.3550   18.4290 C.3   245  ASP245      0.1840
     72  C         17.7310  -50.5460   17.6450 C.2   245  ASP245      0.2622
     73  O         18.8520  -50.3540   18.1050 O.2   245  ASP245     -0.2715
     74  CB        16.8770  -51.1500   19.9270 C.3   245  ASP245      0.1450
     75  CG        16.7010  -49.6920   20.3610 C.2   245  ASP245      0.3671
     76  OD1       16.5040  -48.8300   19.4750 O.co2 245  ASP245     -0.2456
     77  OD2       16.7350  -49.4150   21.5930 O.co2 245  ASP245     -0.2456
     78  N         17.3310  -50.0840   16.4640 N.am  246  VAL246     -0.1963
     79  CA        18.2510  -49.3890   15.5720 C.3   246  VAL246      0.1727
     80  C         18.6510  -48.0120   16.1210 C.2   246  VAL246      0.2616
     81  O         19.6880  -47.4570   15.7330 O.2   246  VAL246     -0.2715
     82  CB        17.6250  -49.2740   14.1710 C.3   246  VAL246      0.0290
     83  CG1       18.4950  -48.4490   13.3020 C.3   246  VAL246      0.0023
     84  CG2       17.4560  -50.6360   13.5470 C.3   246  VAL246      0.0023
     85  N         17.8010  -47.3940   16.9510 N.am  247  ASP247     -0.1971
     86  CA        18.1230  -46.0860   17.5140 C.3   247  ASP247      0.1709
     87  C         19.3440  -46.1690   18.4030 C.2   247  ASP247      0.2293
     88  O         20.1570  -45.2420   18.4350 O.2   247  ASP247     -0.2864
     89  CB        16.9380  -45.5400   18.2880 C.3   247  ASP247      0.1436
     90  CG        15.7230  -45.2920   17.4080 C.2   247  ASP247      0.3671
     91  OD1       15.8750  -45.0140   16.1810 O.co2 247  ASP247     -0.2456
     92  OD2       14.6100  -45.3560   17.9860 O.co2 247  ASP247     -0.2456
     93  N         22.3130  -56.5220   29.7010 N.3   269  TYR269     -0.1227
     94  CA        20.9960  -56.8420   29.1380 C.3   269  TYR269      0.1736
     95  C         20.9740  -58.1990   28.4500 C.2   269  TYR269      0.2595
     96  O         20.0370  -58.9690   28.6370 O.2   269  TYR269     -0.2718
     97  CB        20.5900  -55.7280   28.1680 C.3   269  TYR269      0.0548
     98  CG        19.2080  -55.7330   27.6360 C.ar  269  TYR269     -0.0200
     99  CD1       18.9010  -56.4960   26.5430 C.ar  269  TYR269     -0.0009
    100  CD2       18.2180  -54.9060   28.1560 C.ar  269  TYR269     -0.0009
    101  CE1       17.6310  -56.4780   25.9910 C.ar  269  TYR269      0.0417
    102  CE2       16.9500  -54.8870   27.6040 C.ar  269  TYR269      0.0417
    103  CZ        16.6710  -55.6810   26.5100 C.ar  269  TYR269      0.1957
    104  OH        15.4600  -55.7620   25.8790 O.3   269  TYR269     -0.2866
    105  N         22.0010  -58.5450   27.7040 N.am  270  TYR270     -0.1976
    106  CA        22.0410  -59.8220   26.9950 C.3   270  TYR270      0.1639
    107  C         23.2260  -60.6640   27.4550 C.2   270  TYR270      0.2290
    108  O         24.0610  -61.0740   26.6410 O.2   270  TYR270     -0.2864
    109  CB        22.1080  -59.5880   25.4870 C.3   270  TYR270      0.0560
    110  CG        20.7700  -59.3600   24.8150 C.ar  270  TYR270     -0.0198
    111  CD1       19.5880  -59.7240   25.4130 C.ar  270  TYR270     -0.0009
    112  CD2       20.7120  -58.8210   23.5630 C.ar  270  TYR270     -0.0009
    113  CE1       18.3700  -59.5250   24.7780 C.ar  270  TYR270      0.0417
    114  CE2       19.5260  -58.6250   22.9280 C.ar  270  TYR270      0.0417
    115  CZ        18.3470  -58.9800   23.5390 C.ar  270  TYR270      0.1957
    116  OH        17.1520  -58.7730   22.8870 O.3   270  TYR270     -0.2866
@<TRIPOS>BOND
     1    83    82    1
     2    84    82    1
     3    82    79    1
     4    79    80    1
     5    79    78    1
     6    81    80    2
     7    80    85   am
     8    91    90   ar
     9    78    72   am
    10    61    62    1
    11    85    86    1
    12    62    63    1
    13    62    65    1
    14    90    92   ar
    15    90    89    1
    16    86    89    1
    17    86    87    1
    18    72    73    2
    19    72    71    1
    20    38    39    1
    21    64    63    2
    22    63    70   am
    23    41    40    2
    24    39    40    1
    25    39    42    1
    26    70    71    1
    27    66    65    1
    28    66    67    1
    29    40    49   am
    30    87    88    2
    31    71    74    1
    32    42    43    1
    33    52    51    2
    34    43    44    1
    35    51    50    1
    36    69    67   ar
    37    16    15    1
    38    76    75   ar
    39    67    68   ar
    40    49    50    1
    41    44    45    1
    42     9     7   ar
    43    74    75    1
    44    50    53    1
    45    75    77   ar
    46    45    46    2
    47    17    15    1
    48    15    14    1
    49     7     6    1
    50     7     8   ar
    51     6     5    1
    52    46    47    1
    53    46    48    1
    54    53    54    1
    55     5     2    1
    56    14    11    1
    57    56    54   ar
    58    56    58   ar
    59     1     2    1
    60     2     3    1
    61    54    55   ar
    62    58    59   ar
    63    55    57   ar
    64   116   115    1
    65   114   115   ar
    66   114   112   ar
    67    59    57   ar
    68    59    60    1
    69    11    10    1
    70    11    12    1
    71     3     4    2
    72   115   113   ar
    73   112   110   ar
    74    13    12    2
    75    12    18   am
    76   113   111   ar
    77   110   111   ar
    78   110   109    1
    79    18    19    1
    80    22    19    1
    81    22    23    1
    82   109   106    1
    83    25    23   ar
    84    25    27   ar
    85    19    20    1
    86    23    24   ar
    87   104   103    1
    88   101   103   ar
    89   101    99   ar
    90    27    28   ar
    91   103   102   ar
    92    99    98   ar
    93   108   107    2
    94    24    26   ar
    95   106   107    1
    96   106   105    1
    97    20    21    2
    98    28    26   ar
    99    28    29    1
   100   102   100   ar
   101    98   100   ar
   102    98    97    1
   103   105    95   am
   104    97    94    1
   105    95    96    2
   106    95    94    1
   107    37    35   ar
   108    94    93    1
   109    35    36   ar
   110    35    34    1
   111    34    31    1
   112    30    31    1
   113    31    32    1
   114    32    33    2
