@<TRIPOS>MOLECULE
tmp/5ofrA01.pdb
 74 72 0 0 0
SMALL
GASTEIGER

@<TRIPOS>ATOM
      1  N         30.1540   10.6790  108.9200 N.3   455  VAL455     -0.1231
      2  CA        30.6070   10.0700  110.1790 C.3   455  VAL455      0.1692
      3  C         30.4510    8.5370  110.0560 C.2   455  VAL455      0.2592
      4  O         29.3430    8.0430  109.8110 O.2   455  VAL455     -0.2718
      5  CB        29.9340   10.6460  111.4610 C.3   455  VAL455      0.0266
      6  CG1       30.1510    9.7330  112.6620 C.3   455  VAL455      0.0020
      7  CG2       30.4650   12.0380  111.7830 C.3   455  VAL455      0.0020
      8  N         31.5850    7.8080  110.2140 N.am  456  ASN456     -0.1974
      9  CA        31.7240    6.3450  110.1400 C.3   456  ASN456      0.1688
     10  C         31.1750    5.7920  108.7970 C.2   456  ASN456      0.2292
     11  O         30.2730    4.9480  108.7850 O.2   456  ASN456     -0.2864
     12  CB        31.0700    5.6520  111.3570 C.3   456  ASN456      0.1181
     13  CG        31.5970    6.1080  112.7140 C.2   456  ASN456      0.2629
     14  OD1       32.8120    6.2260  112.9670 O.2   456  ASN456     -0.2716
     15  ND2       30.6750    6.3450  113.6320 N.am  456  ASN456     -0.0877
     16  N         22.1340   14.2510  122.2450 N.3   467  ILE467     -0.1245
     17  CA        21.9290   14.0090  123.6830 C.3   467  ILE467      0.1561
     18  C         22.4580   15.2150  124.5300 C.2   467  ILE467      0.2260
     19  O         23.1080   16.1310  123.9940 O.2   467  ILE467     -0.2867
     20  CB        22.6860   12.6680  123.9860 C.3   467  ILE467      0.0252
     21  CG1       21.7690   11.4730  123.7500 C.3   467  ILE467      0.0019
     22  CG2       23.4080   12.5800  125.3530 C.3   467  ILE467      0.0019
     23  CD1       22.4890   10.0640  123.7020 C.3   467  ILE467      0.0001
     24  N         27.0130   14.5090  124.1850 N.3   471  ASN471     -0.1225
     25  CA        27.7870   13.2970  124.5210 C.3   471  ASN471      0.1785
     26  C         27.4740   12.0960  123.6040 C.2   471  ASN471      0.2597
     27  O         28.0510   11.0310  123.7630 O.2   471  ASN471     -0.2718
     28  CB        27.5730   12.9400  125.9950 C.3   471  ASN471      0.1169
     29  CG        27.9790   14.0500  126.9550 C.2   471  ASN471      0.2627
     30  OD1       28.9670   14.7940  126.7440 O.2   471  ASN471     -0.2716
     31  ND2       27.2260   14.1580  128.0480 N.am  471  ASN471     -0.0877
     32  N         26.6090   12.3170  122.6220 N.am  472  ASN472     -0.1960
     33  CA        26.1910   11.4420  121.5480 C.3   472  ASN472      0.1819
     34  C         27.3130   11.4370  120.4820 C.2   472  ASN472      0.2621
     35  O         27.3520   10.5830  119.5870 O.2   472  ASN472     -0.2715
     36  CB        24.8840   12.0360  121.0050 C.3   472  ASN472      0.1195
     37  CG        24.0930   11.2170  120.0230 C.2   472  ASN472      0.2630
     38  OD1       24.4980   11.0110  118.8810 O.2   472  ASN472     -0.2716
     39  ND2       22.8740   10.8610  120.3890 N.am  472  ASN472     -0.0877
     40  N         28.2470   12.3980  120.6120 N.am  473  TYR473     -0.1960
     41  CA        29.3740   12.6530  119.7160 C.3   473  TYR473      0.1771
     42  C         30.7120   12.6450  120.4490 C.2   473  TYR473      0.2620
     43  O         30.7770   12.8730  121.6640 O.2   473  TYR473     -0.2715
     44  CB        29.1830   14.0300  119.0410 C.3   473  TYR473      0.0574
     45  CG        28.4530   14.0280  117.7060 C.ar  473  TYR473     -0.0198
     46  CD1       27.6570   12.9470  117.3170 C.ar  473  TYR473     -0.0009
     47  CD2       28.5350   15.1170  116.8450 C.ar  473  TYR473     -0.0009
     48  CE1       26.9790   12.9470  116.0930 C.ar  473  TYR473      0.0417
     49  CE2       27.8730   15.1230  115.6140 C.ar  473  TYR473      0.0417
     50  CZ        27.0870   14.0400  115.2450 C.ar  473  TYR473      0.1957
     51  OH        26.3980   14.0610  114.0490 O.3   473  TYR473     -0.2866
     52  N         31.7830   12.3880  119.6770 N.am  474  SER474     -0.1936
     53  CA        33.1810   12.3790  120.1120 C.3   474  SER474      0.2055
     54  C         33.6480   13.8110  120.4020 C.2   474  SER474      0.2644
     55  O         33.1360   14.7500  119.7700 O.2   474  SER474     -0.2714
     56  CB        34.0530   11.7660  119.0210 C.3   474  SER474      0.2130
     57  OG        34.3830   12.7340  118.0440 O.3   474  SER474     -0.2179
     58  N         34.6490   13.9560  121.2890 N.am  475  GLY475     -0.1939
     59  CA        35.2500   15.2470  121.6640 C.3   475  GLY475      0.2014
     60  C         35.5060   16.2030  120.5070 C.2   475  GLY475      0.2639
     61  O         35.1190   17.3680  120.5470 O.2   475  GLY475     -0.2714
     62  N         36.1190   15.6700  119.4620 N.am  476  GLY476     -0.1939
     63  CA        36.4200   16.3530  118.2120 C.3   476  GLY476      0.2014
     64  C         35.1850   16.6770  117.3960 C.2   476  GLY476      0.2638
     65  O         35.1150   17.7640  116.8360 O.2   476  GLY476     -0.2714
     66  N         34.1950   15.7560  117.3200 N.am  477  GLN477     -0.1977
     67  CA        32.9540   15.9890  116.5840 C.3   477  GLN477      0.1601
     68  C         32.1940   17.0910  117.2460 C.2   477  GLN477      0.2287
     69  O         31.4930   17.8280  116.5520 O.2   477  GLN477     -0.2864
     70  CB        32.0960   14.7360  116.4990 C.3   477  GLN477      0.0394
     71  CG        32.5850   13.7170  115.4860 C.3   477  GLN477      0.0908
     72  CD        32.1600   12.3230  115.8020 C.2   477  GLN477      0.2608
     73  OE1       31.6380   12.0100  116.8870 O.2   477  GLN477     -0.2717
     74  NE2       32.3910   11.4640  114.8370 N.am  477  GLN477     -0.0878
@<TRIPOS>BOND
     1    11    10    2
     2    10     9    1
     3     1     2    1
     4     4     3    2
     5     3     2    1
     6     3     8   am
     7     9     8    1
     8     9    12    1
     9     2     5    1
    10    12    13    1
    11     5     7    1
    12     5     6    1
    13    13    14    2
    14    13    15   am
    15    51    50    1
    16    74    72   am
    17    50    49   ar
    18    50    48   ar
    19    71    72    1
    20    71    70    1
    21    49    47   ar
    22    72    73    2
    23    48    46   ar
    24    70    67    1
    25    69    68    2
    26    67    68    1
    27    67    66    1
    28    65    64    2
    29    47    45   ar
    30    46    45   ar
    31    66    64   am
    32    64    63    1
    33    45    44    1
    34    57    56    1
    35    63    62    1
    36    38    37    2
    37    56    53    1
    38    44    41    1
    39    62    60   am
    40    35    34    2
    41    52    53    1
    42    52    42   am
    43    41    42    1
    44    41    40    1
    45    55    54    2
    46    37    39   am
    47    37    36    1
    48    53    54    1
    49    54    58   am
    50    42    43    2
    51    34    40   am
    52    34    33    1
    53    60    61    2
    54    60    59    1
    55    36    33    1
    56    58    59    1
    57    33    32    1
    58    16    17    1
    59    32    26   am
    60    26    27    2
    61    26    25    1
    62    17    20    1
    63    17    18    1
    64    23    21    1
    65    21    20    1
    66    20    22    1
    67    19    18    2
    68    24    25    1
    69    25    28    1
    70    28    29    1
    71    30    29    2
    72    29    31   am
