@<TRIPOS>MOLECULE
tmp/5ofrA00.pdb
 113 107 0 0 0
SMALL
GASTEIGER

@<TRIPOS>ATOM
      1  N         26.4380   32.6150  135.5770 N.3   110  SER110     -0.1217
      2  CA        27.3740   31.6040  136.0830 C.3   110  SER110      0.1889
      3  C         27.2140   31.3230  137.5880 C.2   110  SER110      0.2288
      4  O         27.6140   30.2400  138.0640 O.2   110  SER110     -0.2866
      5  CB        28.8080   32.0290  135.7960 C.3   110  SER110      0.2089
      6  OG        29.0800   33.2790  136.4030 O.3   110  SER110     -0.2183
      7  N         38.6190   39.3370  138.4800 N.3   346  TYR346     -0.1227
      8  CA        37.3450   38.6380  138.4980 C.3   346  TYR346      0.1736
      9  C         36.6090   38.9570  139.8050 C.2   346  TYR346      0.2596
     10  O         35.4530   39.3870  139.7560 O.2   346  TYR346     -0.2718
     11  CB        37.5330   37.1210  138.3030 C.3   346  TYR346      0.0548
     12  CG        37.6270   36.6680  136.8550 C.ar  346  TYR346     -0.0200
     13  CD1       36.4950   36.6150  136.0410 C.ar  346  TYR346     -0.0009
     14  CD2       38.8290   36.2160  136.3220 C.ar  346  TYR346     -0.0009
     15  CE1       36.5720   36.1750  134.7170 C.ar  346  TYR346      0.0417
     16  CE2       38.9150   35.7630  135.0040 C.ar  346  TYR346      0.0417
     17  CZ        37.7840   35.7430  134.2040 C.ar  346  TYR346      0.1957
     18  OH        37.8600   35.2960  132.9040 O.3   346  TYR346     -0.2866
     19  N         37.2940   38.8000  140.9620 N.am  347  SER347     -0.1952
     20  CA        36.7270   39.0460  142.2970 C.3   347  SER347      0.1924
     21  C         37.4640   40.1650  143.0730 C.2   347  SER347      0.2314
     22  O         37.3160   40.2660  144.2990 O.2   347  SER347     -0.2863
     23  CB        36.7290   37.7540  143.1110 C.3   347  SER347      0.2116
     24  OG        38.0390   37.2370  143.2730 O.3   347  SER347     -0.2180
     25  N         44.1140   39.4730  137.2800 N.3   352  ILE352     -0.1245
     26  CA        44.2740   38.4390  136.2590 C.3   352  ILE352      0.1561
     27  C         45.0160   39.0480  135.0640 C.2   352  ILE352      0.2260
     28  O         45.9620   38.4290  134.5950 O.2   352  ILE352     -0.2867
     29  CB        42.9190   37.7530  135.9030 C.3   352  ILE352      0.0252
     30  CG1       42.5040   36.7780  137.0220 C.3   352  ILE352      0.0019
     31  CG2       42.9840   36.9920  134.5950 C.3   352  ILE352      0.0019
     32  CD1       41.6760   37.3720  138.1850 C.3   352  ILE352      0.0001
     33  N         48.9920   27.7780  131.6660 N.3   372  SER372     -0.1202
     34  CA        47.6110   27.6580  132.1130 C.3   372  SER372      0.2020
     35  C         47.4060   28.4550  133.4170 C.2   372  SER372      0.2619
     36  O         47.9620   28.1130  134.4610 O.2   372  SER372     -0.2717
     37  CB        47.2310   26.1950  132.2850 C.3   372  SER372      0.2103
     38  OG        45.8700   26.0860  132.6580 O.3   372  SER372     -0.2182
     39  N         46.6770   29.5590  133.2990 N.am  373  GLY373     -0.1942
     40  CA        46.4040   30.4720  134.3990 C.3   373  GLY373      0.2014
     41  C         46.8690   31.8780  134.1230 C.2   373  GLY373      0.2640
     42  O         46.6340   32.7670  134.9490 O.2   373  GLY373     -0.2714
     43  N         47.5610   32.0810  132.9640 N.am  374  SER374     -0.1935
     44  CA        48.0900   33.3810  132.5360 C.3   374  SER374      0.2055
     45  C         46.9180   34.3600  132.2700 C.2   374  SER374      0.2644
     46  O         46.9390   35.4910  132.7620 O.2   374  SER374     -0.2714
     47  CB        49.0200   33.2440  131.3240 C.3   374  SER374      0.2130
     48  OG        48.3890   32.6820  130.1850 O.3   374  SER374     -0.2179
     49  N         45.8890   33.8870  131.5690 N.am  375  GLY375     -0.1939
     50  CA        44.7030   34.6730  131.2530 C.3   375  GLY375      0.2014
     51  C         44.4670   34.9040  129.7720 C.2   375  GLY375      0.2639
     52  O         44.1430   36.0290  129.3730 O.2   375  GLY375     -0.2714
     53  N         44.6100   33.8400  128.9380 N.am  376  LYS376     -0.1963
     54  CA        44.3960   33.9290  127.4840 C.3   376  LYS376      0.1728
     55  C         42.8850   34.0540  127.2220 C.2   376  LYS376      0.2617
     56  O         42.4400   35.0210  126.5780 O.2   376  LYS376     -0.2715
     57  CB        45.0120   32.7190  126.7620 C.3   376  LYS376      0.0311
     58  CG        46.5270   32.6200  126.8870 C.3   376  LYS376      0.0038
     59  CD        47.0610   31.2220  126.5600 C.3   376  LYS376      0.0206
     60  CE        46.7690   30.1660  127.6000 C.3   376  LYS376      0.1093
     61  NZ        47.4150   30.4680  128.9000 N.3   376  LYS376     -0.1314
     62  N         42.1050   33.0950  127.8010 N.am  377  SER377     -0.1936
     63  CA        40.6490   33.0220  127.7720 C.3   377  SER377      0.2055
     64  C         40.0680   34.3040  128.3260 C.2   377  SER377      0.2643
     65  O         39.3270   34.9600  127.6090 O.2   377  SER377     -0.2714
     66  CB        40.1620   31.8280  128.5740 C.3   377  SER377      0.2130
     67  OG        40.7130   30.6410  128.0400 O.3   377  SER377     -0.2179
     68  N         40.4850   34.7220  129.5500 N.am  378  THR378     -0.1950
     69  CA        40.0630   35.9780  130.1940 C.3   378  THR378      0.1897
     70  C         40.1040   37.1530  129.1930 C.2   378  THR378      0.2313
     71  O         39.0860   37.8110  128.9670 O.2   378  THR378     -0.2863
     72  CB        40.9470   36.2990  131.4230 C.3   378  THR378      0.1794
     73  OG1       41.0430   35.1650  132.2950 O.3   378  THR378     -0.2208
     74  CG2       40.4540   37.5290  132.1920 C.3   378  THR378      0.0378
     75  N         37.7470   36.7830  126.2840 N.3   381  LYS381     -0.1245
     76  CA        36.3840   36.8870  126.8190 C.3   381  LYS381      0.1561
     77  C         36.0000   38.3470  126.9160 C.2   381  LYS381      0.2260
     78  O         34.8980   38.7030  126.4970 O.2   381  LYS381     -0.2867
     79  CB        36.2400   36.1900  128.1860 C.3   381  LYS381      0.0271
     80  CG        36.0720   34.6830  128.0980 C.3   381  LYS381      0.0035
     81  CD        36.2090   34.0360  129.4560 C.3   381  LYS381      0.0206
     82  CE        36.1210   32.5370  129.3650 C.3   381  LYS381      0.1093
     83  NZ        36.7610   31.8910  130.5430 N.3   381  LYS381     -0.1314
     84  N         32.7070   40.3260  129.9370 N.3   387  TYR387     -0.1241
     85  CA        32.8650   41.1950  131.1000 C.3   387  TYR387      0.1605
     86  C         33.0820   42.6510  130.6510 C.2   387  TYR387      0.2264
     87  O         33.6400   42.8900  129.5730 O.2   387  TYR387     -0.2867
     88  CB        34.0160   40.6780  131.9960 C.3   387  TYR387      0.0534
     89  CG        33.9550   39.1740  132.2160 C.ar  387  TYR387     -0.0201
     90  CD1       33.0260   38.6130  133.0850 C.ar  387  TYR387     -0.0009
     91  CD2       34.7670   38.3080  131.4890 C.ar  387  TYR387     -0.0009
     92  CE1       32.9350   37.2320  133.2580 C.ar  387  TYR387      0.0417
     93  CE2       34.6790   36.9240  131.6490 C.ar  387  TYR387      0.0417
     94  CZ        33.7560   36.3910  132.5300 C.ar  387  TYR387      0.1957
     95  OH        33.6670   35.0340  132.7070 O.3   387  TYR387     -0.2866
     96  N         36.6690   27.6650  124.6010 N.3   418  GLN418     -0.1245
     97  CA        37.5150   26.5730  125.0840 C.3   418  GLN418      0.1566
     98  C         36.6760   25.3210  125.2810 C.2   418  GLN418      0.2260
     99  O         37.0720   24.2600  124.7860 O.2   418  GLN418     -0.2867
    100  CB        38.2540   26.9590  126.3790 C.3   418  GLN418      0.0367
    101  CG        39.7630   26.8320  126.2430 C.3   418  GLN418      0.0905
    102  CD        40.4940   26.9810  127.5500 C.2   418  GLN418      0.2608
    103  OE1       40.5260   28.0510  128.1590 O.2   418  GLN418     -0.2717
    104  NE2       41.0930   25.8950  128.0100 N.am  418  GLN418     -0.0878
    105  N         41.6690   27.3580  121.8940 N.3   498  GLU498     -0.1245
    106  CA        41.9830   25.9240  122.0040 C.3   498  GLU498      0.1567
    107  C         40.8160   25.1070  121.4430 C.2   498  GLU498      0.2260
    108  O         40.5940   23.9730  121.8550 O.2   498  GLU498     -0.2867
    109  CB        42.3410   25.5450  123.4710 C.3   498  GLU498      0.0388
    110  CG        43.7320   26.0250  123.8540 C.3   498  GLU498      0.1160
    111  CD        44.2480   25.7650  125.2550 C.2   498  GLU498      0.3649
    112  OE1       44.4440   26.7550  125.9940 O.co2 498  GLU498     -0.2457
    113  OE2       44.5470   24.5930  125.5810 O.co2 498  GLU498     -0.2457
@<TRIPOS>BOND
     1   107   108    2
     2   107   106    1
     3   105   106    1
     4   106   109    1
     5   109   110    1
     6   110   111    1
     7    96    97    1
     8    99    98    2
     9    97    98    1
    10    97   100    1
    11   111   113   ar
    12   111   112   ar
    13   101   100    1
    14   101   102    1
    15    75    76    1
    16    78    77    2
    17    59    58    1
    18    59    60    1
    19    56    55    2
    20    57    58    1
    21    57    54    1
    22    76    77    1
    23    76    79    1
    24    55    54    1
    25    55    62   am
    26    54    53    1
    27   102   104   am
    28   102   103    2
    29    60    61    1
    30    65    64    2
    31    63    62    1
    32    63    64    1
    33    63    66    1
    34    67    66    1
    35    80    79    1
    36    80    81    1
    37    64    68   am
    38    53    51   am
    39    71    70    2
    40    70    69    1
    41    82    81    1
    42    82    83    1
    43    52    51    2
    44    68    69    1
    45    87    86    2
    46    51    50    1
    47    84    85    1
    48    48    47    1
    49    69    72    1
    50    86    85    1
    51    85    88    1
    52    50    49    1
    53    47    44    1
    54    72    74    1
    55    72    73    1
    56    91    93   ar
    57    91    89   ar
    58    49    45   am
    59    93    94   ar
    60    33    34    1
    61    88    89    1
    62    34    37    1
    63    34    35    1
    64    89    90   ar
    65    45    44    1
    66    45    46    2
    67    37    38    1
    68    94    95    1
    69    94    92   ar
    70    44    43    1
    71    18    17    1
    72    43    41   am
    73    90    92   ar
    74    39    35   am
    75    39    40    1
    76    35    36    2
    77    41    40    1
    78    41    42    2
    79    17    15   ar
    80    17    16   ar
    81    31    29    1
    82    28    27    2
    83    15    13   ar
    84    16    14   ar
    85    27    26    1
    86     1     2    1
    87     5     2    1
    88     5     6    1
    89    29    26    1
    90    29    30    1
    91    13    12   ar
    92     2     3    1
    93    26    25    1
    94    14    12   ar
    95    12    11    1
    96    30    32    1
    97     3     4    2
    98    11     8    1
    99     7     8    1
   100     8     9    1
   101    10     9    2
   102     9    19   am
   103    19    20    1
   104    20    21    1
   105    20    23    1
   106    21    22    2
   107    23    24    1
