@<TRIPOS>MOLECULE
tmp/5ofuA00.pdb
 123 119 0 0 0
SMALL
GASTEIGER

@<TRIPOS>ATOM
      1  N        -33.6050  -10.1470   27.5900 N.3    10  ILE10      -0.1245
      2  CA       -32.4520  -10.5870   28.3810 C.3    10  ILE10       0.1561
      3  C        -32.5360  -10.0360   29.8000 C.2    10  ILE10       0.2260
      4  O        -32.3990  -10.7860   30.7690 O.2    10  ILE10      -0.2867
      5  CB       -31.1080  -10.1840   27.7310 C.3    10  ILE10       0.0252
      6  CG1      -30.8530  -11.0020   26.4580 C.3    10  ILE10       0.0019
      7  CG2      -29.9440  -10.3980   28.6930 C.3    10  ILE10       0.0019
      8  CD1      -29.8680  -10.3520   25.5160 C.3    10  ILE10       0.0001
      9  N        -35.4020  -11.5320   31.8090 N.3    13  SER13      -0.1202
     10  CA       -35.1230  -12.9300   32.1430 C.3    13  SER13       0.2020
     11  C        -34.1530  -13.0880   33.3140 C.2    13  SER13       0.2619
     12  O        -33.9880  -14.1960   33.8000 O.2    13  SER13      -0.2717
     13  CB       -34.5420  -13.6750   30.9320 C.3    13  SER13       0.2103
     14  OG       -35.4580  -13.7220   29.8420 O.3    13  SER13      -0.2182
     15  N        -33.4960  -12.0140   33.7450 N.am   14  GLN14      -0.1965
     16  CA       -32.5120  -12.0970   34.8310 C.3    14  GLN14       0.1718
     17  C        -33.1920  -12.4900   36.1570 C.2    14  GLN14       0.2458
     18  O        -34.0160  -11.7250   36.6510 O.2    14  GLN14      -0.2730
     19  CB       -31.7740  -10.7570   35.0180 C.3    14  GLN14       0.0407
     20  CG       -30.4650  -10.9160   35.7570 C.3    14  GLN14       0.0908
     21  CD       -29.6440   -9.6380   35.8320 C.2    14  GLN14       0.2608
     22  OE1      -29.2060   -8.9970   34.8230 O.2    14  GLN14      -0.2717
     23  NE2      -29.4280   -9.2520   37.0470 N.am   14  GLN14      -0.0878
     24  N        -32.8690  -13.6780   36.7240 N.am   15  PRO15      -0.2727
     25  CA       -33.4770  -14.0530   38.0000 C.3    15  PRO15       0.1402
     26  C        -33.0760  -13.0870   39.1150 C.2    15  PRO15       0.2269
     27  O        -31.9860  -12.5070   39.0500 O.2    15  PRO15      -0.2865
     28  CB       -32.8960  -15.4420   38.2780 C.3    15  PRO15       0.0296
     29  CG       -32.4960  -15.9590   36.9480 C.3    15  PRO15       0.0237
     30  CD       -31.9930  -14.7540   36.2250 C.3    15  PRO15       0.0939
     31  N        -29.0140  -12.3390   40.9130 N.3    18  SER18      -0.1202
     32  CA       -27.9380  -12.6820   39.9890 C.3    18  SER18       0.2020
     33  C        -26.9110  -11.5480   40.0380 C.2    18  SER18       0.2619
     34  O        -27.2530  -10.4110   40.3630 O.2    18  SER18      -0.2717
     35  CB       -28.4770  -12.8180   38.5570 C.3    18  SER18       0.2103
     36  OG       -29.6480  -13.6120   38.5200 O.3    18  SER18      -0.2182
     37  N        -25.6690  -11.8600   39.6990 N.am   19  ARG19      -0.1965
     38  CA       -24.5990  -10.8720   39.6430 C.3    19  ARG19       0.1729
     39  C        -24.7190   -9.8900   38.4750 C.2    19  ARG19       0.2617
     40  O        -24.1740   -8.7800   38.5260 O.2    19  ARG19      -0.2715
     41  CB       -23.2530  -11.5700   39.5370 C.3    19  ARG19       0.0348
     42  CG       -22.9060  -12.4030   40.7580 C.3    19  ARG19       0.0492
     43  CD       -21.7400  -13.3340   40.4820 C.3    19  ARG19       0.2205
     44  NE       -22.0650  -14.2630   39.4050 N.pl3  19  ARG19      -0.0865
     45  CZ       -21.2040  -15.1120   38.8440 C.cat  19  ARG19       0.5346
     46  NH1      -19.9380  -15.1650   39.2520 N.pl3  19  ARG19       0.1354
     47  NH2      -21.6130  -15.9050   37.8580 N.pl3  19  ARG19       0.1354
     48  N        -25.4430  -10.2900   37.4400 N.am   20  GLY20      -0.1940
     49  CA       -25.5420   -9.5330   36.1930 C.3    20  GLY20       0.2014
     50  C        -24.5000   -9.9180   35.1520 C.2    20  GLY20       0.2639
     51  O        -24.4690   -9.3150   34.0840 O.2    20  GLY20      -0.2714
     52  N        -23.6320  -10.8900   35.4640 N.am   21  ASP21      -0.1957
     53  CA       -22.5300  -11.2900   34.5750 C.3    21  ASP21       0.1840
     54  C        -23.0650  -11.9560   33.3150 C.2    21  ASP21       0.2622
     55  O        -22.6110  -11.6710   32.2080 O.2    21  ASP21      -0.2715
     56  CB       -21.5770  -12.2930   35.2470 C.3    21  ASP21       0.1450
     57  CG       -20.8080  -11.7060   36.4150 C.2    21  ASP21       0.3671
     58  OD1      -20.9150  -10.4860   36.6670 O.co2  21  ASP21      -0.2456
     59  OD2      -20.1030  -12.4870   37.0940 O.co2  21  ASP21      -0.2456
     60  N        -24.0230  -12.8510   33.5150 N.am   22  PHE22      -0.1960
     61  CA       -24.6650  -13.5550   32.4280 C.3    22  PHE22       0.1771
     62  C        -25.3800  -12.5730   31.5110 C.2    22  PHE22       0.2620
     63  O        -25.2940  -12.7090   30.2900 O.2    22  PHE22      -0.2715
     64  CB       -25.6370  -14.6040   32.9660 C.3    22  PHE22       0.0574
     65  CG       -26.2610  -15.4520   31.9100 C.ar   22  PHE22      -0.0200
     66  CD1      -27.4060  -15.0340   31.2540 C.ar   22  PHE22      -0.0042
     67  CD2      -25.7100  -16.6820   31.5700 C.ar   22  PHE22      -0.0042
     68  CE1      -27.9920  -15.8180   30.2750 C.ar   22  PHE22      -0.0003
     69  CE2      -26.2970  -17.4800   30.5990 C.ar   22  PHE22      -0.0003
     70  CZ       -27.4410  -17.0460   29.9520 C.ar   22  PHE22      -0.0000
     71  N        -26.0770  -11.5980   32.0870 N.am   23  THR23      -0.1951
     72  CA       -26.7410  -10.5500   31.2990 C.3    23  THR23       0.1897
     73  C        -25.7430   -9.7790   30.4580 C.2    23  THR23       0.2313
     74  O        -25.9650   -9.6130   29.2470 O.2    23  THR23      -0.2863
     75  CB       -27.5720   -9.6060   32.1700 C.3    23  THR23       0.1794
     76  OG1      -28.7460  -10.3110   32.5820 O.3    23  THR23      -0.2208
     77  CG2      -27.9960   -8.3500   31.4100 C.3    23  THR23       0.0378
     78  N        -17.5840  -18.0670   33.5840 N.3    97  TYR97      -0.1241
     79  CA       -18.2330  -18.6500   32.4090 C.3    97  TYR97       0.1605
     80  C        -17.2000  -19.1020   31.3850 C.2    97  TYR97       0.2264
     81  O        -16.1980  -18.4150   31.1680 O.2    97  TYR97      -0.2867
     82  CB       -19.2250  -17.6710   31.7820 C.3    97  TYR97       0.0534
     83  CG       -20.4700  -17.5250   32.6100 C.ar   97  TYR97      -0.0201
     84  CD1      -21.4050  -18.5410   32.6560 C.ar   97  TYR97      -0.0009
     85  CD2      -20.7190  -16.3720   33.3510 C.ar   97  TYR97      -0.0009
     86  CE1      -22.5500  -18.4270   33.4250 C.ar   97  TYR97       0.0417
     87  CE2      -21.8710  -16.2490   34.1210 C.ar   97  TYR97       0.0417
     88  CZ       -22.7870  -17.2880   34.1560 C.ar   97  TYR97       0.1957
     89  OH       -23.9350  -17.2210   34.9240 O.3    97  TYR97      -0.2866
     90  N        -20.8220  -22.9820   33.0380 N.3   124  ARG124     -0.1245
     91  CA       -20.3400  -22.3860   34.2840 C.3   124  ARG124      0.1563
     92  C        -19.2950  -23.3020   34.9290 C.2   124  ARG124      0.2260
     93  O        -19.4090  -24.5290   34.8650 O.2   124  ARG124     -0.2867
     94  CB       -21.5250  -22.1520   35.2280 C.3   124  ARG124      0.0307
     95  CG       -21.3180  -20.9960   36.1740 C.3   124  ARG124      0.0489
     96  CD       -22.5920  -20.6300   36.9070 C.3   124  ARG124      0.2205
     97  NE       -22.2930  -19.6460   37.9400 N.pl3 124  ARG124     -0.0865
     98  CZ       -23.1860  -19.1280   38.7750 C.cat 124  ARG124      0.5346
     99  NH1      -24.4710  -19.5000   38.7350 N.pl3 124  ARG124      0.1354
    100  NH2      -22.7880  -18.2300   39.6730 N.pl3 124  ARG124      0.1354
    101  N        -25.3970  -23.8740   30.6980 N.3   150  VAL150     -0.1245
    102  CA       -26.3690  -22.8620   31.1440 C.3   150  VAL150      0.1561
    103  C        -27.0940  -22.1580   29.9890 C.2   150  VAL150      0.2260
    104  O        -28.2200  -21.7000   30.1660 O.2   150  VAL150     -0.2867
    105  CB       -25.7490  -21.8180   32.1050 C.3   150  VAL150      0.0252
    106  CG1      -25.0050  -22.5260   33.2180 C.3   150  VAL150      0.0019
    107  CG2      -24.8090  -20.8580   31.3960 C.3   150  VAL150      0.0019
    108  N        -32.0020  -20.4920   27.5900 N.3   167  SER167     -0.1217
    109  CA       -31.3660  -20.5740   28.9120 C.3   167  SER167      0.1889
    110  C        -31.9240  -21.7400   29.7480 C.2   167  SER167      0.2288
    111  O        -31.8680  -21.7060   30.9760 O.2   167  SER167     -0.2866
    112  CB       -31.5950  -19.2810   29.6910 C.3   167  SER167      0.2089
    113  OG       -31.3500  -18.1420   28.9020 O.3   167  SER167     -0.2183
    114  N        -35.2120  -22.7490   29.4850 N.3   169  HIS169     -0.1241
    115  CA       -36.6670  -22.5800   29.6120 C.3   169  HIS169      0.1621
    116  C        -37.2880  -22.3240   28.2420 C.2   169  HIS169      0.2264
    117  O        -37.9790  -21.3330   28.0370 O.2   169  HIS169     -0.2867
    118  CB       -36.9850  -21.4300   30.5730 C.3   169  HIS169      0.0745
    119  CG       -36.4260  -21.6330   31.9440 C.ar  169  HIS169      0.0817
    120  ND1      -35.2200  -21.0970   32.3440 N.ar  169  HIS169     -0.2268
    121  CD2      -36.8890  -22.3500   32.9930 C.ar  169  HIS169      0.1154
    122  CE1      -34.9650  -21.4720   33.5840 C.ar  169  HIS169      0.1986
    123  NE2      -35.9660  -22.2260   34.0030 N.ar  169  HIS169     -0.2212
@<TRIPOS>BOND
     1     8     6    1
     2     6     5    1
     3     1     2    1
     4   108   109    1
     5     5     2    1
     6     5     7    1
     7   117   116    2
     8   116   115    1
     9     2     3    1
    10   113   112    1
    11   109   112    1
    12   109   110    1
    13    74    73    2
    14   114   115    1
    15   115   118    1
    16   110   111    2
    17     3     4    2
    18    14    13    1
    19    70    68   ar
    20    70    69   ar
    21   103   104    2
    22   103   102    1
    23    68    66   ar
    24    63    62    2
    25    73    72    1
    26   118   119    1
    27    69    67   ar
    28   101   102    1
    29    13    10    1
    30   102   105    1
    31    81    80    2
    32    66    65   ar
    33    72    71    1
    34    72    75    1
    35    80    79    1
    36   107   105    1
    37    77    75    1
    38    62    71   am
    39    62    61    1
    40    67    65   ar
    41    82    79    1
    42    82    83    1
    43     9    10    1
    44    65    64    1
    45   119   120   ar
    46   119   121   ar
    47   105   106    1
    48    10    11    1
    49    75    76    1
    50    55    54    2
    51   120   122   ar
    52    79    78    1
    53    61    64    1
    54    61    60    1
    55    83    84   ar
    56    83    85   ar
    57    84    86   ar
    58   121   123   ar
    59    90    91    1
    60    11    15   am
    61    11    12    2
    62    54    60   am
    63    54    53    1
    64    85    87   ar
    65    86    88   ar
    66   122   123   ar
    67    15    16    1
    68    51    50    2
    69    87    88   ar
    70    88    89    1
    71    91    92    1
    72    91    94    1
    73    53    56    1
    74    53    52    1
    75    22    21    2
    76    16    19    1
    77    16    17    1
    78    93    92    2
    79    19    20    1
    80    50    52   am
    81    50    49    1
    82    94    95    1
    83    56    57    1
    84    20    21    1
    85    21    23   am
    86    17    18    2
    87    17    24   am
    88    95    96    1
    89    49    48    1
    90    30    24    1
    91    30    29    1
    92    57    58   ar
    93    57    59   ar
    94    24    25    1
    95    96    97    1
    96    29    28    1
    97    48    39   am
    98    47    45    1
    99    97    98    2
   100    25    28    1
   101    25    26    1
   102    39    40    2
   103    39    38    1
   104    36    35    1
   105    35    32    1
   106    99    98    1
   107    98   100    1
   108    45    46    1
   109    45    44    2
   110    27    26    2
   111    44    43    1
   112    41    38    1
   113    41    42    1
   114    38    37    1
   115    37    33   am
   116    32    33    1
   117    32    31    1
   118    33    34    2
   119    43    42    1
