@<TRIPOS>MOLECULE
tmp/5ofuA01.pdb
 136 128 0 0 0
SMALL
GASTEIGER

@<TRIPOS>ATOM
      1  N        -13.6470  -22.6190   17.6650 N.3    81  GLU81      -0.1245
      2  CA       -13.4430  -23.8750   16.9230 C.3    81  GLU81       0.1567
      3  C        -12.2170  -23.8410   16.0120 C.2    81  GLU81       0.2260
      4  O        -11.4990  -24.8260   15.9060 O.2    81  GLU81      -0.2867
      5  CB       -14.6820  -24.2370   16.1050 C.3    81  GLU81       0.0388
      6  CG       -14.4610  -25.4320   15.1860 C.3    81  GLU81       0.1160
      7  CD       -15.7280  -26.1670   14.8320 C.2    81  GLU81       0.3649
      8  OE1      -16.8010  -25.5380   14.7520 O.co2  81  GLU81      -0.2457
      9  OE2      -15.6420  -27.3880   14.6060 O.co2  81  GLU81      -0.2457
     10  N        -18.3150  -21.3910   17.4450 N.3   102  ASP102     -0.1239
     11  CA       -17.8690  -21.3790   16.0640 C.3   102  ASP102      0.1674
     12  C        -18.3830  -20.0520   15.4990 C.2   102  ASP102      0.2266
     13  O        -19.5890  -19.8910   15.3420 O.2   102  ASP102     -0.2867
     14  CB       -18.4570  -22.5740   15.3130 C.3   102  ASP102      0.1410
     15  CG       -17.9740  -22.6630   13.8700 C.2   102  ASP102      0.3668
     16  OD1      -17.2590  -21.7350   13.4220 O.co2 102  ASP102     -0.2456
     17  OD2      -18.3270  -23.6630   13.1860 O.co2 102  ASP102     -0.2456
     18  N        -19.7840  -20.5420   10.9990 N.3   105  ASP105     -0.1225
     19  CA       -20.1710  -21.8640   10.5540 C.3   105  ASP105      0.1805
     20  C        -20.6270  -21.8360    9.1010 C.2   105  ASP105      0.2598
     21  O        -21.2930  -20.8960    8.6710 O.2   105  ASP105     -0.2718
     22  CB       -21.2950  -22.3780   11.4580 C.3   105  ASP105      0.1424
     23  CG       -21.8840  -23.6830   10.9890 C.2   105  ASP105      0.3668
     24  OD1      -21.2870  -24.7540   11.2680 O.co2 105  ASP105     -0.2456
     25  OD2      -22.9660  -23.6410   10.3590 O.co2 105  ASP105     -0.2456
     26  N        -20.2910  -22.8980    8.3670 N.am  106  GLY106     -0.1942
     27  CA       -20.6370  -23.0330    6.9520 C.3   106  GLY106      0.2014
     28  C        -19.6500  -22.2970    6.0730 C.2   106  GLY106      0.2640
     29  O        -20.0410  -21.6520    5.1100 O.2   106  GLY106     -0.2714
     30  N        -18.3640  -22.4030    6.4070 N.am  107  SER107     -0.1935
     31  CA       -17.3040  -21.6350    5.7370 C.3   107  SER107      0.2055
     32  C        -17.1610  -21.9250    4.2420 C.2   107  SER107      0.2643
     33  O        -16.6860  -21.0730    3.5040 O.2   107  SER107     -0.2714
     34  CB       -15.9510  -21.8580    6.4330 C.3   107  SER107      0.2130
     35  OG       -15.5050  -23.1930    6.2580 O.3   107  SER107     -0.2179
     36  N        -17.5760  -23.1120    3.8040 N.am  108  SER108     -0.1949
     37  CA       -17.5970  -23.4510    2.3840 C.3   108  SER108      0.1924
     38  C        -18.6980  -22.7040    1.5980 C.2   108  SER108      0.2314
     39  O        -18.6400  -22.6730    0.3600 O.2   108  SER108     -0.2863
     40  CB       -17.7450  -24.9620    2.1770 C.3   108  SER108      0.2116
     41  OG       -19.1110  -25.3600    2.2060 O.3   108  SER108     -0.2180
     42  N        -25.4920  -34.9580    3.5990 N.3   202  ASN202     -0.1240
     43  CA       -24.6640  -34.9410    2.3840 C.3   202  ASN202      0.1653
     44  C        -24.5760  -36.3430    1.7620 C.2   202  ASN202      0.2266
     45  O        -23.7290  -37.1440    2.1500 O.2   202  ASN202     -0.2867
     46  CB       -23.2490  -34.3980    2.6740 C.3   202  ASN202      0.1155
     47  CG       -22.4180  -34.2100    1.4080 C.2   202  ASN202      0.2627
     48  OD1      -22.7650  -34.6940    0.3150 O.2   202  ASN202     -0.2716
     49  ND2      -21.3150  -33.5030    1.5420 N.am  202  ASN202     -0.0877
     50  N        -21.4980  -38.6020    0.3300 N.3   205  ASN205     -0.1240
     51  CA       -20.7770  -39.5930    1.1490 C.3   205  ASN205      0.1653
     52  C        -21.5080  -40.9350    1.3090 C.2   205  ASN205      0.2266
     53  O        -21.1500  -41.7150    2.1860 O.2   205  ASN205     -0.2867
     54  CB       -20.5140  -38.9950    2.5490 C.3   205  ASN205      0.1155
     55  CG       -19.6640  -37.7410    2.5100 C.2   205  ASN205      0.2627
     56  OD1      -19.9740  -36.7870    3.1950 O.2   205  ASN205     -0.2716
     57  ND2      -18.6050  -37.7230    1.7010 N.am  205  ASN205     -0.0877
     58  N        -30.1650  -29.6310    1.7250 N.3   232  TYR232     -0.1241
     59  CA       -28.8630  -29.5230    2.3870 C.3   232  TYR232      0.1605
     60  C        -28.1130  -28.2920    1.8850 C.2   232  TYR232      0.2264
     61  O        -27.5160  -28.2960    0.8150 O.2   232  TYR232     -0.2867
     62  CB       -28.0640  -30.7900    2.1770 C.3   232  TYR232      0.0534
     63  CG       -26.8290  -30.9330    3.0380 C.ar  232  TYR232     -0.0201
     64  CD1      -26.9270  -31.2840    4.3930 C.ar  232  TYR232     -0.0009
     65  CD2      -25.5590  -30.7740    2.4970 C.ar  232  TYR232     -0.0009
     66  CE1      -25.7940  -31.4570    5.1720 C.ar  232  TYR232      0.0417
     67  CE2      -24.4170  -30.9390    3.2740 C.ar  232  TYR232      0.0417
     68  CZ       -24.5390  -31.2840    4.6030 C.ar  232  TYR232      0.1957
     69  OH       -23.4090  -31.4700    5.3430 O.3   232  TYR232     -0.2866
     70  N        -25.5480  -26.9020    3.4050 N.3   234  GLY234     -0.1210
     71  CA       -24.0990  -27.0190    3.6540 C.3   234  GLY234      0.1956
     72  C        -23.5790  -26.1920    4.8330 C.2   234  GLY234      0.2613
     73  O        -22.3730  -26.1560    5.0820 O.2   234  GLY234     -0.2717
     74  N        -24.4780  -25.4790    5.5110 N.am  235  SER235     -0.1938
     75  CA       -24.1790  -24.7980    6.7610 C.3   235  SER235      0.2055
     76  C        -25.1020  -25.3870    7.8040 C.2   235  SER235      0.2642
     77  O        -26.3250  -25.3250    7.6600 O.2   235  SER235     -0.2714
     78  CB       -24.4130  -23.2950    6.6410 C.3   235  SER235      0.2130
     79  OG       -23.7190  -22.7780    5.5130 O.3   235  SER235     -0.2179
     80  N        -24.5070  -25.9610    8.8460 N.am  236  MET236     -0.1976
     81  CA       -25.2570  -26.5860    9.9220 C.3   236  MET236      0.1605
     82  C        -26.3000  -25.6330   10.5350 C.2   236  MET236      0.2287
     83  O        -27.4230  -26.0420   10.8100 O.2   236  MET236     -0.2864
     84  CB       -24.3050  -27.0780   11.0100 C.3   236  MET236      0.0413
     85  CG       -25.0030  -27.9040   12.0760 C.3   236  MET236      0.0598
     86  SD       -24.0920  -27.9910   13.6210 S.3   236  MET236     -0.1393
     87  CE       -25.0560  -29.2350   14.4950 C.3   236  MET236      0.0692
     88  N        -31.8370  -33.5840   10.5090 N.3   250  PHE250     -0.1241
     89  CA       -30.5050  -33.2380   10.0410 C.3   250  PHE250      0.1605
     90  C        -29.5450  -34.3290   10.5040 C.2   250  PHE250      0.2264
     91  O        -29.5260  -34.6870   11.6760 O.2   250  PHE250     -0.2867
     92  CB       -30.0720  -31.8720   10.6050 C.3   250  PHE250      0.0534
     93  CG       -28.6830  -31.4800   10.2060 C.ar  250  PHE250     -0.0203
     94  CD1      -28.4430  -30.9040    8.9620 C.ar  250  PHE250     -0.0042
     95  CD2      -27.6040  -31.7400   11.0510 C.ar  250  PHE250     -0.0042
     96  CE1      -27.1580  -30.5710    8.5700 C.ar  250  PHE250     -0.0003
     97  CE2      -26.3200  -31.4130   10.6720 C.ar  250  PHE250     -0.0003
     98  CZ       -26.0940  -30.8240    9.4250 C.ar  250  PHE250     -0.0000
     99  N        -25.4420  -35.8400   10.2210 N.3   252  TYR252     -0.1241
    100  CA       -24.0770  -35.9830    9.7690 C.3   252  TYR252      0.1605
    101  C        -23.5200  -37.2350   10.4460 C.2   252  TYR252      0.2264
    102  O        -22.9910  -37.1590   11.5540 O.2   252  TYR252     -0.2867
    103  CB       -23.2510  -34.7320   10.0620 C.3   252  TYR252      0.0534
    104  CG       -22.1050  -34.6210    9.0860 C.ar  252  TYR252     -0.0201
    105  CD1      -21.1320  -35.6140    9.0240 C.ar  252  TYR252     -0.0009
    106  CD2      -22.0050  -33.5370    8.1960 C.ar  252  TYR252     -0.0009
    107  CE1      -20.0940  -35.5460    8.1220 C.ar  252  TYR252      0.0417
    108  CE2      -20.9590  -33.4690    7.2860 C.ar  252  TYR252      0.0417
    109  CZ       -20.0110  -34.4850    7.2620 C.ar  252  TYR252      0.1957
    110  OH       -18.9530  -34.4600    6.4010 O.3   252  TYR252     -0.2866
    111  N        -18.1570  -35.6770   11.6880 N.3   262  LYS262     -0.1231
    112  CA       -17.4240  -34.4310   11.4290 C.3   262  LYS262      0.1693
    113  C        -17.5710  -33.3580   12.5290 C.2   262  LYS262      0.2591
    114  O        -16.6050  -32.6740   12.8470 O.2   262  LYS262     -0.2718
    115  CB       -17.8420  -33.8260   10.0850 C.3   262  LYS262      0.0285
    116  CG       -16.9530  -32.6800    9.6460 C.3   262  LYS262      0.0035
    117  CD       -17.5110  -31.9530    8.4380 C.3   262  LYS262      0.0206
    118  CE       -16.6180  -30.7720    8.0830 C.3   262  LYS262      0.1093
    119  NZ       -17.2080  -29.9270    7.0160 N.3   262  LYS262     -0.1314
    120  N        -18.7730  -33.1840   13.0670 N.am  263  LEU263     -0.1980
    121  CA       -19.0920  -31.9790   13.8370 C.3   263  LEU263      0.1596
    122  C        -18.4990  -32.0620   15.2340 C.2   263  LEU263      0.2287
    123  O        -18.5580  -33.1110   15.8670 O.2   263  LEU263     -0.2864
    124  CB       -20.6040  -31.7590   13.9140 C.3   263  LEU263      0.0297
    125  CG       -21.3650  -31.8390   12.5820 C.3   263  LEU263      0.0022
    126  CD1      -22.8220  -31.4890   12.8030 C.3   263  LEU263      0.0001
    127  CD2      -20.7580  -30.9450   11.5120 C.3   263  LEU263      0.0001
    128  N        -20.2210  -27.1110   18.3850 N.3   268  GLU268     -0.1245
    129  CA       -21.3520  -27.1750   17.4500 C.3   268  GLU268      0.1567
    130  C        -22.4820  -28.0810   17.9320 C.2   268  GLU268      0.2260
    131  O        -23.6070  -27.6220   18.1300 O.2   268  GLU268     -0.2867
    132  CB       -20.8670  -27.6610   16.0810 C.3   268  GLU268      0.0388
    133  CG       -19.7580  -26.8160   15.4670 C.3   268  GLU268      0.1160
    134  CD       -19.3980  -27.2440   14.0440 C.2   268  GLU268      0.3649
    135  OE1      -18.9370  -28.4080   13.8640 O.co2 268  GLU268     -0.2457
    136  OE2      -19.5550  -26.4060   13.1190 O.co2 268  GLU268     -0.2457
@<TRIPOS>BOND
     1    48    47    2
     2    50    51    1
     3    39    38    2
     4    61    60    2
     5    51    52    1
     6    51    54    1
     7    52    53    2
     8    47    49   am
     9    47    46    1
    10    38    37    1
    11    57    55   am
    12    58    59    1
    13    44    45    2
    14    44    43    1
    15    60    59    1
    16    40    41    1
    17    40    37    1
    18    62    59    1
    19    62    63    1
    20    43    46    1
    21    43    42    1
    22    37    36    1
    23    65    63   ar
    24    65    67   ar
    25    55    54    1
    26    55    56    2
    27    63    64   ar
    28    67    68   ar
    29    70    71    1
    30    33    32    2
    31    71    72    1
    32    36    32   am
    33    32    31    1
    34    64    66   ar
    35    68    66   ar
    36    68    69    1
    37    72    73    2
    38    72    74   am
    39    29    28    2
    40    74    75    1
    41    79    78    1
    42    31    30    1
    43    31    34    1
    44    28    30   am
    45    28    27    1
    46    35    34    1
    47   110   109    1
    48    78    75    1
    49    75    76    1
    50    27    26    1
    51   119   118    1
    52   109   108   ar
    53   109   107   ar
    54   108   106   ar
    55    77    76    2
    56    76    80   am
    57   118   117    1
    58   107   105   ar
    59   106   104   ar
    60    26    20   am
    61   117   116    1
    62    96    94   ar
    63    96    98   ar
    64    21    20    2
    65    80    81    1
    66    94    93   ar
    67   105   104   ar
    68   104   103    1
    69    20    19    1
    70    98    97   ar
    71   116   115    1
    72   100   103    1
    73   100    99    1
    74   100   101    1
    75    81    82    1
    76    81    84    1
    77    89    90    1
    78    89    88    1
    79    89    92    1
    80   115   112    1
    81    93    92    1
    82    93    95   ar
    83    25    23   ar
    84   101   102    2
    85    90    91    2
    86    82    83    2
    87    19    18    1
    88    19    22    1
    89    97    95   ar
    90    23    24   ar
    91    23    22    1
    92    84    85    1
    93   112   111    1
    94   112   113    1
    95   127   125    1
    96    85    86    1
    97   113   114    2
    98   113   120   am
    99   125   126    1
   100   125   124    1
   101   120   121    1
   102   136   134   ar
   103    17    15   ar
   104    16    15   ar
   105    86    87    1
   106   121   124    1
   107   121   122    1
   108   135   134   ar
   109    15    14    1
   110   134   133    1
   111     9     7   ar
   112     8     7   ar
   113     7     6    1
   114     6     5    1
   115   122   123    2
   116    14    11    1
   117    13    12    2
   118   133   132    1
   119    12    11    1
   120     4     3    2
   121     3     2    1
   122    11    10    1
   123   132   129    1
   124     5     2    1
   125     2     1    1
   126   129   130    1
   127   129   128    1
   128   130   131    2
