@<TRIPOS>MOLECULE
tmp/5ofvA00.pdb
 100 97 0 0 0
SMALL
GASTEIGER

@<TRIPOS>ATOM
      1  N        -25.0870    7.2730    2.7510 N.3    52  LEU52      -0.1231
      2  CA       -25.1800    8.4760    3.5450 C.3    52  LEU52       0.1693
      3  C        -25.8620    9.5560    2.7890 C.2    52  LEU52       0.2592
      4  O        -25.3060   10.0620    1.8400 O.2    52  LEU52      -0.2718
      5  CB       -23.8190    8.8860    4.0080 C.3    52  LEU52       0.0284
      6  CG       -23.0560    7.8530    4.7180 C.3    52  LEU52       0.0019
      7  CD1      -21.7030    8.3300    5.1020 C.3    52  LEU52       0.0001
      8  CD2      -23.7250    7.1590    5.8710 C.3    52  LEU52       0.0001
      9  N        -27.1000    9.8900    3.1400 N.am   53  GLY53      -0.1957
     10  CA       -27.9310   10.7480    2.2780 C.3    53  GLY53       0.1869
     11  C        -28.9850    9.8790    1.5810 C.2    53  GLY53       0.2309
     12  O        -28.6350    9.0740    0.6590 O.2    53  GLY53      -0.2863
     13  N        -28.1950    6.7130    6.6420 N.3    75  TYR75      -0.1227
     14  CA       -28.4010    7.8290    7.6140 C.3    75  TYR75       0.1736
     15  C        -28.7520    9.0540    6.8040 C.2    75  TYR75       0.2595
     16  O        -28.0410    9.3410    5.8240 O.2    75  TYR75      -0.2718
     17  CB       -27.0840    8.0920    8.4280 C.3    75  TYR75       0.0548
     18  CG       -27.1910    9.3460    9.3360 C.ar   75  TYR75      -0.0200
     19  CD1      -26.8180   10.6010    8.8410 C.ar   75  TYR75      -0.0009
     20  CD2      -27.8540    9.3030   10.5640 C.ar   75  TYR75      -0.0009
     21  CE1      -26.9810   11.7880    9.5730 C.ar   75  TYR75       0.0417
     22  CE2      -27.9980   10.4720   11.3300 C.ar   75  TYR75       0.0417
     23  CZ       -27.5480   11.7120   10.8190 C.ar   75  TYR75       0.1957
     24  OH       -27.7260   12.8430   11.5120 O.3    75  TYR75      -0.2866
     25  N        -29.8130    9.7520    7.2110 N.am   76  ASP76      -0.1960
     26  CA       -30.2210   11.0100    6.6780 C.3    76  ASP76       0.1825
     27  C        -30.8980   11.7700    7.8030 C.2    76  ASP76       0.2464
     28  O        -31.8460   11.3030    8.3520 O.2    76  ASP76      -0.2730
     29  CB       -31.2290   10.9140    5.5140 C.3    76  ASP76       0.1450
     30  CG       -31.3550   12.1940    4.7550 C.2    76  ASP76       0.3671
     31  OD1      -31.8430   13.1290    5.3790 O.co2  76  ASP76      -0.2456
     32  OD2      -30.9620   12.3320    3.5750 O.co2  76  ASP76      -0.2456
     33  N        -30.4290   12.9640    8.0730 N.am   77  PRO77      -0.2727
     34  CA       -30.8510   13.7050    9.2840 C.3    77  PRO77       0.1402
     35  C        -32.3380   14.1100    9.2130 C.2    77  PRO77       0.2269
     36  O        -32.9730   14.3870   10.2010 O.2    77  PRO77      -0.2865
     37  CB       -29.9460   14.9150    9.1950 C.3    77  PRO77       0.0296
     38  CG       -29.9210   15.2370    7.7810 C.3    77  PRO77       0.0237
     39  CD       -29.5320   13.8190    7.2530 C.3    77  PRO77       0.0939
     40  N        -24.7220    7.4410   12.6490 N.3    94  LEU94      -0.1245
     41  CA       -23.4760    7.2950   11.9660 C.3    94  LEU94       0.1561
     42  C        -22.4620    6.4400   12.6330 C.2    94  LEU94       0.2260
     43  O        -21.7310    5.6620   12.0450 O.2    94  LEU94      -0.2867
     44  CB       -22.8080    8.6060   11.6820 C.3    94  LEU94       0.0270
     45  CG       -23.3420    9.5580   10.6580 C.3    94  LEU94       0.0019
     46  CD1      -22.4360   10.7940   10.6730 C.3    94  LEU94       0.0001
     47  CD2      -23.3680    8.8710    9.2860 C.3    94  LEU94       0.0001
     48  N        -24.3470   10.5670   -0.6670 N.3   107  HIS107     -0.1226
     49  CA       -25.3100   11.2650   -1.5500 C.3   107  HIS107      0.1752
     50  C        -25.9290   12.4870   -0.7920 C.2   107  HIS107      0.2597
     51  O        -27.1090   12.6040   -0.5800 O.2   107  HIS107     -0.2718
     52  CB       -26.3480   10.2730   -1.9180 C.3   107  HIS107      0.0759
     53  CG       -25.7980    9.1220   -2.7020 C.ar  107  HIS107      0.0818
     54  ND1      -25.4050    9.2920   -4.0140 N.ar  107  HIS107     -0.2268
     55  CD2      -25.3620    7.8980   -2.3080 C.ar  107  HIS107      0.1154
     56  CE1      -24.8010    8.1840   -4.4090 C.ar  107  HIS107      0.1986
     57  NE2      -24.7900    7.3100   -3.4260 N.ar  107  HIS107     -0.2212
     58  N        -25.0280   13.3630   -0.3980 N.am  108  THR108     -0.1939
     59  CA       -25.3070   14.5500    0.4960 C.3   108  THR108      0.2016
     60  C        -25.0170   15.8100   -0.2150 C.2   108  THR108      0.2521
     61  O        -24.1830   15.8370   -1.2030 O.2   108  THR108     -0.2726
     62  CB       -24.5050   14.5320    1.8620 C.3   108  THR108      0.1807
     63  OG1      -23.1460   14.7510    1.6290 O.3   108  THR108     -0.2208
     64  CG2      -24.6220   13.1690    2.4870 C.3   108  THR108      0.0379
     65  N        -25.5460   16.9490    0.3560 N.am  109  PRO109     -0.2503
     66  CA       -25.0200   18.2160   -0.0870 C.3   109  PRO109      0.1487
     67  C        -23.6220   18.4340    0.4840 C.2   109  PRO109      0.2276
     68  O        -23.2320   17.6430    1.3270 O.2   109  PRO109     -0.2865
     69  CB       -26.0450   19.2320    0.3700 C.3   109  PRO109      0.0556
     70  CG       -27.1940   18.5020    0.9950 C.2   109  PRO109     -0.0078
     71  CD       -26.7890   17.0560    1.1320 C.2   109  PRO109      0.0634
     72  N        -21.9060   20.7400    2.8720 N.3   111  LEU111     -0.1245
     73  CA       -22.2300   21.7000    3.9280 C.3   111  LEU111      0.1561
     74  C        -21.0840   21.5630    4.8870 C.2   111  LEU111      0.2260
     75  O        -20.3190   20.5780    4.8380 O.2   111  LEU111     -0.2867
     76  CB       -23.4400   21.2710    4.6290 C.3   111  LEU111      0.0270
     77  CG       -24.7110   21.3460    3.7920 C.3   111  LEU111      0.0019
     78  CD1      -25.6300   20.3680    4.4850 C.3   111  LEU111      0.0001
     79  CD2      -25.2170   22.7940    3.8090 C.3   111  LEU111      0.0001
     80  N        -21.2370   20.4500    7.8910 N.3   113  SER113     -0.1202
     81  CA       -21.4620   19.1330    8.4850 C.3   113  SER113      0.2020
     82  C        -21.0770   17.8620    7.6540 C.2   113  SER113      0.2619
     83  O        -20.7760   16.7440    8.1780 O.2   113  SER113     -0.2717
     84  CB       -22.8990   19.1280    8.9460 C.3   113  SER113      0.2103
     85  OG       -23.7360   19.0420    7.7630 O.3   113  SER113     -0.2182
     86  N        -21.0170   18.0640    6.3250 N.am  114  THR114     -0.1952
     87  CA       -20.6050   16.9580    5.4280 C.3   114  THR114      0.1897
     88  C        -19.2610   17.0760    4.7390 C.2   114  THR114      0.2313
     89  O        -18.8650   16.1780    3.9910 O.2   114  THR114     -0.2863
     90  CB       -21.6410   16.8080    4.3060 C.3   114  THR114      0.1794
     91  OG1      -21.6270   17.9760    3.4870 O.3   114  THR114     -0.2208
     92  CG2      -22.9600   16.5390    4.8600 C.3   114  THR114      0.0378
     93  N        -16.9910   14.3730    5.9070 N.3   117  LEU117     -0.1245
     94  CA       -17.7980   13.3860    6.4980 C.3   117  LEU117      0.1561
     95  C        -17.0290   12.1050    6.6620 C.2   117  LEU117      0.2260
     96  O        -17.1530   11.4410    7.6980 O.2   117  LEU117     -0.2867
     97  CB       -19.0480   13.1440    5.6160 C.3   117  LEU117      0.0270
     98  CG       -20.1000   12.1570    6.0850 C.3   117  LEU117      0.0019
     99  CD1      -20.5440   12.4800    7.4930 C.3   117  LEU117      0.0001
    100  CD2      -21.3630   12.1560    5.1760 C.3   117  LEU117      0.0001
@<TRIPOS>BOND
     1    56    54   ar
     2    56    57   ar
     3    54    53   ar
     4    57    55   ar
     5    53    55   ar
     6    53    52    1
     7    52    49    1
     8    49    50    1
     9    49    48    1
    10    61    60    2
    11    50    51    2
    12    50    58   am
    13    58    59    1
    14    60    65   am
    15    60    59    1
    16    66    65    1
    17    66    69    1
    18    66    67    1
    19    65    71    1
    20    69    70    1
    21    67    68    2
    22    59    62    1
    23    12    11    2
    24    70    71    2
    25    11    10    1
    26    63    62    1
    27     4     3    2
    28    62    64    1
    29    10     9    1
    30     1     2    1
    31     3     9   am
    32     3     2    1
    33    72    73    1
    34    91    90    1
    35     2     5    1
    36    32    30   ar
    37    77    79    1
    38    77    78    1
    39    77    76    1
    40    73    76    1
    41    73    74    1
    42    89    88    2
    43     5     6    1
    44    90    92    1
    45    90    87    1
    46     6     7    1
    47     6     8    1
    48    88    87    1
    49    30    31   ar
    50    30    29    1
    51    75    74    2
    52   100    98    1
    53    87    86    1
    54    29    26    1
    55    97    98    1
    56    97    94    1
    57    16    15    2
    58    93    94    1
    59    98    99    1
    60    86    82   am
    61    94    95    1
    62    13    14    1
    63    95    96    2
    64    26    25    1
    65    26    27    1
    66    15    25   am
    67    15    14    1
    68    39    38    1
    69    39    33    1
    70    14    17    1
    71    82    83    2
    72    82    81    1
    73    85    84    1
    74    38    37    1
    75    27    33   am
    76    27    28    2
    77    80    81    1
    78    33    34    1
    79    17    18    1
    80    81    84    1
    81    19    18   ar
    82    19    21   ar
    83    37    34    1
    84    35    34    1
    85    35    36    2
    86    47    45    1
    87    18    20   ar
    88    21    23   ar
    89    20    22   ar
    90    45    46    1
    91    45    44    1
    92    23    22   ar
    93    23    24    1
    94    44    41    1
    95    41    42    1
    96    41    40    1
    97    43    42    2
