@<TRIPOS>MOLECULE
tmp/5ofwB00.pdb
 82 77 0 0 0
SMALL
GASTEIGER

@<TRIPOS>ATOM
      1  N        -29.1570  -13.8110  -24.2840 N.3    52  LEU52      -0.1231
      2  CA       -29.1560  -15.0610  -25.0920 C.3    52  LEU52       0.1693
      3  C        -28.6300  -16.1710  -24.2190 C.2    52  LEU52       0.2592
      4  O        -27.4030  -16.2210  -23.9570 O.2    52  LEU52      -0.2718
      5  CB       -28.3840  -14.7970  -26.3610 C.3    52  LEU52       0.0284
      6  CG       -28.7800  -13.6240  -27.2520 C.3    52  LEU52       0.0019
      7  CD1      -27.9910  -13.5330  -28.5140 C.3    52  LEU52       0.0001
      8  CD2      -30.2350  -13.6160  -27.5340 C.3    52  LEU52       0.0001
      9  N        -29.5110  -17.0320  -23.7230 N.am   53  GLY53      -0.1957
     10  CA       -29.1040  -17.9980  -22.7150 C.3    53  GLY53       0.1869
     11  C        -29.7920  -17.6650  -21.4360 C.2    53  GLY53       0.2309
     12  O        -29.3820  -16.6500  -20.8020 O.2    53  GLY53      -0.2863
     13  N        -33.7710  -15.1950  -25.3940 N.3    75  TYR75      -0.1241
     14  CA       -33.9800  -16.4000  -26.1930 C.3    75  TYR75       0.1605
     15  C        -33.2360  -17.5020  -25.4840 C.2    75  TYR75       0.2264
     16  O        -32.0780  -17.3440  -25.0270 O.2    75  TYR75      -0.2867
     17  CB       -33.4540  -16.2190  -27.6450 C.3    75  TYR75       0.0534
     18  CG       -33.5480  -17.5330  -28.4740 C.ar   75  TYR75      -0.0201
     19  CD1      -32.5130  -18.4540  -28.4350 C.ar   75  TYR75      -0.0009
     20  CD2      -34.6670  -17.8570  -29.2010 C.ar   75  TYR75      -0.0009
     21  CE1      -32.5780  -19.6420  -29.1080 C.ar   75  TYR75       0.0417
     22  CE2      -34.7500  -19.0750  -29.9520 C.ar   75  TYR75       0.0417
     23  CZ       -33.7200  -19.9720  -29.8710 C.ar   75  TYR75       0.1957
     24  OH       -33.7400  -21.2010  -30.5270 O.3    75  TYR75      -0.2866
     25  N        -33.2210  -21.9550  -26.2740 N.3    77  PRO77      -0.2116
     26  CA       -33.9590  -22.9990  -26.9950 C.3    77  PRO77       0.1372
     27  C        -34.7020  -23.9490  -26.1330 C.2    77  PRO77       0.2244
     28  O        -35.5310  -24.6920  -26.6750 O.2    77  PRO77      -0.2868
     29  CB       -32.8700  -23.7310  -27.7480 C.3    77  PRO77       0.0268
     30  CG       -31.6720  -23.6330  -26.8560 C.3    77  PRO77       0.0207
     31  CD       -31.7950  -22.2790  -26.1580 C.3    77  PRO77       0.0892
     32  N        -34.8950  -15.5050  -32.1680 N.3    94  LEU94      -0.1245
     33  CA       -33.6840  -14.6840  -32.3920 C.3    94  LEU94       0.1561
     34  C        -33.8300  -13.5720  -33.3560 C.2    94  LEU94       0.2260
     35  O        -33.2890  -12.5210  -33.1550 O.2    94  LEU94      -0.2867
     36  CB       -32.4640  -15.4670  -32.8610 C.3    94  LEU94       0.0270
     37  CG       -31.6780  -16.3650  -31.9600 C.3    94  LEU94       0.0019
     38  CD1      -30.5620  -17.1110  -32.6880 C.3    94  LEU94       0.0001
     39  CD2      -31.1090  -15.5410  -30.7810 C.3    94  LEU94       0.0001
     40  N        -24.5290  -18.6970  -22.7870 N.3   108  THR108     -0.1204
     41  CA       -24.7230  -20.0100  -23.4810 C.3   108  THR108      0.1979
     42  C        -23.4520  -20.8040  -23.3110 C.2   108  THR108      0.2459
     43  O        -22.3400  -20.2500  -23.1700 O.2   108  THR108     -0.2732
     44  CB       -24.9960  -19.9260  -25.0600 C.3   108  THR108      0.1783
     45  OG1      -23.8580  -19.4130  -25.7530 O.3   108  THR108     -0.2211
     46  CG2      -26.1220  -19.0510  -25.4500 C.3   108  THR108      0.0376
     47  N        -23.5800  -22.1160  -23.5310 N.am  109  PRO109     -0.2728
     48  CA       -22.3570  -22.8280  -23.7850 C.3   109  PRO109      0.1401
     49  C        -21.8220  -22.5800  -25.1990 C.2   109  PRO109      0.2269
     50  O        -22.4900  -21.9610  -26.0260 O.2   109  PRO109     -0.2865
     51  CB       -22.7290  -24.2810  -23.5790 C.3   109  PRO109      0.0296
     52  CG       -24.2070  -24.3270  -23.6080 C.3   109  PRO109      0.0237
     53  CD       -24.7760  -22.9460  -23.5470 C.3   109  PRO109      0.0939
     54  N        -21.0310  -24.1700  -28.4920 N.3   111  LEU111     -0.1245
     55  CA       -21.4980  -25.3140  -29.2480 C.3   111  LEU111      0.1561
     56  C        -21.3810  -24.9040  -30.6580 C.2   111  LEU111      0.2260
     57  O        -21.3240  -23.7300  -30.9340 O.2   111  LEU111     -0.2867
     58  CB       -22.9530  -25.5760  -28.9550 C.3   111  LEU111      0.0270
     59  CG       -23.2430  -25.8510  -27.4920 C.3   111  LEU111      0.0019
     60  CD1      -24.7520  -25.8790  -27.2740 C.3   111  LEU111      0.0001
     61  CD2      -22.5510  -27.0960  -26.9710 C.3   111  LEU111      0.0001
     62  N        -23.9010  -24.5290  -32.6530 N.3   113  SER113     -0.1202
     63  CA       -24.9330  -23.5740  -32.8300 C.3   113  SER113      0.2020
     64  C        -24.7040  -22.1760  -32.2330 C.2   113  SER113      0.2619
     65  O        -25.3440  -21.2130  -32.6350 O.2   113  SER113     -0.2717
     66  CB       -26.2290  -24.1190  -32.2700 C.3   113  SER113      0.2103
     67  OG       -26.1400  -24.4060  -30.9130 O.3   113  SER113     -0.2182
     68  N        -23.7850  -22.1140  -31.2750 N.am  114  THR114     -0.1952
     69  CA       -23.5120  -20.8060  -30.6000 C.3   114  THR114      0.1897
     70  C        -22.1630  -20.2130  -30.9520 C.2   114  THR114      0.2313
     71  O        -21.8740  -19.0970  -30.5350 O.2   114  THR114     -0.2863
     72  CB       -23.5790  -20.9690  -29.0850 C.3   114  THR114      0.1794
     73  OG1      -22.5950  -21.8630  -28.6530 O.3   114  THR114     -0.2208
     74  CG2      -24.9410  -21.3570  -28.6780 C.3   114  THR114      0.0378
     75  N        -22.5000  -17.0400  -32.9130 N.3   117  LEU117     -0.1245
     76  CA       -23.8910  -16.6540  -32.7150 C.3   117  LEU117      0.1561
     77  C        -24.0930  -15.1750  -33.0910 C.2   117  LEU117      0.2260
     78  O        -25.0900  -14.8480  -33.7620 O.2   117  LEU117     -0.2867
     79  CB       -24.3250  -16.8840  -31.2510 C.3   117  LEU117      0.0270
     80  CG       -25.7600  -16.6290  -30.7970 C.3   117  LEU117      0.0019
     81  CD1      -26.7010  -17.5380  -31.5840 C.3   117  LEU117      0.0001
     82  CD2      -25.9670  -16.8690  -29.2820 C.3   117  LEU117      0.0001
@<TRIPOS>BOND
     1    78    77    2
     2    34    35    2
     3    34    33    1
     4    77    76    1
     5    75    76    1
     6    36    33    1
     7    36    37    1
     8    63    62    1
     9    63    66    1
    10    63    64    1
    11    76    79    1
    12    38    37    1
    13    65    64    2
    14    33    32    1
    15    66    67    1
    16    64    68   am
    17    37    39    1
    18    81    80    1
    19    68    69    1
    20    79    80    1
    21    70    69    1
    22    70    71    2
    23    57    56    2
    24    80    82    1
    25    56    55    1
    26    69    72    1
    27    24    23    1
    28    22    23   ar
    29    22    20   ar
    30    23    21   ar
    31    55    58    1
    32    55    54    1
    33    20    18   ar
    34    21    19   ar
    35    72    74    1
    36    72    73    1
    37    58    59    1
    38     7     6    1
    39    18    19   ar
    40    18    17    1
    41    29    26    1
    42    29    30    1
    43    17    14    1
    44     8     6    1
    45    59    60    1
    46    59    61    1
    47     6     5    1
    48    26    25    1
    49    26    27    1
    50    30    31    1
    51    28    27    2
    52     5     2    1
    53    25    31    1
    54    14    15    1
    55    14    13    1
    56    50    49    2
    57    45    44    1
    58    15    16    2
    59    46    44    1
    60    49    48    1
    61     2     1    1
    62     2     3    1
    63    44    41    1
    64     3     4    2
    65     3     9   am
    66    48    51    1
    67    48    47    1
    68     9    10    1
    69    52    51    1
    70    52    53    1
    71    53    47    1
    72    47    42   am
    73    41    42    1
    74    41    40    1
    75    42    43    2
    76    10    11    1
    77    11    12    2
