@<TRIPOS>MOLECULE
tmp/5ofxF00.pdb
 113 107 0 0 0
SMALL
GASTEIGER

@<TRIPOS>ATOM
      1  N        -28.9900  -98.2250  -65.1660 N.3    37  TYR37      -0.1227
      2  CA       -28.0500  -99.3340  -65.2250 C.3    37  TYR37       0.1736
      3  C        -27.7660  -99.9190  -63.8490 C.2    37  TYR37       0.2596
      4  O        -26.9690 -100.8570  -63.7400 O.2    37  TYR37      -0.2718
      5  CB       -26.7430  -98.8990  -65.9020 C.3    37  TYR37       0.0548
      6  CG       -25.9910  -97.8050  -65.2000 C.ar   37  TYR37      -0.0200
      7  CD1      -26.2590  -96.4720  -65.4620 C.ar   37  TYR37      -0.0009
      8  CD2      -24.9910  -98.1060  -64.2890 C.ar   37  TYR37      -0.0009
      9  CE1      -25.5620  -95.4650  -64.8170 C.ar   37  TYR37       0.0417
     10  CE2      -24.2910  -97.1100  -63.6410 C.ar   37  TYR37       0.0417
     11  CZ       -24.5790  -95.7900  -63.9110 C.ar   37  TYR37       0.1957
     12  OH       -23.8880  -94.7870  -63.2710 O.3    37  TYR37      -0.2866
     13  N        -28.4200  -99.4020  -62.8100 N.am   38  GLY38      -0.1942
     14  CA       -28.3760  -99.9580  -61.4720 C.3    38  GLY38       0.2014
     15  C        -29.5780  -99.4600  -60.6980 C.2    38  GLY38       0.2639
     16  O        -30.3620  -98.6440  -61.1870 O.2    38  GLY38      -0.2714
     17  N        -29.7250  -99.9660  -59.4720 N.am   39  ARG39      -0.1963
     18  CA       -30.8830  -99.6130  -58.6580 C.3    39  ARG39       0.1729
     19  C        -30.7300  -98.2790  -57.9370 C.2    39  ARG39       0.2616
     20  O        -31.7400  -97.7040  -57.5180 O.2    39  ARG39      -0.2715
     21  CB       -31.1490 -100.6950  -57.6150 C.3    39  ARG39       0.0348
     22  CG       -31.3790 -102.0900  -58.1660 C.3    39  ARG39       0.0492
     23  CD       -32.5090 -102.1160  -59.1800 C.3    39  ARG39       0.2205
     24  NE       -33.0350 -103.4670  -59.3660 N.pl3  39  ARG39      -0.0865
     25  CZ       -33.7980 -103.8450  -60.3890 C.cat  39  ARG39       0.5346
     26  NH1      -34.1250 -102.9820  -61.3430 N.pl3  39  ARG39       0.1354
     27  NH2      -34.2320 -105.0960  -60.4620 N.pl3  39  ARG39       0.1354
     28  N        -29.5050  -97.7890  -57.7660 N.am   40  ASP40      -0.1971
     29  CA       -29.2730  -96.5790  -56.9890 C.3    40  ASP40       0.1709
     30  C        -29.8230  -95.3540  -57.7120 C.2    40  ASP40       0.2293
     31  O        -29.8990  -95.3060  -58.9450 O.2    40  ASP40      -0.2864
     32  CB       -27.7750  -96.4110  -56.7140 C.3    40  ASP40       0.1436
     33  CG       -27.4720  -95.2860  -55.7360 C.2    40  ASP40       0.3671
     34  OD1      -27.6520  -94.1000  -56.0950 O.co2  40  ASP40      -0.2456
     35  OD2      -27.0480  -95.5910  -54.6000 O.co2  40  ASP40      -0.2456
     36  N        -28.6230  -92.6590  -58.4340 N.3    42  VAL42      -0.1231
     37  CA       -27.7240  -91.9550  -59.3470 C.3    42  VAL42       0.1692
     38  C        -27.4000  -92.7480  -60.6090 C.2    42  VAL42       0.2591
     39  O        -26.7620  -92.2060  -61.5220 O.2    42  VAL42      -0.2718
     40  CB       -26.4230  -91.5690  -58.6110 C.3    42  VAL42       0.0266
     41  CG1      -25.4480  -92.7300  -58.5500 C.3    42  VAL42       0.0020
     42  CG2      -25.7930  -90.3470  -59.2530 C.3    42  VAL42       0.0020
     43  N        -27.8220  -94.0060  -60.7060 N.am   43  GLU43      -0.1979
     44  CA       -27.3570  -94.8670  -61.7970 C.3    43  GLU43       0.1602
     45  C        -28.2440  -94.7140  -63.0360 C.2    43  GLU43       0.2287
     46  O        -28.8360  -95.6650  -63.5430 O.2    43  GLU43      -0.2864
     47  CB       -27.2780  -96.3110  -61.3150 C.3    43  GLU43       0.0415
     48  CG       -26.2210  -96.4640  -60.2150 C.3    43  GLU43       0.1163
     49  CD       -26.1070  -97.8690  -59.6550 C.2    43  GLU43       0.3649
     50  OE1      -27.0600  -98.3530  -59.0130 O.co2  43  GLU43      -0.2457
     51  OE2      -25.0410  -98.4830  -59.8420 O.co2  43  GLU43      -0.2457
     52  N        -21.6770  -89.9540  -61.8080 N.3    54  ASN54      -0.1240
     53  CA       -21.3780  -91.3300  -61.4340 C.3    54  ASN54       0.1653
     54  C        -20.7620  -92.0660  -62.6230 C.2    54  ASN54       0.2266
     55  O        -21.3520  -93.0260  -63.1450 O.2    54  ASN54      -0.2867
     56  CB       -22.6440  -92.0350  -60.9520 C.3    54  ASN54       0.1155
     57  CG       -22.3430  -93.2710  -60.1340 C.2    54  ASN54       0.2627
     58  OD1      -21.6880  -93.1930  -59.0890 O.2    54  ASN54      -0.2716
     59  ND2      -22.8290  -94.4190  -60.5910 N.am   54  ASN54      -0.0877
     60  N        -18.7610  -94.4050  -65.2980 N.3    56  GLN56      -0.1231
     61  CA       -18.4600  -95.8280  -65.3750 C.3    56  GLN56       0.1683
     62  C        -17.3230  -96.0220  -66.3760 C.2    56  GLN56       0.2434
     63  O        -16.9490  -95.0670  -67.0720 O.2    56  GLN56      -0.2733
     64  CB       -19.7090  -96.6190  -65.7720 C.3    56  GLN56       0.0380
     65  CG       -20.8660  -96.4660  -64.8010 C.3    56  GLN56       0.0905
     66  CD       -20.5420  -96.9940  -63.4150 C.2    56  GLN56       0.2608
     67  OE1      -19.9190  -98.0490  -63.2620 O.2    56  GLN56      -0.2717
     68  NE2      -20.9440  -96.2450  -62.3920 N.am   56  GLN56      -0.0878
     69  N        -16.7280  -97.2120  -66.4650 N.am   57  PRO57      -0.2729
     70  CA       -15.5770  -97.3830  -67.3580 C.3    57  PRO57       0.1401
     71  C        -15.9190  -97.1110  -68.8150 C.2    57  PRO57       0.2269
     72  O        -17.0810  -97.0810  -69.2290 O.2    57  PRO57      -0.2865
     73  CB       -15.1760  -98.8480  -67.1510 C.3    57  PRO57       0.0296
     74  CG       -15.6970  -99.1960  -65.8050 C.3    57  PRO57       0.0237
     75  CD       -16.9710  -98.4140  -65.6500 C.3    57  PRO57       0.0939
     76  N        -18.9250  -98.3900  -71.1640 N.3    60  ILE60      -0.1245
     77  CA       -19.9180  -99.0970  -70.3680 C.3    60  ILE60       0.1561
     78  C        -21.1660  -98.2410  -70.2120 C.2    60  ILE60       0.2260
     79  O        -21.0960  -97.0230  -69.9980 O.2    60  ILE60      -0.2867
     80  CB       -19.3280  -99.4960  -69.0030 C.3    60  ILE60       0.0252
     81  CG1      -18.2010 -100.5220  -69.1820 C.3    60  ILE60       0.0019
     82  CG2      -20.4080 -100.0540  -68.0730 C.3    60  ILE60       0.0019
     83  CD1      -18.5830 -101.7910  -69.9460 C.3    60  ILE60       0.0001
     84  N        -23.9210 -102.5690  -71.1980 N.3    95  ASP95      -0.1225
     85  CA       -23.6040 -102.7630  -69.7920 C.3    95  ASP95       0.1805
     86  C        -22.6110 -103.9140  -69.6510 C.2    95  ASP95       0.2597
     87  O        -22.3820 -104.6820  -70.5860 O.2    95  ASP95      -0.2718
     88  CB       -24.8750 -103.0400  -68.9880 C.3    95  ASP95       0.1424
     89  CG       -24.7560 -102.6300  -67.5320 C.2    95  ASP95       0.3668
     90  OD1      -23.6530 -102.2310  -67.1030 O.co2  95  ASP95      -0.2456
     91  OD2      -25.7790 -102.7060  -66.8140 O.co2  95  ASP95      -0.2456
     92  N        -21.9930 -104.0090  -68.4780 N.am   96  VAL96      -0.1980
     93  CA       -21.0400 -105.1010  -68.2530 C.3    96  VAL96       0.1595
     94  C        -21.7860 -106.4310  -68.3090 C.2    96  VAL96       0.2287
     95  O        -22.8590 -106.5630  -67.6910 O.2    96  VAL96      -0.2864
     96  CB       -20.3250 -104.9170  -66.8990 C.3    96  VAL96       0.0276
     97  CG1      -19.3830 -106.0890  -66.6060 C.3    96  VAL96       0.0022
     98  CG2      -19.5620 -103.5930  -66.8870 C.3    96  VAL96       0.0022
     99  N        -24.5360 -108.0260  -65.6490 N.3    99  THR99      -0.1218
    100  CA       -25.0740 -106.9720  -64.7930 C.3    99  THR99       0.1862
    101  C        -26.3130 -106.3120  -65.3890 C.2    99  THR99       0.2287
    102  O        -26.6300 -105.1700  -65.0370 O.2    99  THR99      -0.2866
    103  CB       -24.0150 -105.9030  -64.5090 C.3    99  THR99       0.1770
    104  OG1      -23.8130 -105.0940  -65.6730 O.3    99  THR99      -0.2211
    105  CG2      -22.6860 -106.5440  -64.0970 C.3    99  THR99       0.0375
    106  N        -30.1960 -105.5560  -63.0270 N.3   102  ASP102     -0.1239
    107  CA       -30.6220 -104.3800  -62.2830 C.3   102  ASP102      0.1674
    108  C        -30.8770 -103.1820  -63.1940 C.2   102  ASP102      0.2266
    109  O        -30.9220 -102.0450  -62.7160 O.2   102  ASP102     -0.2867
    110  CB       -29.5940 -104.0270  -61.2040 C.3   102  ASP102      0.1410
    111  CG       -28.2210 -103.7220  -61.7680 C.2   102  ASP102      0.3668
    112  OD1      -28.0650 -103.7360  -63.0000 O.co2 102  ASP102     -0.2456
    113  OD2      -27.2940 -103.4660  -60.9680 O.co2 102  ASP102     -0.2456
@<TRIPOS>BOND
     1    84    85    1
     2    76    77    1
     3    87    86    2
     4    77    78    1
     5    77    80    1
     6    78    79    2
     7    83    81    1
     8    85    86    1
     9    85    88    1
    10    86    92   am
    11    72    71    2
    12    81    80    1
    13    80    82    1
    14    88    89    1
    15    71    70    1
    16    92    93    1
    17    94    93    1
    18    94    95    2
    19    93    96    1
    20    89    90   ar
    21    89    91   ar
    22    70    73    1
    23    70    69    1
    24    73    74    1
    25    63    62    2
    26    96    98    1
    27    96    97    1
    28    69    62   am
    29    69    75    1
    30    62    61    1
    31     5     2    1
    32     5     6    1
    33    74    75    1
    34    64    61    1
    35    64    65    1
    36   104   103    1
    37    99   100    1
    38     7     6   ar
    39     7     9   ar
    40   101   102    2
    41   101   100    1
    42    61    60    1
    43     2     1    1
    44     2     3    1
    45     6     8   ar
    46     9    11   ar
    47    65    66    1
    48   100   103    1
    49   103   105    1
    50     8    10   ar
    51    11    10   ar
    52    11    12    1
    53     3     4    2
    54     3    13   am
    55    46    45    2
    56    66    67    2
    57    66    68   am
    58   108   109    2
    59   108   107    1
    60    55    54    2
    61    45    44    1
    62   106   107    1
    63   112   111   ar
    64    13    14    1
    65    54    53    1
    66   107   110    1
    67    52    53    1
    68    44    47    1
    69    44    43    1
    70   111   110    1
    71   111   113   ar
    72    39    38    2
    73    14    15    1
    74    53    56    1
    75    26    25    1
    76    47    48    1
    77    16    15    2
    78    56    57    1
    79    43    38   am
    80    15    17   am
    81    38    37    1
    82    59    57   am
    83    27    25    1
    84    25    24    2
    85    48    49    1
    86    57    58    2
    87    51    49   ar
    88    49    50   ar
    89    17    18    1
    90    24    23    1
    91    37    40    1
    92    37    36    1
    93    42    40    1
    94    23    22    1
    95    31    30    2
    96    18    19    1
    97    18    21    1
    98    40    41    1
    99    22    21    1
   100    19    28   am
   101    19    20    2
   102    28    29    1
   103    30    29    1
   104    29    32    1
   105    32    33    1
   106    34    33   ar
   107    33    35   ar
