@<TRIPOS>MOLECULE
tmp/5og1A00.pdb
 167 159 0 0 0
SMALL
GASTEIGER

@<TRIPOS>ATOM
      1  N        150.8310  207.8380  197.2190 N.3    18  ASP18      -0.1225
      2  CA       151.2930  208.2030  198.5470 C.3    18  ASP18       0.1790
      3  C        152.2390  209.3910  198.4610 C.2    18  ASP18       0.2440
      4  O        153.2280  209.3430  197.7180 O.2    18  ASP18      -0.2733
      5  CB       152.0020  207.0250  199.2220 C.3    18  ASP18       0.1423
      6  CG       151.0420  205.9130  199.6270 C.2    18  ASP18       0.3668
      7  OD1      149.8770  206.2200  199.9560 O.co2  18  ASP18      -0.2456
      8  OD2      151.4480  204.7290  199.6140 O.co2  18  ASP18      -0.2456
      9  N        151.9030  210.4590  199.1810 N.am   19  PRO19      -0.2718
     10  CA       152.6380  211.7130  199.0220 C.3    19  PRO19       0.1535
     11  C        154.0470  211.5880  199.5600 C.2    19  PRO19       0.2598
     12  O        154.2930  210.9350  200.5730 O.2    19  PRO19      -0.2715
     13  CB       151.8110  212.7160  199.8300 C.3    19  PRO19       0.0310
     14  CG       151.1240  211.8870  200.8490 C.3    19  PRO19       0.0237
     15  CD       150.8380  210.5690  200.1930 C.3    19  PRO19       0.0939
     16  N        154.9750  212.2040  198.8490 N.am   20  VAL20      -0.1964
     17  CA       156.3890  212.1130  199.1620 C.3    20  VAL20       0.1727
     18  C        156.8370  213.4720  199.6660 C.2    20  VAL20       0.2616
     19  O        156.7970  214.4620  198.9250 O.2    20  VAL20      -0.2715
     20  CB       157.2040  211.6780  197.9360 C.3    20  VAL20       0.0290
     21  CG1      158.6760  211.5910  198.2880 C.3    20  VAL20       0.0023
     22  CG2      156.6740  210.3610  197.3880 C.3    20  VAL20       0.0023
     23  N        157.2460  213.5170  200.9280 N.am   21  ILE21      -0.1977
     24  CA       157.7130  214.7290  201.5880 C.3    21  ILE21       0.1596
     25  C        159.2390  214.6960  201.5720 C.2    21  ILE21       0.2287
     26  O        159.8550  213.8120  202.1810 O.2    21  ILE21      -0.2864
     27  CB       157.1600  214.8400  203.0180 C.3    21  ILE21       0.0276
     28  CG1      155.6510  215.1150  203.0150 C.3    21  ILE21       0.0022
     29  CG2      157.8920  215.8910  203.8010 C.3    21  ILE21       0.0022
     30  CD1      155.0190  215.0740  204.4030 C.3    21  ILE21       0.0001
     31  N        166.7690  199.1020  193.8710 N.3    48  PRO48      -0.2102
     32  CA       165.3210  198.9520  194.0400 C.3    48  PRO48       0.1504
     33  C        164.9240  199.3480  195.4530 C.2    48  PRO48       0.2576
     34  O        165.4870  198.8720  196.4390 O.2    48  PRO48      -0.2718
     35  CB       165.0820  197.4600  193.7810 C.3    48  PRO48       0.0282
     36  CG       166.2310  197.0470  192.9320 C.3    48  PRO48       0.0208
     37  CD       167.4000  197.8620  193.3880 C.3    48  PRO48       0.0893
     38  N        163.9960  200.2980  195.5420 N.am   49  GLY49      -0.1957
     39  CA       163.6930  200.9590  196.7860 C.3    49  GLY49       0.1869
     40  C        164.2830  202.3520  196.9020 C.2    49  GLY49       0.2309
     41  O        164.1530  202.9860  197.9540 O.2    49  GLY49      -0.2863
     42  N        163.0640  204.1080  194.5800 N.3    51  GLY51      -0.1210
     43  CA       161.7440  204.5710  194.2400 C.3    51  GLY51       0.1956
     44  C        161.5880  205.0860  192.8380 C.2    51  GLY51       0.2612
     45  O        160.9910  206.1420  192.6580 O.2    51  GLY51      -0.2717
     46  N        162.0540  204.3420  191.8430 N.am   52  LYS52      -0.1965
     47  CA       162.2180  204.8540  190.4880 C.3    52  LYS52       0.1728
     48  C        160.8660  205.1040  189.8220 C.2    52  LYS52       0.2617
     49  O        160.6040  206.1920  189.2770 O.2    52  LYS52      -0.2715
     50  CB       163.0570  203.8280  189.7420 C.3    52  LYS52       0.0311
     51  CG       164.3950  203.6390  190.4480 C.3    52  LYS52       0.0038
     52  CD       165.0950  202.3590  190.0460 C.3    52  LYS52       0.0206
     53  CE       164.9660  201.3190  191.1350 C.3    52  LYS52       0.1093
     54  NZ       163.5640  200.8330  191.2870 N.3    52  LYS52      -0.1314
     55  N        159.9840  204.1020  189.8900 N.am   53  THR53      -0.1937
     56  CA       158.5740  204.2960  189.5700 C.3    53  THR53       0.2028
     57  C        157.9510  205.3790  190.4410 C.2    53  THR53       0.2642
     58  O        157.1900  206.2210  189.9520 O.2    53  THR53      -0.2714
     59  CB       157.8370  202.9720  189.7520 C.3    53  THR53       0.1808
     60  OG1      158.3360  202.0150  188.8100 O.3    53  THR53      -0.2208
     61  CG2      156.3470  203.1250  189.5930 C.3    53  THR53       0.0379
     62  N        158.3160  205.4130  191.7230 N.am   54  ALA54      -0.1977
     63  CA       157.7560  206.4170  192.6210 C.3    54  ALA54       0.1597
     64  C        158.3480  207.8040  192.3710 C.2    54  ALA54       0.2287
     65  O        157.7870  208.8030  192.8270 O.2    54  ALA54      -0.2864
     66  CB       157.9780  206.0010  194.0730 C.3    54  ALA54       0.0319
     67  N        156.1970  208.8300  189.2350 N.3    57  GLU57      -0.1245
     68  CA       154.8460  209.1210  189.6960 C.3    57  GLU57       0.1567
     69  C        154.8310  210.2650  190.7060 C.2    57  GLU57       0.2260
     70  O        153.8340  210.9880  190.8120 O.2    57  GLU57      -0.2867
     71  CB       154.2560  207.8420  190.2670 C.3    57  GLU57       0.0388
     72  CG       154.0810  206.8060  189.1890 C.3    57  GLU57       0.1160
     73  CD       153.7700  205.4590  189.7380 C.2    57  GLU57       0.3649
     74  OE1      153.9050  205.2860  190.9640 O.co2  57  GLU57      -0.2457
     75  OE2      153.3970  204.5680  188.9470 O.co2  57  GLU57      -0.2457
     76  N        156.8550  202.2220  182.4130 N.3   118  ASP118     -0.1225
     77  CA       157.0620  201.6790  183.7440 C.3   118  ASP118      0.1805
     78  C        157.7970  200.3540  183.6710 C.2   118  ASP118      0.2597
     79  O        157.3970  199.4510  182.9290 O.2   118  ASP118     -0.2718
     80  CB       155.7340  201.5000  184.4750 C.3   118  ASP118      0.1424
     81  CG       155.9200  200.9580  185.8690 C.2   118  ASP118      0.3668
     82  OD1      156.5060  201.6770  186.6950 O.co2 118  ASP118     -0.2456
     83  OD2      155.4720  199.8300  186.1470 O.co2 118  ASP118     -0.2456
     84  N        158.8640  200.2470  184.4720 N.am  119  ALA119     -0.1979
     85  CA       159.8190  199.1360  184.4360 C.3   119  ALA119      0.1597
     86  C        160.3890  198.9770  183.0220 C.2   119  ALA119      0.2287
     87  O        160.0900  198.0250  182.3000 O.2   119  ALA119     -0.2864
     88  CB       159.1510  197.8240  184.8330 C.3   119  ALA119      0.0319
     89  N        162.2720  204.3320  183.9680 N.3   142  ALA142     -0.1231
     90  CA       162.3340  204.0740  185.4000 C.3   142  ALA142      0.1694
     91  C        162.3950  202.5740  185.6160 C.2   142  ALA142      0.2593
     92  O        161.3580  201.9050  185.6130 O.2   142  ALA142     -0.2718
     93  CB       161.1360  204.6640  186.1470 C.3   142  ALA142      0.0304
     94  N        163.6060  202.0570  185.7950 N.am  143  THR143     -0.1939
     95  CA       163.8000  200.6430  186.0790 C.3   143  THR143      0.2028
     96  C        165.1060  200.4930  186.8430 C.2   143  THR143      0.2642
     97  O        165.8980  201.4340  186.9480 O.2   143  THR143     -0.2714
     98  CB       163.8080  199.8040  184.8000 C.3   143  THR143      0.1808
     99  OG1      163.7100  198.4170  185.1410 O.3   143  THR143     -0.2208
    100  CG2      165.0810  200.0420  184.0140 C.3   143  THR143      0.0379
    101  N        165.3320  199.2830  187.3540 N.am  144  THR144     -0.1950
    102  CA       166.4370  198.9880  188.2560 C.3   144  THR144      0.1897
    103  C        167.7860  199.0260  187.5280 C.2   144  THR144      0.2313
    104  O        167.8800  199.3330  186.3360 O.2   144  THR144     -0.2863
    105  CB       166.2350  197.6220  188.9240 C.3   144  THR144      0.1794
    106  OG1      166.3680  196.5800  187.9560 O.3   144  THR144     -0.2208
    107  CG2      164.8480  197.5290  189.5290 C.3   144  THR144      0.0378
    108  N        168.2100  196.0450  185.1380 N.3   147  GLU147     -0.1245
    109  CA       167.1840  196.0820  184.1040 C.3   147  GLU147      0.1567
    110  C        167.3240  197.3200  183.2240 C.2   147  GLU147      0.2260
    111  O        166.7460  197.3700  182.1320 O.2   147  GLU147     -0.2867
    112  CB       165.8080  195.9930  184.7650 C.3   147  GLU147      0.0388
    113  CG       165.5710  194.6380  185.4450 C.3   147  GLU147      0.1160
    114  CD       164.3800  194.6220  186.3910 C.2   147  GLU147      0.3649
    115  OE1      163.8080  195.6970  186.6590 O.co2 147  GLU147     -0.2457
    116  OE2      164.0280  193.5310  186.8870 O.co2 147  GLU147     -0.2457
    117  N        160.9280  211.1370  206.6490 N.3   178  ILE178     -0.1245
    118  CA       160.0590  210.3050  205.8180 C.3   178  ILE178      0.1561
    119  C        159.0320  209.5910  206.6770 C.2   178  ILE178      0.2260
    120  O        157.8360  209.5600  206.3540 O.2   178  ILE178     -0.2867
    121  CB       160.8870  209.3150  204.9800 C.3   178  ILE178      0.0252
    122  CG1      161.5930  210.0620  203.8570 C.3   178  ILE178      0.0019
    123  CG2      160.0170  208.2150  204.4140 C.3   178  ILE178      0.0019
    124  CD1      160.6300  210.6890  202.8900 C.3   178  ILE178      0.0001
    125  N        155.0170  210.2350  206.7300 N.3   182  LEU182     -0.1245
    126  CA       154.1050  209.2320  206.1940 C.3   182  LEU182      0.1561
    127  C        153.2420  208.5690  207.2650 C.2   182  LEU182      0.2260
    128  O        152.3360  207.7850  206.9190 O.2   182  LEU182     -0.2867
    129  CB       154.9010  208.1620  205.4480 C.3   182  LEU182      0.0270
    130  CG       155.5680  208.6270  204.1610 C.3   182  LEU182      0.0019
    131  CD1      156.4340  207.5260  203.5780 C.3   182  LEU182      0.0001
    132  CD2      154.4880  209.0340  203.2000 C.3   182  LEU182      0.0001
    133  N        149.7130  206.2020  207.0900 N.3   186  TYR186     -0.1241
    134  CA       149.5820  204.8130  207.5120 C.3   186  TYR186      0.1605
    135  C        148.8700  204.6940  208.8650 C.2   186  TYR186      0.2264
    136  O        148.7300  203.5880  209.3990 O.2   186  TYR186     -0.2867
    137  CB       150.9580  204.1360  207.4820 C.3   186  TYR186      0.0534
    138  CG       151.4320  203.8160  206.0480 C.ar  186  TYR186     -0.0201
    139  CD1      150.5690  203.9260  204.9570 C.ar  186  TYR186     -0.0009
    140  CD2      152.7290  203.3930  205.7910 C.ar  186  TYR186     -0.0009
    141  CE1      150.9790  203.6450  203.6540 C.ar  186  TYR186      0.0417
    142  CE2      153.1520  203.1130  204.4850 C.ar  186  TYR186      0.0417
    143  CZ       152.2660  203.2380  203.4210 C.ar  186  TYR186      0.1957
    144  OH       152.6570  202.9730  202.1220 O.3   186  TYR186     -0.2866
    145  N        165.1350  205.4290  203.5230 N.3   216  PRO216     -0.2102
    146  CA       164.3050  205.1910  204.7070 C.3   216  PRO216      0.1504
    147  C        163.3740  204.0160  204.5180 C.2   216  PRO216      0.2575
    148  O        162.5300  203.7680  205.3680 O.2   216  PRO216     -0.2718
    149  CB       163.4650  206.4580  204.8060 C.3   216  PRO216      0.0282
    150  CG       163.3070  206.8680  203.3990 C.3   216  PRO216      0.0208
    151  CD       164.5830  206.5200  202.7010 C.3   216  PRO216      0.0893
    152  N        163.4960  203.3320  203.3840 N.am  217  ASP217     -0.1974
    153  CA       162.4030  202.4850  202.9290 C.3   217  ASP217      0.1708
    154  C        162.3770  201.1690  203.6950 C.2   217  ASP217      0.2293
    155  O        161.3090  200.5750  203.8950 O.2   217  ASP217     -0.2864
    156  CB       162.5330  202.2600  201.4260 C.3   217  ASP217      0.1436
    157  CG       161.2280  201.8770  200.7780 C.2   217  ASP217      0.3671
    158  OD1      160.2060  201.7640  201.4890 O.co2 217  ASP217     -0.2456
    159  OD2      161.2230  201.6860  199.5460 O.co2 217  ASP217     -0.2456
    160  N        160.3680  201.9000  206.3590 N.3   220  ILE220     -0.1245
    161  CA       158.9660  202.0240  205.9520 C.3   220  ILE220      0.1561
    162  C        158.2670  200.6650  205.9510 C.2   220  ILE220      0.2260
    163  O        157.1900  200.5100  206.5470 O.2   220  ILE220     -0.2867
    164  CB       158.8500  202.7100  204.5770 C.3   220  ILE220      0.0252
    165  CG1      159.3510  204.1500  204.6290 C.3   220  ILE220      0.0019
    166  CG2      157.4100  202.7110  204.1050 C.3   220  ILE220      0.0019
    167  CD1      159.4710  204.7760  203.2620 C.3   220  ILE220      0.0001
@<TRIPOS>BOND
     1   111   110    2
     2    87    86    2
     3    76    77    1
     4    79    78    2
     5    86    85    1
     6   110   109    1
     7    78    77    1
     8    78    84   am
     9    77    80    1
    10    89    90    1
    11   100    98    1
    12   109   112    1
    13   109   108    1
    14    85    84    1
    15    85    88    1
    16    80    81    1
    17   112   113    1
    18    98    99    1
    19    98    95    1
    20    90    91    1
    21    90    93    1
    22   113   114    1
    23    92    91    2
    24    91    94   am
    25    94    95    1
    26    81    83   ar
    27    81    82   ar
    28    95    96    1
    29   104   103    2
    30   114   115   ar
    31   114   116   ar
    32    96    97    2
    33    96   101   am
    34   101   102    1
    35   103   102    1
    36   106   105    1
    37   102   105    1
    38    60    59    1
    39   105   107    1
    40    75    73   ar
    41    72    73    1
    42    72    71    1
    43    67    68    1
    44    49    48    2
    45    56    59    1
    46    56    55    1
    47    56    57    1
    48    61    59    1
    49    68    71    1
    50    68    69    1
    51    73    74   ar
    52    50    51    1
    53    50    47    1
    54    48    55   am
    55    48    47    1
    56    58    57    2
    57    52    51    1
    58    52    53    1
    59    57    62   am
    60    47    46    1
    61    69    70    2
    62    53    54    1
    63    62    63    1
    64    46    44   am
    65    64    63    1
    66    64    65    2
    67    63    66    1
    68    45    44    2
    69    44    43    1
    70    36    37    1
    71    36    35    1
    72    37    31    1
    73    35    32    1
    74    31    32    1
    75    32    33    1
    76    43    42    1
    77    33    38   am
    78    33    34    2
    79    38    39    1
    80    39    40    1
    81    40    41    2
    82     1     2    1
    83    22    20    1
    84     4     3    2
    85    20    21    1
    86    20    17    1
    87     3     2    1
    88     3     9   am
    89     2     5    1
    90    16    17    1
    91    16    11   am
    92    19    18    2
    93    10     9    1
    94    10    11    1
    95    10    13    1
    96    17    18    1
    97     9    15    1
    98     5     6    1
    99   159   157   ar
   100    11    12    2
   101     8     6   ar
   102     6     7   ar
   103    18    23   am
   104    13    14    1
   105    15    14    1
   106   157   156    1
   107   157   158   ar
   108    23    24    1
   109   156   153    1
   110    25    24    1
   111    25    26    2
   112    24    27    1
   113   144   143    1
   114   151   150    1
   115   151   145    1
   116   124   122    1
   117   153   152    1
   118   153   154    1
   119    28    27    1
   120    28    30    1
   121    27    29    1
   122   132   130    1
   123   167   165    1
   124   152   147   am
   125   150   149    1
   126   143   141   ar
   127   143   142   ar
   128   145   146    1
   129   131   130    1
   130   141   139   ar
   131   154   155    2
   132   122   121    1
   133   166   164    1
   134   130   129    1
   135   123   121    1
   136   142   140   ar
   137   147   146    1
   138   147   148    2
   139   164   165    1
   140   164   161    1
   141   146   149    1
   142   139   138   ar
   143   121   118    1
   144   129   126    1
   145   140   138   ar
   146   118   117    1
   147   118   119    1
   148   162   161    1
   149   162   163    2
   150   161   160    1
   151   138   137    1
   152   126   125    1
   153   126   127    1
   154   120   119    2
   155   128   127    2
   156   133   134    1
   157   137   134    1
   158   134   135    1
   159   135   136    2
