@<TRIPOS>MOLECULE
tmp/5og1E01.pdb
 91 83 0 0 0
SMALL
GASTEIGER

@<TRIPOS>ATOM
      1  N        179.2900  155.4480  225.6690 N.3   308  ASP308     -0.1239
      2  CA       178.7000  156.6740  225.1730 C.3   308  ASP308      0.1674
      3  C        178.1420  156.3920  223.7820 C.2   308  ASP308      0.2266
      4  O        178.9050  156.0170  222.8820 O.2   308  ASP308     -0.2867
      5  CB       179.7620  157.7730  225.1250 C.3   308  ASP308      0.1410
      6  CG       179.1690  159.1600  225.0140 C.2   308  ASP308      0.3668
      7  OD1      177.9310  159.2910  224.9610 O.co2 308  ASP308     -0.2456
      8  OD2      179.9520  160.1320  224.9970 O.co2 308  ASP308     -0.2456
      9  N        179.4120  157.3110  219.8480 N.3   311  ARG311     -0.1245
     10  CA       180.7600  156.9280  219.4730 C.3   311  ARG311      0.1563
     11  C        180.6700  155.9970  218.2810 C.2   311  ARG311      0.2260
     12  O        179.6380  155.3530  218.0700 O.2   311  ARG311     -0.2867
     13  CB       181.4720  156.2090  220.6240 C.3   311  ARG311      0.0307
     14  CG       181.8000  157.0610  221.8250 C.3   311  ARG311      0.0489
     15  CD       182.4390  156.2020  222.9080 C.3   311  ARG311      0.2205
     16  NE       183.7370  155.6760  222.4850 N.pl3 311  ARG311     -0.0865
     17  CZ       183.9640  154.4050  222.1520 C.cat 311  ARG311      0.5346
     18  NH1      182.9650  153.5370  222.1730 N.pl3 311  ARG311      0.1354
     19  NH2      185.1690  154.0050  221.7660 N.pl3 311  ARG311      0.1354
     20  N        193.9150  164.3910  213.3250 N.3   403  ASN403     -0.1240
     21  CA       192.8660  165.2780  213.8210 C.3   403  ASN403      0.1653
     22  C        191.5170  164.9990  213.1600 C.2   403  ASN403      0.2266
     23  O        190.4730  165.1830  213.7890 O.2   403  ASN403     -0.2867
     24  CB       193.2780  166.7330  213.6420 C.3   403  ASN403      0.1155
     25  CG       194.1600  167.2020  214.7610 C.2   403  ASN403      0.2627
     26  OD1      193.8110  167.0650  215.9250 O.2   403  ASN403     -0.2716
     27  ND2      195.3420  167.6810  214.4260 N.am  403  ASN403     -0.0877
     28  N        190.3940  162.3930  215.1390 N.3   406  LEU406     -0.1231
     29  CA       189.7340  162.9960  216.2860 C.3   406  LEU406      0.1693
     30  C        188.3530  163.5230  215.9230 C.2   406  LEU406      0.2591
     31  O        187.5230  163.7640  216.8050 O.2   406  LEU406     -0.2718
     32  CB       190.6110  164.1060  216.8420 C.3   406  LEU406      0.0284
     33  CG       191.5560  163.8750  218.0090 C.3   406  LEU406      0.0019
     34  CD1      192.6280  162.8180  217.8210 C.3   406  LEU406      0.0001
     35  CD2      192.1820  165.2140  218.1490 C.3   406  LEU406      0.0001
     36  N        188.0870  163.7360  214.6350 N.am  407  GLN407     -0.1979
     37  CA       186.7160  164.0210  214.2310 C.3   407  GLN407      0.1601
     38  C        185.9410  162.7270  214.0350 C.2   407  GLN407      0.2287
     39  O        184.7070  162.7280  213.9850 O.2   407  GLN407     -0.2864
     40  CB       186.6960  164.8630  212.9570 C.3   407  GLN407      0.0394
     41  CG       187.4930  166.1530  213.0490 C.3   407  GLN407      0.0908
     42  CD       186.9820  167.0950  214.1190 C.2   407  GLN407      0.2608
     43  OE1      185.7760  167.2260  214.3190 O.2   407  GLN407     -0.2717
     44  NE2      187.9000  167.7610  214.8090 N.am  407  GLN407     -0.0878
     45  N        186.1530  160.8320  218.3680 N.3   410  ASP410     -0.1225
     46  CA       185.3530  161.7320  219.1750 C.3   410  ASP410      0.1805
     47  C        184.1250  162.1570  218.3740 C.2   410  ASP410      0.2597
     48  O        184.2120  162.4860  217.1860 O.2   410  ASP410     -0.2718
     49  CB       186.1670  162.9530  219.6110 C.3   410  ASP410      0.1424
     50  CG       187.3620  162.5880  220.4730 C.2   410  ASP410      0.3668
     51  OD1      187.2990  161.5760  221.2020 O.co2 410  ASP410     -0.2456
     52  OD2      188.3720  163.3240  220.4160 O.co2 410  ASP410     -0.2456
     53  N        182.9610  162.0400  219.0270 N.am  411  ASP411     -0.1974
     54  CA       181.6420  162.5270  218.6100 C.3   411  ASP411      0.1709
     55  C        181.0170  161.7680  217.4270 C.2   411  ASP411      0.2293
     56  O        179.8630  162.0290  217.0720 O.2   411  ASP411     -0.2864
     57  CB       181.7190  164.0310  218.3190 C.3   411  ASP411      0.1436
     58  CG       182.2130  164.8280  219.5200 C.2   411  ASP411      0.3671
     59  OD1      181.8900  164.4560  220.6690 O.co2 411  ASP411     -0.2456
     60  OD2      182.9620  165.8000  219.3160 O.co2 411  ASP411     -0.2456
     61  N        198.6070  161.7560  219.8800 N.3   465  ARG465     -0.1245
     62  CA       198.3150  162.5520  221.0590 C.3   465  ARG465      0.1563
     63  C        197.6670  161.6750  222.1270 C.2   465  ARG465      0.2260
     64  O        197.2050  160.5710  221.8230 O.2   465  ARG465     -0.2867
     65  CB       197.4010  163.7170  220.6760 C.3   465  ARG465      0.0307
     66  CG       196.0170  163.3290  220.2220 C.3   465  ARG465      0.0489
     67  CD       195.2720  164.5930  219.8950 C.3   465  ARG465      0.2205
     68  NE       195.8400  165.2750  218.7400 N.pl3 465  ARG465     -0.0865
     69  CZ       195.5500  166.5230  218.3950 C.cat 465  ARG465      0.5346
     70  NH1      194.7010  167.2440  219.1130 N.pl3 465  ARG465      0.1354
     71  NH2      196.1130  167.0520  217.3230 N.pl3 465  ARG465      0.1354
     72  N        194.8180  161.7820  223.4620 N.3   467  GLU467     -0.1245
     73  CA       193.4110  161.4760  223.2220 C.3   467  GLU467      0.1567
     74  C        193.2570  160.1200  222.5420 C.2   467  GLU467      0.2260
     75  O        192.3710  159.3330  222.9000 O.2   467  GLU467     -0.2867
     76  CB       192.7580  162.5690  222.3770 C.3   467  GLU467      0.0388
     77  CG       192.8140  163.9600  222.9790 C.3   467  GLU467      0.1160
     78  CD       191.9890  164.9480  222.1890 C.2   467  GLU467      0.3649
     79  OE1      191.3420  164.5220  221.2170 O.co2 467  GLU467     -0.2457
     80  OE2      192.0040  166.1500  222.5210 O.co2 467  GLU467     -0.2457
     81  N        191.5270  156.9550  224.4580 N.3   471  ARG471     -0.1245
     82  CA       190.2070  156.5700  223.9570 C.3   471  ARG471      0.1563
     83  C        190.2010  155.2120  223.2510 C.2   471  ARG471      0.2260
     84  O        189.1370  154.7570  222.8160 O.2   471  ARG471     -0.2867
     85  CB       189.6640  157.6460  223.0150 C.3   471  ARG471      0.0307
     86  CG       189.2590  158.9540  223.6900 C.3   471  ARG471      0.0489
     87  CD       187.9690  158.8090  224.4730 C.3   471  ARG471      0.2205
     88  NE       187.4810  160.0840  224.9880 N.pl3 471  ARG471     -0.0865
     89  CZ       187.7870  160.5630  226.1870 C.cat 471  ARG471      0.5346
     90  NH1      188.5830  159.8770  226.9940 N.pl3 471  ARG471      0.1354
     91  NH2      187.2990  161.7310  226.5790 N.pl3 471  ARG471      0.1354
@<TRIPOS>BOND
     1    40    41    1
     2    40    37    1
     3    41    42    1
     4    22    23    2
     5    22    21    1
     6    20    21    1
     7    24    21    1
     8    24    25    1
     9    39    38    2
    10    38    37    1
    11    42    43    2
    12    42    44   am
    13    37    36    1
    14    27    25   am
    15    36    30   am
    16    25    26    2
    17    28    29    1
    18    30    29    1
    19    30    31    2
    20    29    32    1
    21    32    33    1
    22    56    55    2
    23    48    47    2
    24    71    69    1
    25    55    54    1
    26    34    33    1
    27    33    35    1
    28    12    11    2
    29    11    10    1
    30    57    54    1
    31    57    58    1
    32    45    46    1
    33    47    53   am
    34    47    46    1
    35    69    68    2
    36    69    70    1
    37    54    53    1
    38    68    67    1
    39    46    49    1
    40    60    58   ar
    41    10     9    1
    42    10    13    1
    43    58    59   ar
    44    49    50    1
    45    61    62    1
    46    67    66    1
    47    66    65    1
    48    52    50   ar
    49    50    51   ar
    50    13    14    1
    51    65    62    1
    52    62    63    1
    53    79    78   ar
    54    19    17    1
    55    64    63    2
    56    14    15    1
    57    17    18    1
    58    17    16    2
    59    78    80   ar
    60    78    77    1
    61    76    77    1
    62    76    73    1
    63    16    15    1
    64    74    75    2
    65    74    73    1
    66    84    83    2
    67     4     3    2
    68    85    86    1
    69    85    82    1
    70    73    72    1
    71    83    82    1
    72    86    87    1
    73     3     2    1
    74    82    81    1
    75    87    88    1
    76     7     6   ar
    77    88    89    2
    78     8     6   ar
    79     6     5    1
    80     5     2    1
    81     2     1    1
    82    89    91    1
    83    89    90    1
