@<TRIPOS>MOLECULE
tmp/5og1A01.pdb
 151 139 0 0 0
SMALL
GASTEIGER

@<TRIPOS>ATOM
      1  N        177.1810  170.2600  234.4300 N.3   336  ARG336     -0.1231
      2  CA       177.8120  169.3900  233.4420 C.3   336  ARG336      0.1694
      3  C        179.3020  169.6510  233.2190 C.2   336  ARG336      0.2591
      4  O        179.9770  168.7960  232.6380 O.2   336  ARG336     -0.2718
      5  CB       177.0650  169.4730  232.1040 C.3   336  ARG336      0.0321
      6  CG       177.0390  170.8380  231.4480 C.3   336  ARG336      0.0489
      7  CD       176.2720  170.7730  230.1340 C.3   336  ARG336      0.2205
      8  NE       176.9540  169.9210  229.1630 N.pl3 336  ARG336     -0.0865
      9  CZ       176.4050  169.4710  228.0400 C.cat 336  ARG336      0.5346
     10  NH1      175.1560  169.7930  227.7290 N.pl3 336  ARG336      0.1354
     11  NH2      177.1100  168.7020  227.2200 N.pl3 336  ARG336      0.1354
     12  N        179.8440  170.8000  233.6330 N.am  337  VAL337     -0.1980
     13  CA       181.2820  171.0750  233.5790 C.3   337  VAL337      0.1595
     14  C        181.6920  171.6810  234.9180 C.2   337  VAL337      0.2287
     15  O        181.3990  172.8520  235.1880 O.2   337  VAL337     -0.2864
     16  CB       181.6580  172.0310  232.4230 C.3   337  VAL337      0.0276
     17  CG1      183.1460  172.3770  232.4650 C.3   337  VAL337      0.0022
     18  CG2      181.3070  171.4450  231.0550 C.3   337  VAL337      0.0022
     19  N        195.6570  169.4000  226.9000 N.3   374  THR374     -0.1218
     20  CA       194.6210  168.4470  226.5460 C.3   374  THR374      0.1862
     21  C        194.1550  167.7040  227.7930 C.2   374  THR374      0.2287
     22  O        194.5450  168.0230  228.9190 O.2   374  THR374     -0.2866
     23  CB       195.1140  167.4530  225.4910 C.3   374  THR374      0.1770
     24  OG1      196.2010  166.6890  226.0250 O.3   374  THR374     -0.2211
     25  CG2      195.5800  168.1920  224.2420 C.3   374  THR374      0.0375
     26  N        190.8460  167.6320  228.5750 N.3   376  VAL376     -0.1231
     27  CA       189.8740  168.5700  229.1280 C.3   376  VAL376      0.1692
     28  C        188.4660  168.3380  228.5720 C.2   376  VAL376      0.2593
     29  O        187.4890  168.3660  229.3290 O.2   376  VAL376     -0.2718
     30  CB       190.3510  170.0270  228.9310 C.3   376  VAL376      0.0266
     31  CG1      191.5380  170.3180  229.8500 C.3   376  VAL376      0.0020
     32  CG2      190.7720  170.2950  227.4890 C.3   376  VAL376      0.0020
     33  N        188.3330  168.0980  227.2660 N.am  377  GLY377     -0.1942
     34  CA       187.0050  167.9080  226.7090 C.3   377  GLY377      0.2014
     35  C        186.3920  169.1230  226.0330 C.2   377  GLY377      0.2639
     36  O        185.2900  169.5360  226.4120 O.2   377  GLY377     -0.2714
     37  N        187.0940  169.7090  225.0500 N.am  378  LYS378     -0.1963
     38  CA       186.6900  170.9940  224.4670 C.3   378  LYS378      0.1728
     39  C        185.3700  170.9030  223.7000 C.2   378  LYS378      0.2617
     40  O        184.5330  171.8120  223.7850 O.2   378  LYS378     -0.2715
     41  CB       187.7880  171.5350  223.5430 C.3   378  LYS378      0.0311
     42  CG       189.0300  172.0930  224.2340 C.3   378  LYS378      0.0038
     43  CD       189.9900  172.6800  223.1980 C.3   378  LYS378      0.0206
     44  CE       191.2400  173.2680  223.8360 C.3   378  LYS378      0.1093
     45  NZ       192.1610  173.8440  222.8140 N.3   378  LYS378     -0.1314
     46  N        185.1710  169.8290  222.9260 N.am  379  THR379     -0.1937
     47  CA       183.9650  169.7560  222.1060 C.3   379  THR379      0.2028
     48  C        182.7430  169.4600  222.9660 C.2   379  THR379      0.2642
     49  O        181.6270  169.8560  222.6240 O.2   379  THR379     -0.2714
     50  CB       184.1100  168.7030  221.0100 C.3   379  THR379      0.1808
     51  OG1      185.4020  168.8210  220.4070 O.3   379  THR379     -0.2208
     52  CG2      183.0840  168.9650  219.9230 C.3   379  THR379      0.0379
     53  N        182.9340  168.7990  224.1080 N.am  380  GLU380     -0.1976
     54  CA       181.8130  168.5990  225.0210 C.3   380  GLU380      0.1602
     55  C        181.4540  169.8930  225.7410 C.2   380  GLU380      0.2287
     56  O        180.3260  170.0530  226.2220 O.2   380  GLU380     -0.2864
     57  CB       182.1460  167.4870  226.0070 C.3   380  GLU380      0.0415
     58  CG       182.4020  166.2000  225.2870 C.3   380  GLU380      0.1163
     59  CD       181.1900  165.7030  224.5550 C.2   380  GLU380      0.3649
     60  OE1      180.0770  165.7890  225.1140 O.co2 380  GLU380     -0.2457
     61  OE2      181.3400  165.2740  223.3950 O.co2 380  GLU380     -0.2457
     62  N        179.4280  171.5760  223.0550 N.3   383  LYS383     -0.1245
     63  CA       178.1030  170.9900  223.2060 C.3   383  LYS383      0.1561
     64  C        177.4310  171.4870  224.4760 C.2   383  LYS383      0.2260
     65  O        176.2020  171.4630  224.5850 O.2   383  LYS383     -0.2867
     66  CB       178.2100  169.4680  223.2320 C.3   383  LYS383      0.0271
     67  CG       178.6580  168.8380  221.9330 C.3   383  LYS383      0.0035
     68  CD       178.8620  167.3570  222.1260 C.3   383  LYS383      0.0206
     69  CE       179.4180  166.6940  220.8920 C.3   383  LYS383      0.1093
     70  NZ       179.5580  165.2400  221.1520 N.3   383  LYS383     -0.1314
     71  N        181.0750  172.1230  212.7520 N.3   398  ARG398     -0.1245
     72  CA       182.4690  171.7380  212.9140 C.3   398  ARG398      0.1563
     73  C        183.1350  171.6260  211.5550 C.2   398  ARG398      0.2260
     74  O        182.8090  170.7400  210.7600 O.2   398  ARG398     -0.2867
     75  CB       182.6010  170.4100  213.6580 C.3   398  ARG398      0.0307
     76  CG       182.0830  170.4910  215.0520 C.3   398  ARG398      0.0489
     77  CD       182.2280  169.2070  215.8300 C.3   398  ARG398      0.2205
     78  NE       183.6150  168.9090  216.1480 N.pl3 398  ARG398     -0.0865
     79  CZ       184.0080  167.8100  216.7770 C.cat 398  ARG398      0.5346
     80  NH1      183.1160  166.9150  217.1750 N.pl3 398  ARG398      0.1354
     81  NH2      185.2940  167.6180  217.0290 N.pl3 398  ARG398      0.1354
     82  N        188.3850  174.0370  214.7470 N.3   444  ASP444     -0.1239
     83  CA       189.4820  173.2960  215.3470 C.3   444  ASP444      0.1674
     84  C        190.6960  173.4190  214.4390 C.2   444  ASP444      0.2266
     85  O        190.5710  173.3040  213.2160 O.2   444  ASP444     -0.2867
     86  CB       189.1260  171.8220  215.5430 C.3   444  ASP444      0.1410
     87  CG       187.9810  171.6270  216.5130 C.2   444  ASP444      0.3668
     88  OD1      187.7750  172.5090  217.3650 O.co2 444  ASP444     -0.2456
     89  OD2      187.2870  170.5920  216.4290 O.co2 444  ASP444     -0.2456
     90  N        188.1450  176.4650  219.2790 N.3   484  THR484     -0.1218
     91  CA       188.8780  175.4190  219.9810 C.3   484  THR484      0.1862
     92  C        190.0070  174.9150  219.0980 C.2   484  THR484      0.2287
     93  O        189.9980  173.7570  218.6720 O.2   484  THR484     -0.2866
     94  CB       187.9560  174.2610  220.3670 C.3   484  THR484      0.1770
     95  OG1      187.3060  173.7590  219.1960 O.3   484  THR484     -0.2211
     96  CG2      186.9240  174.7330  221.3500 C.3   484  THR484      0.0375
     97  N        193.8350  173.8820  217.7450 N.3   486  ASN486     -0.1240
     98  CA       194.8980  173.0270  218.2380 C.3   486  ASN486      0.1653
     99  C        196.2580  173.7270  218.2530 C.2   486  ASN486      0.2266
    100  O        197.2790  173.0550  218.0780 O.2   486  ASN486     -0.2867
    101  CB       194.9600  171.7320  217.4030 C.3   486  ASN486      0.1155
    102  CG       193.7270  170.8300  217.5940 C.2   486  ASN486      0.2627
    103  OD1      192.9300  170.6330  216.6750 O.2   486  ASN486     -0.2716
    104  ND2      193.5940  170.2550  218.7850 N.am  486  ASN486     -0.0877
    105  N        182.3440  163.9610  237.6450 N.3   541  ILE541     -0.1245
    106  CA       182.1480  163.5170  236.2630 C.3   541  ILE541      0.1561
    107  C        181.7200  162.0580  236.2300 C.2   541  ILE541      0.2260
    108  O        181.1450  161.5880  235.2360 O.2   541  ILE541     -0.2867
    109  CB       183.4070  163.7650  235.4090 C.3   541  ILE541      0.0252
    110  CG1      184.5870  162.9100  235.8740 C.3   541  ILE541      0.0019
    111  CG2      183.7650  165.2420  235.4100 C.3   541  ILE541      0.0019
    112  CD1      185.7490  162.9170  234.9080 C.3   541  ILE541      0.0001
    113  N        177.7180  162.8190  236.8240 N.3   544  ILE544     -0.1231
    114  CA       177.0210  163.3340  235.6490 C.3   544  ILE544      0.1692
    115  C        177.2520  162.4230  234.4480 C.2   544  ILE544      0.2591
    116  O        176.4830  162.4460  233.4780 O.2   544  ILE544     -0.2718
    117  CB       177.4490  164.7850  235.3590 C.3   544  ILE544      0.0266
    118  CG1      178.9310  164.8350  235.0030 C.3   544  ILE544      0.0019
    119  CG2      177.1560  165.6730  236.5550 C.3   544  ILE544      0.0020
    120  CD1      179.4060  166.1760  234.5660 C.3   544  ILE544      0.0001
    121  N        178.3050  161.5990  234.4930 N.am  545  GLN545     -0.1979
    122  CA       178.4280  160.5240  233.5160 C.3   545  GLN545      0.1601
    123  C        177.3610  159.4580  233.7520 C.2   545  GLN545      0.2287
    124  O        176.9170  158.7890  232.8090 O.2   545  GLN545     -0.2864
    125  CB       179.8350  159.9240  233.5760 C.3   545  GLN545      0.0394
    126  CG       180.1490  158.8720  232.5150 C.3   545  GLN545      0.0908
    127  CD       180.1640  159.4350  231.1030 C.2   545  GLN545      0.2608
    128  OE1      180.6400  160.5460  230.8640 O.2   545  GLN545     -0.2717
    129  NE2      179.6560  158.6570  230.1540 N.am  545  GLN545     -0.0878
    130  N        173.2620  160.6350  232.4700 N.3   548  ARG548     -0.1245
    131  CA       172.8660  160.2920  231.1110 C.3   548  ARG548      0.1563
    132  C        172.4850  158.8240  231.0210 C.2   548  ARG548      0.2260
    133  O        171.5310  158.4670  230.3250 O.2   548  ARG548     -0.2867
    134  CB       173.9820  160.6050  230.1170 C.3   548  ARG548      0.0307
    135  CG       173.5070  160.5060  228.6770 C.3   548  ARG548      0.0489
    136  CD       174.6010  160.7360  227.6520 C.3   548  ARG548      0.2205
    137  NE       175.5730  159.6530  227.6120 N.pl3 548  ARG548     -0.0865
    138  CZ       176.8640  159.7860  227.8900 C.cat 548  ARG548      0.5346
    139  NH1      177.3530  160.9730  228.2150 N.pl3 548  ARG548      0.1354
    140  NH2      177.6700  158.7350  227.8220 N.pl3 548  ARG548      0.1354
    141  N        190.9490  161.2380  231.3200 N.3   582  ARG582     -0.1245
    142  CA       190.3720  160.7130  230.0820 C.3   582  ARG582      0.1563
    143  C        190.0350  159.2120  230.0630 C.2   582  ARG582      0.2260
    144  O        188.9500  158.8820  229.5550 O.2   582  ARG582     -0.2867
    145  CB       191.2690  161.0590  228.8860 C.3   582  ARG582      0.0307
    146  CG       191.3480  162.5230  228.5530 C.3   582  ARG582      0.0489
    147  CD       192.0780  162.7230  227.2330 C.3   582  ARG582      0.2205
    148  NE       191.2900  162.2370  226.1010 N.pl3 582  ARG582     -0.0865
    149  CZ       190.3740  162.9630  225.4640 C.cat 582  ARG582      0.5346
    150  NH1      190.1310  164.2080  225.8490 N.pl3 582  ARG582      0.1354
    151  NH2      189.6980  162.4510  224.4430 N.pl3 582  ARG582      0.1354
@<TRIPOS>BOND
     1    74    73    2
     2    73    72    1
     3    71    72    1
     4    72    75    1
     5    85    84    2
     6    75    76    1
     7    84    83    1
     8    82    83    1
     9    76    77    1
    10    83    86    1
    11    86    87    1
    12    77    78    1
    13    78    79    2
    14    89    87   ar
    15    87    88   ar
    16   103   102    2
    17    79    81    1
    18    79    80    1
    19   101   102    1
    20   101    98    1
    21   102   104   am
    22    97    98    1
    23   100    99    2
    24    98    99    1
    25    93    92    2
    26    92    91    1
    27    95    94    1
    28    90    91    1
    29    52    50    1
    30    91    94    1
    31    94    96    1
    32    51    50    1
    33    69    70    1
    34    69    68    1
    35    50    47    1
    36    67    68    1
    37    67    66    1
    38    47    46    1
    39    47    48    1
    40    49    48    2
    41    45    44    1
    42    46    39   am
    43    48    53   am
    44    62    63    1
    45    43    44    1
    46    43    42    1
    47    63    66    1
    48    63    64    1
    49    61    59   ar
    50    41    42    1
    51    41    38    1
    52    39    40    2
    53    39    38    1
    54    53    54    1
    55    25    23    1
    56   151   149    1
    57    38    37    1
    58    64    65    2
    59    59    60   ar
    60    59    58    1
    61    54    55    1
    62    54    57    1
    63    37    35   am
    64    58    57    1
    65   149   150    1
    66   149   148    2
    67    23    24    1
    68    23    20    1
    69    55    56    2
    70    35    36    2
    71    35    34    1
    72   148   147    1
    73    20    19    1
    74    20    21    1
    75    34    33    1
    76    11     9    1
    77   147   146    1
    78    33    28   am
    79    32    30    1
    80   137   136    1
    81   137   138    2
    82   136   135    1
    83    10     9    1
    84    21    22    2
    85   140   138    1
    86   138   139    1
    87     9     8    2
    88   146   145    1
    89    28    27    1
    90    28    29    2
    91    26    27    1
    92   135   134    1
    93   145   142    1
    94    30    27    1
    95    30    31    1
    96     8     7    1
    97   144   143    2
    98   143   142    1
    99   142   141    1
   100   134   131    1
   101     7     6    1
   102   129   127   am
   103   133   132    2
   104   128   127    2
   105   132   131    1
   106    18    16    1
   107   127   126    1
   108   131   130    1
   109     6     5    1
   110     5     2    1
   111    16    17    1
   112    16    13    1
   113   126   125    1
   114     4     3    2
   115   124   123    2
   116     3     2    1
   117     3    12   am
   118     2     1    1
   119   116   115    2
   120   122   125    1
   121   122   123    1
   122   122   121    1
   123    13    12    1
   124    13    14    1
   125   115   121   am
   126   115   114    1
   127   120   118    1
   128   112   110    1
   129    14    15    2
   130   118   117    1
   131   108   107    2
   132   117   114    1
   133   117   119    1
   134   109   111    1
   135   109   110    1
   136   109   106    1
   137   114   113    1
   138   107   106    1
   139   106   105    1
