@<TRIPOS>MOLECULE
tmp/5og1E02.pdb
 174 166 0 0 0
SMALL
GASTEIGER

@<TRIPOS>ATOM
      1  N        143.8460  166.9570  204.6450 N.3    18  ASP18      -0.1225
      2  CA       144.6350  166.3260  205.7000 C.3    18  ASP18       0.1790
      3  C        144.7430  167.2340  206.9270 C.2    18  ASP18       0.2440
      4  O        145.0230  168.4320  206.8010 O.2    18  ASP18      -0.2733
      5  CB       146.0390  165.9880  205.1940 C.3    18  ASP18       0.1423
      6  CG       146.0400  164.8600  204.1680 C.2    18  ASP18       0.3668
      7  OD1      145.1340  164.0040  204.2120 O.co2  18  ASP18      -0.2456
      8  OD2      146.9610  164.8250  203.3210 O.co2  18  ASP18      -0.2456
      9  N        144.5230  166.6910  208.1230 N.am   19  PRO19      -0.2718
     10  CA       144.5500  167.5200  209.3360 C.3    19  PRO19       0.1535
     11  C        145.9700  167.8820  209.7560 C.2    19  PRO19       0.2598
     12  O        146.9570  167.5320  209.1090 O.2    19  PRO19      -0.2715
     13  CB       143.8740  166.6320  210.3870 C.3    19  PRO19       0.0310
     14  CG       143.1130  165.5990  209.5990 C.3    19  PRO19       0.0237
     15  CD       143.9560  165.3600  208.3860 C.3    19  PRO19       0.0939
     16  N        146.0600  168.6160  210.8670 N.am   20  VAL20      -0.1964
     17  CA       147.3270  168.9840  211.4920 C.3    20  VAL20       0.1727
     18  C        147.2390  168.7230  212.9910 C.2    20  VAL20       0.2616
     19  O        146.1430  168.6690  213.5640 O.2    20  VAL20      -0.2715
     20  CB       147.7110  170.4580  211.2250 C.3    20  VAL20       0.0290
     21  CG1      148.1200  170.6690  209.7730 C.3    20  VAL20       0.0023
     22  CG2      146.5600  171.3820  211.5910 C.3    20  VAL20       0.0023
     23  N        148.3980  168.5670  213.6250 N.am   21  ILE21      -0.1977
     24  CA       148.4940  168.2650  215.0490 C.3    21  ILE21       0.1596
     25  C        149.3820  169.3270  215.6620 C.2    21  ILE21       0.2287
     26  O        150.5270  169.5080  215.2270 O.2    21  ILE21      -0.2864
     27  CB       149.0730  166.8680  215.3380 C.3    21  ILE21       0.0276
     28  CG1      148.2320  165.7670  214.6950 C.3    21  ILE21       0.0022
     29  CG2      149.1960  166.6580  216.8420 C.3    21  ILE21       0.0022
     30  CD1      148.7320  165.3360  213.3130 C.3    21  ILE21       0.0001
     31  N        150.7080  172.8270  215.8480 N.3    23  ARG23      -0.1245
     32  CA       150.9680  173.7920  214.7860 C.3    23  ARG23       0.1563
     33  C        150.1410  175.0620  214.9830 C.2    23  ARG23       0.2260
     34  O        149.1670  175.2750  214.2600 O.2    23  ARG23      -0.2867
     35  CB       150.7140  173.1400  213.4170 C.3    23  ARG23       0.0307
     36  CG       151.6640  171.9720  213.0950 C.3    23  ARG23       0.0489
     37  CD       151.2860  171.3010  211.7800 C.3    23  ARG23       0.2205
     38  NE       152.0910  170.1260  211.4430 N.pl3  23  ARG23      -0.0865
     39  CZ       153.1190  170.1350  210.5990 C.cat  23  ARG23       0.5346
     40  NH1      153.4580  171.2550  209.9870 N.pl3  23  ARG23       0.1354
     41  NH2      153.7900  169.0200  210.3440 N.pl3  23  ARG23       0.1354
     42  N        162.2730  171.3090  203.2980 N.3    47  GLU47      -0.1231
     43  CA       162.4510  170.2830  202.2820 C.3    47  GLU47       0.1684
     44  C        161.1400  169.5330  202.0370 C.2    47  GLU47       0.2434
     45  O        160.1660  169.7170  202.7620 O.2    47  GLU47      -0.2733
     46  CB       163.6100  169.3870  202.7210 C.3    47  GLU47       0.0402
     47  CG       164.9380  170.1170  202.6570 C.3    47  GLU47       0.1161
     48  CD       165.3320  170.4690  201.2370 C.2    47  GLU47       0.3649
     49  OE1      165.0340  169.6780  200.3170 O.co2  47  GLU47      -0.2457
     50  OE2      165.9100  171.5570  201.0310 O.co2  47  GLU47      -0.2457
     51  N        161.0610  168.6810  201.0040 N.am   48  PRO48      -0.2729
     52  CA       159.7910  167.9690  200.7550 C.3    48  PRO48       0.1401
     53  C        159.4240  166.8430  201.7300 C.2    48  PRO48       0.2269
     54  O        158.6220  165.9770  201.3540 O.2    48  PRO48      -0.2865
     55  CB       159.9760  167.4230  199.3360 C.3    48  PRO48       0.0296
     56  CG       160.8680  168.3720  198.7000 C.3    48  PRO48       0.0237
     57  CD       161.8490  168.7480  199.7530 C.3    48  PRO48       0.0939
     58  N        158.5290  167.6010  205.1230 N.3    50  VAL50      -0.1231
     59  CA       158.1350  168.2620  206.3680 C.3    50  VAL50       0.1692
     60  C        156.6220  168.5100  206.4190 C.2    50  VAL50       0.2593
     61  O        155.9990  168.3660  207.4780 O.2    50  VAL50      -0.2718
     62  CB       158.9690  169.5460  206.5950 C.3    50  VAL50       0.0266
     63  CG1      158.7190  170.6340  205.5430 C.3    50  VAL50       0.0020
     64  CG2      158.7610  170.0910  208.0080 C.3    50  VAL50       0.0020
     65  N        155.9950  168.8440  205.2850 N.am   51  GLY51      -0.1942
     66  CA       154.5650  169.1180  205.2940 C.3    51  GLY51       0.2014
     67  C        154.1260  170.5710  205.4010 C.2    51  GLY51       0.2639
     68  O        153.4580  170.9410  206.3730 O.2    51  GLY51      -0.2714
     69  N        154.4970  171.4070  204.4220 N.am   52  LYS52      -0.1963
     70  CA       154.1210  172.8220  204.4560 C.3    52  LYS52       0.1728
     71  C        152.7830  173.0690  203.7540 C.2    52  LYS52       0.2617
     72  O        152.0620  174.0290  204.0690 O.2    52  LYS52      -0.2715
     73  CB       155.2320  173.6880  203.8450 C.3    52  LYS52       0.0311
     74  CG       155.2970  173.7840  202.3140 C.3    52  LYS52       0.0038
     75  CD       156.0340  172.6120  201.6760 C.3    52  LYS52       0.0206
     76  CE       157.5370  172.7150  201.9260 C.3    52  LYS52       0.1093
     77  NZ       158.3190  171.6210  201.2810 N.3    52  LYS52      -0.1314
     78  N        152.4150  172.1940  202.8120 N.am   53  THR53      -0.1937
     79  CA       151.0960  172.3080  202.1990 C.3    53  THR53       0.2028
     80  C        149.9930  171.9870  203.2070 C.2    53  THR53       0.2642
     81  O        148.8740  172.5110  203.0920 O.2    53  THR53      -0.2714
     82  CB       151.0040  171.4220  200.9510 C.3    53  THR53       0.1808
     83  OG1      149.7270  171.5990  200.3220 O.3    53  THR53      -0.2208
     84  CG2      151.2260  169.9460  201.2820 C.3    53  THR53       0.0379
     85  N        150.3170  171.2040  204.2450 N.am   54  ALA54      -0.1977
     86  CA       149.4130  171.0330  205.3780 C.3    54  ALA54       0.1597
     87  C        149.3250  172.3010  206.2180 C.2    54  ALA54       0.2287
     88  O        148.3820  172.4710  207.0000 O.2    54  ALA54      -0.2864
     89  CB       149.8650  169.8540  206.2430 C.3    54  ALA54       0.0319
     90  N        152.0160  177.6050  195.0200 N.3   118  ASP118     -0.1239
     91  CA       153.1630  176.7670  195.3010 C.3   118  ASP118      0.1674
     92  C        154.0770  176.8320  194.0850 C.2   118  ASP118      0.2266
     93  O        153.6130  177.1080  192.9730 O.2   118  ASP118     -0.2867
     94  CB       152.7170  175.3350  195.5970 C.3   118  ASP118      0.1410
     95  CG       153.7940  174.5040  196.2620 C.2   118  ASP118      0.3668
     96  OD1      154.9220  175.0090  196.4440 O.co2 118  ASP118     -0.2456
     97  OD2      153.5000  173.3440  196.6200 O.co2 118  ASP118     -0.2456
     98  N        161.0960  175.2980  198.6510 N.3   144  THR144     -0.1218
     99  CA       161.9460  174.4280  199.4560 C.3   144  THR144      0.1862
    100  C        163.0340  175.2550  200.1530 C.2   144  THR144      0.2287
    101  O        163.3050  176.3780  199.7450 O.2   144  THR144     -0.2866
    102  CB       162.5440  173.3590  198.5330 C.3   144  THR144      0.1770
    103  OG1      161.5180  172.8620  197.6690 O.3   144  THR144     -0.2211
    104  CG2      163.0350  172.1860  199.2680 C.3   144  THR144      0.0375
    105  N        152.4090  163.5490  215.5320 N.3   178  ILE178     -0.1245
    106  CA       151.8840  163.5320  214.1690 C.3   178  ILE178      0.1561
    107  C        151.6900  162.1000  213.6900 C.2   178  ILE178      0.2260
    108  O        150.7340  161.8010  212.9620 O.2   178  ILE178     -0.2867
    109  CB       152.7850  164.3710  213.2410 C.3   178  ILE178      0.0252
    110  CG1      152.6200  165.8440  213.6030 C.3   178  ILE178      0.0019
    111  CG2      152.4300  164.2170  211.7690 C.3   178  ILE178      0.0019
    112  CD1      153.6070  166.7550  212.9370 C.3   178  ILE178      0.0001
    113  N        148.0190  160.8220  212.6470 N.3   182  LEU182     -0.1245
    114  CA       147.7850  160.0510  211.4460 C.3   182  LEU182      0.1561
    115  C        147.5110  158.5920  211.7640 C.2   182  LEU182      0.2260
    116  O        147.2260  157.8170  210.8470 O.2   182  LEU182     -0.2867
    117  CB       148.9820  160.1970  210.5290 C.3   182  LEU182      0.0270
    118  CG       149.0910  161.6690  210.1440 C.3   182  LEU182      0.0019
    119  CD1      150.3600  161.8830  209.3960 C.3   182  LEU182      0.0001
    120  CD2      147.8960  162.1180  209.3260 C.3   182  LEU182      0.0001
    121  N        145.3480  156.0930  209.4930 N.3   186  TYR186     -0.1241
    122  CA       146.0930  154.9320  209.0190 C.3   186  TYR186      0.1605
    123  C        145.5920  153.6400  209.6620 C.2   186  TYR186      0.2264
    124  O        145.6250  152.5780  209.0390 O.2   186  TYR186     -0.2867
    125  CB       147.5890  155.1410  209.2510 C.3   186  TYR186      0.0534
    126  CG       148.1770  156.2050  208.3430 C.ar  186  TYR186     -0.0201
    127  CD1      147.5150  156.6070  207.1820 C.ar  186  TYR186     -0.0009
    128  CD2      149.3720  156.8310  208.6620 C.ar  186  TYR186     -0.0009
    129  CE1      148.0320  157.5840  206.3650 C.ar  186  TYR186      0.0417
    130  CE2      149.8980  157.8170  207.8470 C.ar  186  TYR186      0.0417
    131  CZ       149.2220  158.1820  206.6930 C.ar  186  TYR186      0.1957
    132  OH       149.7060  159.1500  205.8450 O.3   186  TYR186     -0.2866
    133  N        163.0730  160.0560  203.9210 N.3   213  ARG213     -0.1245
    134  CA       162.5620  161.4190  203.8570 C.3   213  ARG213      0.1563
    135  C        162.9850  162.2190  205.0820 C.2   213  ARG213      0.2260
    136  O        163.9080  161.8550  205.8090 O.2   213  ARG213     -0.2867
    137  CB       161.0490  161.4460  203.7370 C.3   213  ARG213      0.0307
    138  CG       160.5840  161.1960  202.3530 C.3   213  ARG213      0.0489
    139  CD       159.1290  161.5020  202.2740 C.3   213  ARG213      0.2205
    140  NE       158.6390  161.4440  200.9100 N.pl3 213  ARG213     -0.0865
    141  CZ       158.7210  162.4630  200.0630 C.cat 213  ARG213      0.5346
    142  NH1      159.2710  163.6060  200.4500 N.pl3 213  ARG213      0.1354
    143  NH2      158.2460  162.3480  198.8360 N.pl3 213  ARG213      0.1354
    144  N        158.0510  164.5310  209.6740 N.3   216  PRO216     -0.2102
    145  CA       157.6610  163.1890  210.1130 C.3   216  PRO216      0.1504
    146  C        157.4320  162.2520  208.9460 C.2   216  PRO216      0.2575
    147  O        157.0700  161.1010  209.1770 O.2   216  PRO216     -0.2718
    148  CB       156.3400  163.4310  210.8540 C.3   216  PRO216      0.0282
    149  CG       156.2750  164.9350  211.0900 C.3   216  PRO216      0.0208
    150  CD       156.9730  165.5070  209.9030 C.3   216  PRO216      0.0893
    151  N        157.6850  162.7430  207.7260 N.am  217  ASP217     -0.1974
    152  CA       157.1720  162.1040  206.5130 C.3   217  ASP217      0.1708
    153  C        157.7700  160.7140  206.3130 C.2   217  ASP217      0.2293
    154  O        157.1280  159.8260  205.7290 O.2   217  ASP217     -0.2864
    155  CB       157.4640  163.0110  205.3140 C.3   217  ASP217      0.1436
    156  CG       156.5220  162.7730  204.1470 C.2   217  ASP217      0.3671
    157  OD1      155.6570  161.8770  204.2420 O.co2 217  ASP217     -0.2456
    158  OD2      156.6400  163.5040  203.1350 O.co2 217  ASP217     -0.2456
    159  N        155.7160  158.5030  208.6730 N.3   220  ILE220     -0.1231
    160  CA       154.3730  158.4810  208.1130 C.3   220  ILE220      0.1692
    161  C        154.2880  157.4580  206.9930 C.2   220  ILE220      0.2592
    162  O        153.4660  156.5300  207.0300 O.2   220  ILE220     -0.2718
    163  CB       153.9950  159.8810  207.6000 C.3   220  ILE220      0.0266
    164  CG1      153.8810  160.8910  208.7450 C.3   220  ILE220      0.0019
    165  CG2      152.7230  159.7980  206.8140 C.3   220  ILE220      0.0020
    166  CD1      153.8640  162.3380  208.2890 C.3   220  ILE220      0.0001
    167  N        155.1490  157.6040  205.9880 N.am  221  ASP221     -0.1974
    168  CA       155.0680  156.7340  204.8320 C.3   221  ASP221      0.1709
    169  C        155.5470  155.3380  205.1670 C.2   221  ASP221      0.2293
    170  O        155.1000  154.3640  204.5610 O.2   221  ASP221     -0.2864
    171  CB       155.8900  157.3270  203.7080 C.3   221  ASP221      0.1436
    172  CG       155.3920  158.6750  203.3120 C.2   221  ASP221      0.3671
    173  OD1      154.1830  158.9280  203.5220 O.co2 221  ASP221     -0.2456
    174  OD2      156.2010  159.4700  202.7870 O.co2 221  ASP221     -0.2456
@<TRIPOS>BOND
     1    93    92    2
     2    92    91    1
     3    90    91    1
     4    91    94    1
     5    94    95    1
     6    95    96   ar
     7    95    97   ar
     8   103   102    1
     9   102   104    1
    10   102    99    1
    11    98    99    1
    12    56    55    1
    13    56    57    1
    14   143   141    1
    15    55    52    1
    16    99   100    1
    17   101   100    2
    18    57    51    1
    19   141   142    1
    20   141   140    2
    21    49    48   ar
    22    83    82    1
    23    52    51    1
    24    52    53    1
    25   140   139    1
    26    82    84    1
    27    82    79    1
    28    51    44   am
    29    50    48   ar
    30    48    47    1
    31    77    76    1
    32    54    53    2
    33    75    76    1
    34    75    74    1
    35    44    43    1
    36    44    45    2
    37    79    78    1
    38    79    80    1
    39   139   138    1
    40    43    46    1
    41    43    42    1
    42    74    73    1
    43   138   137    1
    44    47    46    1
    45   174   172   ar
    46    78    71   am
    47    81    80    2
    48   158   156   ar
    49    80    85   am
    50   172   173   ar
    51   172   171    1
    52     8     6   ar
    53   171   168    1
    54   137   134    1
    55    71    72    2
    56    71    70    1
    57    73    70    1
    58   134   133    1
    59   134   135    1
    60   156   157   ar
    61   156   155    1
    62     6     7   ar
    63     6     5    1
    64    85    86    1
    65    69    70    1
    66    69    67   am
    67   170   169    2
    68     1     2    1
    69   168   169    1
    70   168   167    1
    71   135   136    2
    72    58    59    1
    73     5     2    1
    74    65    66    1
    75    65    60   am
    76    66    67    1
    77   155   152    1
    78    86    87    1
    79    86    89    1
    80    67    68    2
    81    63    62    1
    82     2     3    1
    83   154   153    2
    84   132   131    1
    85   167   161   am
    86    87    88    2
    87   153   152    1
    88   129   131   ar
    89   129   127   ar
    90    59    60    1
    91    59    62    1
    92    60    61    2
    93   152   151    1
    94    62    64    1
    95   131   130   ar
    96     4     3    2
    97   165   163    1
    98     3     9   am
    99   161   162    2
   100   161   160    1
   101   127   126   ar
   102   163   160    1
   103   163   164    1
   104   151   146   am
   105   130   128   ar
   106   160   159    1
   107     9    15    1
   108     9    10    1
   109   166   164    1
   110   126   128   ar
   111   126   125    1
   112    15    14    1
   113   146   147    2
   114   146   145    1
   115   122   125    1
   116   122   121    1
   117   122   123    1
   118   124   123    2
   119    12    11    2
   120   120   118    1
   121    10    11    1
   122    10    13    1
   123   119   118    1
   124    14    13    1
   125   144   150    1
   126   144   145    1
   127    11    16   am
   128    21    20    1
   129   150   149    1
   130    40    39    1
   131   145   148    1
   132   118   117    1
   133    41    39    1
   134   117   114    1
   135    39    38    2
   136   116   115    2
   137   148   149    1
   138    16    17    1
   139    20    17    1
   140    20    22    1
   141    38    37    1
   142   114   115    1
   143   114   113    1
   144    17    18    1
   145   111   109    1
   146    37    36    1
   147   112   110    1
   148   108   107    2
   149    18    19    2
   150    18    23   am
   151    36    35    1
   152   109   110    1
   153   109   106    1
   154    30    28    1
   155    35    32    1
   156    23    24    1
   157   107   106    1
   158   106   105    1
   159    34    33    2
   160    28    27    1
   161    32    33    1
   162    32    31    1
   163    24    27    1
   164    24    25    1
   165    26    25    2
   166    27    29    1
