@<TRIPOS>MOLECULE
tmp/5og7A00.pdb
 131 120 0 0 0
SMALL
GASTEIGER

@<TRIPOS>ATOM
      1  N          1.4390   -6.4800   11.1950 N.3    33  ASP33      -0.1239
      2  CA         1.5260   -5.5200   10.1030 C.3    33  ASP33       0.1674
      3  C          2.8560   -4.7860   10.2450 C.2    33  ASP33       0.2266
      4  O          2.9990   -3.9050   11.0880 O.2    33  ASP33      -0.2867
      5  CB         0.3180   -4.5850   10.1760 C.3    33  ASP33       0.1410
      6  CG         0.2870   -3.5280    9.0820 C.2    33  ASP33       0.3668
      7  OD1        1.2230   -3.4300    8.2560 O.co2  33  ASP33      -0.2456
      8  OD2       -0.7130   -2.7730    9.0620 O.co2  33  ASP33      -0.2456
      9  N          5.3740   -2.0950    9.7040 N.3    35  ASP35      -0.1239
     10  CA         5.0000   -0.6960    9.4840 C.3    35  ASP35       0.1674
     11  C          6.2340    0.2080    9.5230 C.2    35  ASP35       0.2266
     12  O          6.7020    0.5770   10.6140 O.2    35  ASP35      -0.2867
     13  CB         3.9700   -0.2930   10.5380 C.3    35  ASP35       0.1410
     14  CG         3.5070    1.1350   10.4170 C.2    35  ASP35       0.3668
     15  OD1        3.8220    1.8160    9.4260 O.co2  35  ASP35      -0.2456
     16  OD2        2.8080    1.5670   11.3540 O.co2  35  ASP35      -0.2456
     17  N          6.3150    3.1660    8.9250 N.3    37  GLY37      -0.1225
     18  CA         5.8540    4.4800    9.3050 C.3    37  GLY37       0.1811
     19  C          5.5330    4.6230   10.7750 C.2    37  GLY37       0.2280
     20  O          4.9070    5.6200   11.1580 O.2    37  GLY37      -0.2866
     21  N         -2.2060    6.6980   14.4700 N.3    79  TYR79      -0.1227
     22  CA        -1.6370    6.5730   13.1330 C.3    79  TYR79       0.1736
     23  C         -2.2800    7.5490   12.1540 C.2    79  TYR79       0.2596
     24  O         -3.2870    8.1900   12.4430 O.2    79  TYR79      -0.2718
     25  CB        -1.8170    5.1500   12.6110 C.3    79  TYR79       0.0548
     26  CG        -1.1580    4.1350   13.4720 C.ar   79  TYR79      -0.0200
     27  CD1       -1.8600    3.4800   14.4600 C.ar   79  TYR79      -0.0009
     28  CD2        0.1920    3.8450   13.3130 C.ar   79  TYR79      -0.0009
     29  CE1       -1.2190    2.5430   15.2720 C.ar   79  TYR79       0.0417
     30  CE2        0.8270    2.9110   14.1070 C.ar   79  TYR79       0.0417
     31  CZ         0.1260    2.2680   15.0730 C.ar   79  TYR79       0.1957
     32  OH         0.7800    1.3450   15.8530 O.3    79  TYR79      -0.2866
     33  N         -1.6850    7.6280   10.9600 N.am   80  GLY80      -0.1942
     34  CA        -2.1430    8.5430    9.9210 C.3    80  GLY80       0.2014
     35  C         -3.5380    8.2720    9.4230 C.2    80  GLY80       0.2638
     36  O         -4.1030    9.1260    8.7280 O.2    80  GLY80      -0.2714
     37  N         -4.1130    7.1150    9.7430 N.am   81  ASP81      -0.1971
     38  CA        -5.4860    6.8300    9.3550 C.3    81  ASP81       0.1709
     39  C         -6.4720    7.0920   10.4880 C.2    81  ASP81       0.2293
     40  O         -7.6580    6.7840   10.3470 O.2    81  ASP81      -0.2864
     41  CB        -5.6070    5.3920    8.8320 C.3    81  ASP81       0.1436
     42  CG        -5.3400    4.3410    9.8920 C.2    81  ASP81       0.3671
     43  OD1       -4.9370    4.7020   11.0220 O.co2  81  ASP81      -0.2456
     44  OD2       -5.5100    3.1380    9.5820 O.co2  81  ASP81      -0.2456
     45  N         -6.4510    5.7530   13.4550 N.3    83  SER83      -0.1217
     46  CA        -6.6050    4.6640   14.4050 C.3    83  SER83       0.1889
     47  C         -5.6040    4.8360   15.5470 C.2    83  SER83       0.2288
     48  O         -4.6690    5.6340   15.4620 O.2    83  SER83      -0.2866
     49  CB        -6.4070    3.3260   13.7110 C.3    83  SER83       0.2089
     50  OG        -5.0840    3.2240   13.2340 O.3    83  SER83      -0.2183
     51  N         -8.9720   -1.4100   14.4220 N.3   116  PHE116     -0.1241
     52  CA        -8.1790   -2.6070   14.6890 C.3   116  PHE116      0.1605
     53  C         -9.0790   -3.7770   15.0730 C.2   116  PHE116      0.2264
     54  O         -8.8660   -4.9090   14.6280 O.2   116  PHE116     -0.2867
     55  CB        -7.1510   -2.3260   15.7920 C.3   116  PHE116      0.0534
     56  CG        -6.0190   -1.4290   15.3600 C.ar  116  PHE116     -0.0203
     57  CD1       -5.0830   -1.8680   14.4640 C.ar  116  PHE116     -0.0042
     58  CD2       -5.8920   -0.1480   15.8630 C.ar  116  PHE116     -0.0042
     59  CE1       -4.0440   -1.0480   14.0700 C.ar  116  PHE116     -0.0003
     60  CE2       -4.8610    0.6610   15.4780 C.ar  116  PHE116     -0.0003
     61  CZ        -3.9450    0.2200   14.5650 C.ar  116  PHE116     -0.0000
     62  N          1.0670   -4.6490   15.1980 N.3   125  LEU125     -0.1245
     63  CA         1.9820   -3.9860   14.2820 C.3   125  LEU125      0.1561
     64  C          3.4170   -4.1610   14.7620 C.2   125  LEU125      0.2260
     65  O          3.6760   -4.2820   15.9610 O.2   125  LEU125     -0.2867
     66  CB         1.6750   -2.5040   14.1470 C.3   125  LEU125      0.0270
     67  CG         0.6260   -2.1250   13.0910 C.3   125  LEU125      0.0019
     68  CD1       -0.7910   -2.6760   13.4160 C.3   125  LEU125      0.0001
     69  CD2        0.6170   -0.6320   12.9360 C.3   125  LEU125      0.0001
     70  N         11.0430    9.2790   10.4110 N.3   194  PHE194     -0.1241
     71  CA        10.5800    8.4610    9.3040 C.3   194  PHE194      0.1605
     72  C         11.7140    8.2070    8.3270 C.2   194  PHE194      0.2264
     73  O         12.7670    8.8470    8.3690 O.2   194  PHE194     -0.2867
     74  CB         9.4280    9.1400    8.5460 C.3   194  PHE194      0.0534
     75  CG         8.1980    9.4070    9.3680 C.ar  194  PHE194     -0.0203
     76  CD1        7.8270   10.6970    9.6530 C.ar  194  PHE194     -0.0042
     77  CD2        7.3870    8.3830    9.8140 C.ar  194  PHE194     -0.0042
     78  CE1        6.6880   10.9500   10.3730 C.ar  194  PHE194     -0.0003
     79  CE2        6.2600    8.6500   10.5270 C.ar  194  PHE194     -0.0003
     80  CZ         5.9240    9.9320   10.8190 C.ar  194  PHE194     -0.0000
     81  N          7.5740   10.0480    2.7030 N.3   217  ILE217     -0.1245
     82  CA         8.0740    8.9540    3.5210 C.3   217  ILE217      0.1561
     83  C          7.7440    7.6240    2.8620 C.2   217  ILE217      0.2260
     84  O          6.6920    7.4620    2.2350 O.2   217  ILE217     -0.2867
     85  CB         7.5240    9.0190    4.9570 C.3   217  ILE217      0.0252
     86  CG1        6.0160    8.7520    4.9900 C.3   217  ILE217      0.0019
     87  CG2        7.8560   10.3690    5.5940 C.3   217  ILE217      0.0019
     88  CD1        5.4880    8.5280    6.3860 C.3   217  ILE217      0.0001
     89  N          6.5000    4.1570    3.5210 N.3   219  ASP219     -0.1239
     90  CA         5.6090    3.7370    4.6140 C.3   219  ASP219      0.1674
     91  C          4.8350    2.4700    4.2390 C.2   219  ASP219      0.2266
     92  O          3.7580    2.5440    3.6360 O.2   219  ASP219     -0.2867
     93  CB         4.6470    4.8510    4.9740 C.3   219  ASP219      0.1410
     94  CG         3.8250    4.5170    6.1940 C.2   219  ASP219      0.3668
     95  OD1        2.9690    5.3390    6.5970 O.co2 219  ASP219     -0.2456
     96  OD2        4.0310    3.4100    6.7410 O.co2 219  ASP219     -0.2456
     97  N          3.1160    0.7900    6.1250 N.3   221  GLY221     -0.1210
     98  CA         1.9470    0.7530    6.9710 C.3   221  GLY221      0.1956
     99  C          0.7940    1.5960    6.4830 C.2   221  GLY221      0.2612
    100  O         -0.2640    1.5900    7.1120 O.2   221  GLY221     -0.2717
    101  N          0.9820    2.3220    5.3770 N.am  222  THR222     -0.1952
    102  CA        -0.0720    3.0440    4.6740 C.3   222  THR222      0.1897
    103  C         -0.3940    2.3370    3.3600 C.2   222  THR222      0.2313
    104  O          0.5170    1.9720    2.6090 O.2   222  THR222     -0.2863
    105  CB         0.3730    4.4940    4.4140 C.3   222  THR222      0.1794
    106  OG1        0.4730    5.1990    5.6530 O.3   222  THR222     -0.2208
    107  CG2       -0.6170    5.2260    3.4900 C.3   222  THR222      0.0378
    108  N         -3.1460   15.8850    5.1740 N.3   300  ILE300     -0.1245
    109  CA        -2.3890   14.8560    5.8880 C.3   300  ILE300      0.1561
    110  C         -1.1480   15.4600    6.5220 C.2   300  ILE300      0.2260
    111  O         -0.7180   15.0430    7.6070 O.2   300  ILE300     -0.2867
    112  CB        -2.0250   13.6900    4.9450 C.3   300  ILE300      0.0252
    113  CG1       -3.2780   12.8790    4.5590 C.3   300  ILE300      0.0019
    114  CG2       -1.0250   12.7280    5.5880 C.3   300  ILE300      0.0019
    115  CD1       -4.1300   13.5270    3.4960 C.3   300  ILE300      0.0001
    116  N          1.9280   15.3970    5.1440 N.3   302  ILE302     -0.1245
    117  CA         3.1460   14.7840    4.6290 C.3   302  ILE302      0.1561
    118  C          2.7670   13.9160    3.4450 C.2   302  ILE302      0.2260
    119  O          1.6570   13.3810    3.3840 O.2   302  ILE302     -0.2867
    120  CB         3.8480   13.9640    5.7390 C.3   302  ILE302      0.0252
    121  CG1        5.2100   13.4800    5.2450 C.3   302  ILE302      0.0019
    122  CG2        2.9760   12.7990    6.1750 C.3   302  ILE302      0.0019
    123  CD1        6.2180   13.4020    6.3540 C.3   302  ILE302      0.0001
    124  N          3.0990   10.4750    1.3740 N.3   304  ILE304     -0.1245
    125  CA         3.3070    9.1160    1.8690 C.3   304  ILE304      0.1561
    126  C          3.3870    8.1830    0.6760 C.2   304  ILE304      0.2260
    127  O          2.3970    7.9950   -0.0450 O.2   304  ILE304     -0.2867
    128  CB         2.2120    8.6760    2.8490 C.3   304  ILE304      0.0252
    129  CG1        2.1440    9.6360    4.0260 C.3   304  ILE304      0.0019
    130  CG2        2.5150    7.2650    3.3890 C.3   304  ILE304      0.0019
    131  CD1        1.0040    9.3760    4.9730 C.3   304  ILE304      0.0001
@<TRIPOS>BOND
     1   127   126    2
     2   126   125    1
     3   124   125    1
     4   125   128    1
     5    84    83    2
     6   104   103    2
     7    81    82    1
     8   128   130    1
     9   128   129    1
    10    83    82    1
    11   103   102    1
    12   119   118    2
    13   118   117    1
    14   107   105    1
    15   115   113    1
    16    82    85    1
    17    89    90    1
    18    92    91    2
    19   129   131    1
    20    91    90    1
    21   105   102    1
    22   105   106    1
    23   113   112    1
    24    90    93    1
    25   117   116    1
    26   117   120    1
    27   102   101    1
    28   112   114    1
    29   112   109    1
    30    85    86    1
    31    85    87    1
    32    93    94    1
    33    86    88    1
    34   108   109    1
    35   121   120    1
    36   121   123    1
    37   101    99   am
    38   120   122    1
    39   109   110    1
    40    97    98    1
    41    94    95   ar
    42    94    96   ar
    43    99    98    1
    44    99   100    2
    45   110   111    2
    46     7     6   ar
    47    72    73    2
    48    72    71    1
    49    74    71    1
    50    74    75    1
    51    36    35    2
    52    41    38    1
    53    41    42    1
    54    17    18    1
    55     8     6   ar
    56     6     5    1
    57    71    70    1
    58    18    19    1
    59    38    37    1
    60    38    39    1
    61    75    76   ar
    62    75    77   ar
    63    35    37   am
    64    35    34    1
    65    15    14   ar
    66    10    11    1
    67    10     9    1
    68    10    13    1
    69    11    12    2
    70    44    42   ar
    71    76    78   ar
    72    77    79   ar
    73    42    43   ar
    74    34    33    1
    75     2     5    1
    76     2     3    1
    77     2     1    1
    78     3     4    2
    79    40    39    2
    80    78    80   ar
    81    14    13    1
    82    14    16   ar
    83    79    80   ar
    84    19    20    2
    85    33    23   am
    86    23    24    2
    87    23    22    1
    88    25    22    1
    89    25    26    1
    90    69    67    1
    91    67    68    1
    92    67    66    1
    93    22    21    1
    94    50    49    1
    95    28    26   ar
    96    28    30   ar
    97    45    46    1
    98    26    27   ar
    99    49    46    1
   100    59    57   ar
   101    59    61   ar
   102    30    31   ar
   103    66    63    1
   104    63    64    1
   105    63    62    1
   106    46    47    1
   107    51    52    1
   108    27    29   ar
   109    57    56   ar
   110    61    60   ar
   111    54    53    2
   112    52    53    1
   113    52    55    1
   114    64    65    2
   115    31    29   ar
   116    31    32    1
   117    56    55    1
   118    56    58   ar
   119    48    47    2
   120    60    58   ar
