@<TRIPOS>MOLECULE
tmp/5og9B02.pdb
 153 144 0 0 0
SMALL
GASTEIGER

@<TRIPOS>ATOM
      1  N         38.8350   24.8960  130.6740 N.3    67  LYS67      -0.1231
      2  CA        38.8580   23.5140  131.0780 C.3    67  LYS67       0.1693
      3  C         39.5070   22.6790  130.0000 C.2    67  LYS67       0.2592
      4  O         39.2250   22.8420  128.8210 O.2    67  LYS67      -0.2718
      5  CB        37.4200   23.0110  131.3640 C.3    67  LYS67       0.0285
      6  CG        37.2960   21.4940  131.3720 C.3    67  LYS67       0.0035
      7  CD        36.1070   20.9950  132.2040 C.3    67  LYS67       0.0206
      8  CE        35.9270   19.4810  131.9680 C.3    67  LYS67       0.1093
      9  NZ        35.2150   18.8180  133.1050 N.3    67  LYS67      -0.1314
     10  N         40.3430   21.7480  130.4290 N.am   68  ASN68      -0.1960
     11  CA        41.0380   20.8060  129.5620 C.3    68  ASN68       0.1819
     12  C         40.6080   19.3430  129.8540 C.2    68  ASN68       0.2621
     13  O         40.3420   19.0200  130.9880 O.2    68  ASN68      -0.2715
     14  CB        42.5430   20.9230  129.8190 C.3    68  ASN68       0.1195
     15  CG        43.3560   20.0530  128.8910 C.2    68  ASN68       0.2630
     16  OD1       43.2220   20.1490  127.6950 O.2    68  ASN68      -0.2716
     17  ND2       44.1920   19.1880  129.4460 N.am   68  ASN68      -0.0877
     18  N         40.4650   18.5390  128.8190 N.am   69  LEU69      -0.1963
     19  CA        40.2620   17.0980  128.9270 C.3    69  LEU69       0.1728
     20  C         41.6290   16.4760  128.6230 C.2    69  LEU69       0.2616
     21  O         42.1730   16.7050  127.5510 O.2    69  LEU69      -0.2715
     22  CB        39.2340   16.5890  127.9040 C.3    69  LEU69       0.0311
     23  CG        37.7450   16.9230  128.0540 C.3    69  LEU69       0.0022
     24  CD1       37.4870   18.1980  128.8040 C.3    69  LEU69       0.0001
     25  CD2       37.0500   16.8830  126.7100 C.3    69  LEU69       0.0001
     26  N         42.1770   15.7100  129.5510 N.am   70  ILE70      -0.1977
     27  CA        43.5400   15.1950  129.3700 C.3    70  ILE70       0.1596
     28  C         43.6080   14.1000  128.3270 C.2    70  ILE70       0.2287
     29  O         42.8000   13.1430  128.3590 O.2    70  ILE70      -0.2864
     30  CB        44.1290   14.6400  130.6620 C.3    70  ILE70       0.0276
     31  CG1       44.0180   15.6770  131.7730 C.3    70  ILE70       0.0022
     32  CG2       45.5880   14.2250  130.4260 C.3    70  ILE70       0.0022
     33  CD1       43.6780   15.0570  133.1050 C.3    70  ILE70       0.0001
     34  N         43.7170   10.4410  129.1970 N.3    73  LEU73      -0.1245
     35  CA        42.4420    9.8770  129.6290 C.3    73  LEU73       0.1561
     36  C         41.3270    9.9170  128.5700 C.2    73  LEU73       0.2260
     37  O         40.1540   10.0070  128.9180 O.2    73  LEU73      -0.2867
     38  CB        41.9850   10.5780  130.9100 C.3    73  LEU73       0.0270
     39  CG        42.5380    9.9660  132.1920 C.3    73  LEU73       0.0019
     40  CD1       44.0560   10.0450  132.2560 C.3    73  LEU73       0.0001
     41  CD2       41.9080   10.6350  133.3960 C.3    73  LEU73       0.0001
     42  N         38.0720    8.0830  128.9610 N.3    76  VAL76      -0.1245
     43  CA        36.9320    8.7010  129.6540 C.3    76  VAL76       0.1561
     44  C         36.0080    9.4010  128.6420 C.2    76  VAL76       0.2260
     45  O         34.8050    9.1500  128.6470 O.2    76  VAL76      -0.2867
     46  CB        37.3090    9.6650  130.8120 C.3    76  VAL76       0.0252
     47  CG1       38.2220    8.9730  131.8150 C.3    76  VAL76       0.0019
     48  CG2       37.9560   10.9520  130.3290 C.3    76  VAL76       0.0019
     49  N         31.9860    8.6920  128.2230 N.3    80  PHE80      -0.1241
     50  CA        31.0660    9.7220  128.6600 C.3    80  PHE80       0.1605
     51  C         30.6520   10.6470  127.5150 C.2    80  PHE80       0.2264
     52  O         29.8720   11.5890  127.7220 O.2    80  PHE80      -0.2867
     53  CB        31.7500   10.5650  129.7390 C.3    80  PHE80       0.0534
     54  CG        31.9140    9.8750  131.0610 C.ar   80  PHE80      -0.0203
     55  CD1       30.8120    9.6330  131.8870 C.ar   80  PHE80      -0.0042
     56  CD2       33.1840    9.5710  131.5540 C.ar   80  PHE80      -0.0042
     57  CE1       30.9760    9.0170  133.1220 C.ar   80  PHE80      -0.0003
     58  CE2       33.3530    8.9660  132.8160 C.ar   80  PHE80      -0.0003
     59  CZ        32.2460    8.7000  133.5960 C.ar   80  PHE80      -0.0000
     60  N         30.5230   16.6100  131.6690 N.3    85  ILE85      -0.1231
     61  CA        31.8040   16.6120  132.3220 C.3    85  ILE85       0.1692
     62  C         32.9430   16.3320  131.3050 C.2    85  ILE85       0.2592
     63  O         34.1020   16.5700  131.6080 O.2    85  ILE85      -0.2718
     64  CB        31.7760   15.6610  133.5680 C.3    85  ILE85       0.0266
     65  CG1       32.7380   16.0710  134.6860 C.3    85  ILE85       0.0019
     66  CG2       32.1160   14.2400  133.2170 C.3    85  ILE85       0.0020
     67  CD1       32.4070   15.4070  136.0180 C.3    85  ILE85       0.0001
     68  N         32.6470   15.8290  130.1220 N.am   86  THR86      -0.1953
     69  CA        33.7300   15.4680  129.1960 C.3    86  THR86       0.1897
     70  C         33.6000   16.1790  127.8640 C.2    86  THR86       0.2313
     71  O         34.1400   15.7520  126.8770 O.2    86  THR86      -0.2863
     72  CB        33.7740   13.9630  128.9670 C.3    86  THR86       0.1794
     73  OG1       32.4540   13.5040  128.5980 O.3    86  THR86      -0.2208
     74  CG2       34.2130   13.2450  130.2490 C.3    86  THR86       0.0378
     75  N         27.2840    8.3080  137.4020 N.3   261  ILE261     -0.1231
     76  CA        28.5970    8.0840  137.9540 C.3   261  ILE261      0.1692
     77  C         29.0820    9.2920  138.7390 C.2   261  ILE261      0.2591
     78  O         29.3670    9.2010  139.9050 O.2   261  ILE261     -0.2718
     79  CB        29.5790    7.6890  136.8510 C.3   261  ILE261      0.0266
     80  CG1       29.1360    6.3240  136.3140 C.3   261  ILE261      0.0019
     81  CG2       31.0010    7.7050  137.3920 C.3   261  ILE261      0.0020
     82  CD1       29.8770    5.8060  135.0810 C.3   261  ILE261      0.0001
     83  N         29.0770   10.4560  138.1260 N.am  262  ALA262     -0.1980
     84  CA        29.5740   11.6680  138.7970 C.3   262  ALA262      0.1597
     85  C         28.6560   12.0450  139.8580 C.2   262  ALA262      0.2287
     86  O         29.0250   12.7170  140.7850 O.2   262  ALA262     -0.2864
     87  CB        29.7430   12.8090  137.7990 C.3   262  ALA262      0.0319
     88  N         29.7350    8.9170  143.0790 N.3   265  GLU265     -0.1231
     89  CA        31.0410    8.4710  143.5700 C.3   265  GLU265      0.1699
     90  C         31.7220    9.3990  144.5260 C.2   265  GLU265      0.2592
     91  O         32.1230    8.9500  145.6000 O.2   265  GLU265     -0.2718
     92  CB        32.0390    8.1240  142.4590 C.3   265  GLU265      0.0402
     93  CG        33.2440    7.3500  142.9880 C.3   265  GLU265      0.1161
     94  CD        33.9780    6.5830  141.8880 C.2   265  GLU265      0.3649
     95  OE1       33.3140    6.0180  140.9680 O.co2 265  GLU265     -0.2457
     96  OE2       35.2220    6.5390  141.9470 O.co2 265  GLU265     -0.2457
     97  N         31.8850   10.6590  144.1510 N.am  266  THR266     -0.1953
     98  CA        32.5470   11.6390  144.9920 C.3   266  THR266      0.1897
     99  C         31.7450   11.9550  146.2340 C.2   266  THR266      0.2313
    100  O         32.3200   12.3220  147.2560 O.2   266  THR266     -0.2863
    101  CB        32.7550   12.9510  144.2620 C.3   266  THR266      0.1794
    102  OG1       31.5670   13.2650  143.5390 O.3   266  THR266     -0.2208
    103  CG2       33.8710   12.8040  143.2550 C.3   266  THR266      0.0378
    104  N         37.2300   14.4750  144.2740 N.3   326  ALA326     -0.1245
    105  CA        37.7980   14.5880  142.9110 C.3   326  ALA326      0.1562
    106  C         39.0340   15.4680  142.9920 C.2   326  ALA326      0.2260
    107  O         38.8930   16.6970  142.9960 O.2   326  ALA326     -0.2867
    108  CB        36.7920   15.2170  141.9390 C.3   326  ALA326      0.0290
    109  N         41.7490   16.4940  141.3870 N.3   328  ALA328     -0.1231
    110  CA        42.4390   17.2860  140.4170 C.3   328  ALA328      0.1694
    111  C         41.5210   17.6810  139.2710 C.2   328  ALA328      0.2592
    112  O         40.6710   16.8960  138.8420 O.2   328  ALA328     -0.2718
    113  CB        43.6410   16.5060  139.9030 C.3   328  ALA328      0.0304
    114  N         41.7100   18.8790  138.7510 N.am  329  PHE329     -0.1962
    115  CA        41.1640   19.2120  137.4280 C.3   329  PHE329      0.1771
    116  C         42.1970   19.8200  136.4950 C.2   329  PHE329      0.2620
    117  O         43.2590   20.2580  136.9280 O.2   329  PHE329     -0.2715
    118  CB        39.9210   20.0740  137.5280 C.3   329  PHE329      0.0574
    119  CG        40.0830   21.3630  138.2300 C.ar  329  PHE329     -0.0200
    120  CD1       39.9710   21.4410  139.6130 C.ar  329  PHE329     -0.0042
    121  CD2       40.2010   22.5360  137.5170 C.ar  329  PHE329     -0.0042
    122  CE1       40.0870   22.6450  140.2590 C.ar  329  PHE329     -0.0003
    123  CE2       40.2820   23.7430  138.1620 C.ar  329  PHE329     -0.0003
    124  CZ        40.2220   23.8010  139.5200 C.ar  329  PHE329     -0.0000
    125  N         41.8830   19.8540  135.2110 N.am  330  SER330     -0.1950
    126  CA        42.8480   20.2620  134.2160 C.3   330  SER330      0.1924
    127  C         42.3780   21.4870  133.4550 C.2   330  SER330      0.2314
    128  O         41.1680   21.6570  133.1690 O.2   330  SER330     -0.2863
    129  CB        43.1060   19.1370  133.2140 C.3   330  SER330      0.2116
    130  OG        44.2430   19.4260  132.4530 O.3   330  SER330     -0.2180
    131  N         47.4830   21.1990  135.5940 N.3   352  MET352     -0.1245
    132  CA        46.7060   20.3640  136.5090 C.3   352  MET352      0.1570
    133  C         46.6870   21.0550  137.8630 C.2   352  MET352      0.2261
    134  O         47.7200   21.5450  138.3060 O.2   352  MET352     -0.2867
    135  CB        47.3040   18.9970  136.7010 C.3   352  MET352      0.0387
    136  CG        47.3050   18.0770  135.5140 C.3   352  MET352      0.0595
    137  SD        45.7210   17.6680  134.8140 S.3   352  MET352     -0.1393
    138  CE        44.8840   16.8330  136.1780 C.3   352  MET352      0.0692
    139  N         39.7340    7.2750  139.8030 N.3   435  LEU435     -0.1231
    140  CA        39.8130    8.6830  139.4180 C.3   435  LEU435      0.1693
    141  C         39.3350    9.5340  140.5800 C.2   435  LEU435      0.2592
    142  O         39.4540   10.7510  140.5450 O.2   435  LEU435     -0.2718
    143  CB        38.9880    8.9890  138.1660 C.3   435  LEU435      0.0284
    144  CG        39.5280    8.6400  136.7770 C.3   435  LEU435      0.0019
    145  CD1       40.3290    7.3570  136.8580 C.3   435  LEU435      0.0001
    146  CD2       38.3940    8.5170  135.7440 C.3   435  LEU435      0.0001
    147  N         38.8190    8.8930  141.6310 N.am  436  THR436     -0.1953
    148  CA        38.4380    9.6090  142.8600 C.3   436  THR436      0.1897
    149  C         39.1240    8.9360  144.0330 C.2   436  THR436      0.2313
    150  O         39.8120    7.9180  143.8640 O.2   436  THR436     -0.2863
    151  CB        36.9020    9.5550  143.0420 C.3   436  THR436      0.1794
    152  OG1       36.4870    8.1760  143.1670 O.3   436  THR436     -0.2208
    153  CG2       36.2490   10.1100  141.8180 C.3   436  THR436      0.0378
@<TRIPOS>BOND
     1    25    23    1
     2    71    70    2
     3    51    52    2
     4    51    50    1
     5    21    20    2
     6    16    15    2
     7    70    69    1
     8    22    23    1
     9    22    19    1
    10    23    24    1
    11    49    50    1
    12    28    29    2
    13    28    27    1
    14    36    37    2
    15    36    35    1
    16    73    72    1
    17    20    19    1
    18    20    26   am
    19    44    45    2
    20    44    43    1
    21    50    53    1
    22    18    19    1
    23    18    12   am
    24     4     3    2
    25    15    17   am
    26    15    14    1
    27    42    43    1
    28    72    69    1
    29    72    74    1
    30    69    68    1
    31    34    35    1
    32    27    26    1
    33    27    30    1
    34    11    14    1
    35    11    12    1
    36    11    10    1
    37    35    38    1
    38    43    46    1
    39    53    54    1
    40    12    13    2
    41     3    10   am
    42     3     2    1
    43    68    62   am
    44    48    46    1
    45    32    30    1
    46    30    31    1
    47     1     2    1
    48    46    47    1
    49    38    39    1
    50    54    56   ar
    51    54    55   ar
    52     2     5    1
    53    62    63    2
    54    62    61    1
    55     5     6    1
    56     6     7    1
    57    56    58   ar
    58    60    61    1
    59    31    33    1
    60    55    57   ar
    61     8     7    1
    62     8     9    1
    63    39    40    1
    64    39    41    1
    65    61    64    1
    66   130   129    1
    67    58    59   ar
    68    57    59   ar
    69   128   127    2
    70   129   126    1
    71    66    64    1
    72   127   126    1
    73    64    65    1
    74   126   125    1
    75    65    67    1
    76   137   136    1
    77   137   138    1
    78    82    80    1
    79   125   116   am
    80   136   135    1
    81   131   132    1
    82   146   144    1
    83    80    79    1
    84   116   117    2
    85   116   115    1
    86   132   135    1
    87   132   133    1
    88   144   145    1
    89   144   143    1
    90    79    81    1
    91    79    76    1
    92    75    76    1
    93   115   118    1
    94   115   114    1
    95   121   123   ar
    96   121   119   ar
    97   118   119    1
    98    87    84    1
    99   133   134    2
   100    76    77    1
   101    83    77   am
   102    83    84    1
   103   123   124   ar
   104   143   140    1
   105   119   120   ar
   106    77    78    2
   107   114   111   am
   108    84    85    1
   109   112   111    2
   110   111   110    1
   111   140   139    1
   112   140   141    1
   113   124   122   ar
   114   120   122   ar
   115    85    86    2
   116   113   110    1
   117   110   109    1
   118   142   141    2
   119   141   147   am
   120    95    94   ar
   121   147   148    1
   122   153   151    1
   123    94    96   ar
   124    94    93    1
   125   108   105    1
   126    92    93    1
   127    92    89    1
   128   148   151    1
   129   148   149    1
   130   105   106    1
   131   105   104    1
   132   106   107    2
   133   151   152    1
   134    88    89    1
   135   103   101    1
   136   102   101    1
   137    89    90    1
   138   150   149    2
   139    97    90   am
   140    97    98    1
   141   101    98    1
   142    90    91    2
   143    98    99    1
   144    99   100    2
