@<TRIPOS>MOLECULE
tmp/5og9B01.pdb
 170 163 0 0 0
SMALL
GASTEIGER

@<TRIPOS>ATOM
      1  N         57.2440    8.9790  133.9930 N.3    15  LEU15      -0.1245
      2  CA        56.1710    7.9860  134.0100 C.3    15  LEU15       0.1561
      3  C         56.3520    6.8340  135.0180 C.2    15  LEU15       0.2260
      4  O         55.4020    6.4800  135.7140 O.2    15  LEU15      -0.2867
      5  CB        55.9010    7.4410  132.6070 C.3    15  LEU15       0.0270
      6  CG        54.7180    6.4740  132.4810 C.3    15  LEU15       0.0019
      7  CD1       53.4060    7.1280  132.8860 C.3    15  LEU15       0.0001
      8  CD2       54.5970    5.9020  131.0750 C.3    15  LEU15       0.0001
      9  N         54.7470    7.0880  138.5210 N.3    18  LEU18      -0.1245
     10  CA        53.3390    6.7770  138.7100 C.3    18  LEU18       0.1561
     11  C         53.0290    5.2970  138.6050 C.2    18  LEU18       0.2260
     12  O         51.8750    4.9220  138.3900 O.2    18  LEU18      -0.2867
     13  CB        52.4730    7.5200  137.6950 C.3    18  LEU18       0.0270
     14  CG        52.6430    9.0380  137.7010 C.3    18  LEU18       0.0019
     15  CD1       51.6480    9.6350  136.7190 C.3    18  LEU18       0.0001
     16  CD2       52.5070    9.6860  139.0850 C.3    18  LEU18       0.0001
     17  N         48.8490    7.3660  142.8720 N.3    23  PRO23      -0.2102
     18  CA        49.5070    8.4330  142.1430 C.3    23  PRO23       0.1504
     19  C         49.2410    9.8220  142.6680 C.2    23  PRO23       0.2575
     20  O         50.1480   10.6290  142.7190 O.2    23  PRO23      -0.2718
     21  CB        48.9480    8.2960  140.7200 C.3    23  PRO23       0.0282
     22  CG        47.7400    7.4080  140.8210 C.3    23  PRO23       0.0208
     23  CD        47.9870    6.5350  142.0010 C.3    23  PRO23       0.0893
     24  N         48.0080   10.1270  143.0530 N.am   24  VAL24      -0.1980
     25  CA        47.7160   11.4570  143.5640 C.3    24  VAL24       0.1595
     26  C         48.4820   11.7150  144.8380 C.2    24  VAL24       0.2287
     27  O         49.0080   12.8040  145.0150 O.2    24  VAL24      -0.2864
     28  CB        46.2150   11.6840  143.8150 C.3    24  VAL24       0.0276
     29  CG1       45.9990   12.9760  144.5770 C.3    24  VAL24       0.0022
     30  CG2       45.4870   11.7180  142.4880 C.3    24  VAL24       0.0022
     31  N         52.0290   12.2890  143.8540 N.3    27  LEU27      -0.1245
     32  CA        52.1340   13.6600  143.3900 C.3    27  LEU27       0.1561
     33  C         52.1070   14.6620  144.5200 C.2    27  LEU27       0.2260
     34  O         52.7700   15.6980  144.4280 O.2    27  LEU27      -0.2867
     35  CB        51.0250   13.9760  142.3830 C.3    27  LEU27       0.0270
     36  CG        51.2040   13.2070  141.1140 C.3    27  LEU27       0.0019
     37  CD1       49.9210   13.1950  140.3460 C.3    27  LEU27       0.0001
     38  CD2       52.3360   13.7880  140.2900 C.3    27  LEU27       0.0001
     39  N         52.8860   12.6870  126.7040 N.3    45  TRP45      -0.1241
     40  CA        52.2310   13.8990  127.2400 C.3    45  TRP45       0.1605
     41  C         53.0160   14.5890  128.3100 C.2    45  TRP45       0.2264
     42  O         53.8960   14.0140  128.9320 O.2    45  TRP45      -0.2867
     43  CB        50.8140   13.5990  127.7710 C.3    45  TRP45       0.0550
     44  CG        50.8040   12.5170  128.7610 C.ar   45  TRP45       0.0003
     45  CD1       50.6200   11.1780  128.5110 C.ar   45  TRP45       0.0946
     46  CD2       51.0400   12.6390  130.1710 C.ar   45  TRP45       0.0152
     47  NE1       50.7210   10.4590  129.6880 N.ar   45  TRP45      -0.2442
     48  CE2       50.9650   11.3340  130.7210 C.ar   45  TRP45       0.0810
     49  CE3       51.2870   13.7190  131.0290 C.ar   45  TRP45       0.0012
     50  CZ2       51.1310   11.0940  132.0790 C.ar   45  TRP45       0.0191
     51  CZ3       51.4590   13.4730  132.3950 C.ar   45  TRP45       0.0001
     52  CH2       51.3830   12.1700  132.9020 C.ar   45  TRP45       0.0015
     53  N         52.4960   17.8980  131.4150 N.3    47  THR47      -0.1218
     54  CA        51.6510   18.7830  132.1000 C.3    47  THR47       0.1862
     55  C         52.4410   19.3900  133.2250 C.2    47  THR47       0.2287
     56  O         53.5630   18.9420  133.5180 O.2    47  THR47      -0.2866
     57  CB        50.4040   18.0250  132.6400 C.3    47  THR47       0.1770
     58  OG1       49.4410   18.9810  133.1640 O.3    47  THR47      -0.2211
     59  CG2       50.8410   17.0260  133.6750 C.3    47  THR47       0.0375
     60  N         51.8750   20.7040  137.2570 N.3    49  TRP49      -0.1241
     61  CA        51.0460   20.5210  138.4320 C.3    49  TRP49       0.1605
     62  C         51.1840   21.7270  139.3130 C.2    49  TRP49       0.2264
     63  O         52.2970   22.0780  139.7190 O.2    49  TRP49      -0.2867
     64  CB        51.4390   19.2440  139.2200 C.3    49  TRP49       0.0550
     65  CG        50.9990   18.0150  138.5640 C.ar   49  TRP49       0.0003
     66  CD1       51.6700   17.3000  137.6530 C.ar   49  TRP49       0.0946
     67  CD2       49.7390   17.3340  138.7610 C.ar   49  TRP49       0.0152
     68  NE1       50.9350   16.1940  137.2640 N.ar   49  TRP49      -0.2442
     69  CE2       49.7360   16.2050  137.9110 C.ar   49  TRP49       0.0810
     70  CE3       48.5990   17.6060  139.5320 C.ar   49  TRP49       0.0012
     71  CZ2       48.6430   15.3140  137.8260 C.ar   49  TRP49       0.0191
     72  CZ3       47.5260   16.7260  139.4720 C.ar   49  TRP49       0.0001
     73  CH2       47.5510   15.5930  138.6220 C.ar   49  TRP49       0.0015
     74  N         42.1770   15.7100  129.5510 N.3    70  ILE70      -0.1245
     75  CA        43.5400   15.1950  129.3700 C.3    70  ILE70       0.1561
     76  C         43.6080   14.1000  128.3270 C.2    70  ILE70       0.2260
     77  O         42.8000   13.1430  128.3590 O.2    70  ILE70      -0.2867
     78  CB        44.1290   14.6400  130.6620 C.3    70  ILE70       0.0252
     79  CG1       44.0180   15.6770  131.7730 C.3    70  ILE70       0.0019
     80  CG2       45.5880   14.2250  130.4260 C.3    70  ILE70       0.0019
     81  CD1       43.6780   15.0570  133.1050 C.3    70  ILE70       0.0001
     82  N         45.7600   11.7260  127.7800 N.3    72  ALA72      -0.1231
     83  CA        46.0230   10.4170  128.4000 C.3    72  ALA72       0.1694
     84  C         44.7530    9.6820  128.8440 C.2    72  ALA72       0.2591
     85  O         44.7250    8.4420  128.8680 O.2    72  ALA72      -0.2718
     86  CB        46.9690   10.5800  129.5820 C.3    72  ALA72       0.0304
     87  N         43.7170   10.4410  129.1970 N.am   73  LEU73      -0.1980
     88  CA        42.4420    9.8770  129.6290 C.3    73  LEU73       0.1596
     89  C         41.3270    9.9170  128.5700 C.2    73  LEU73       0.2287
     90  O         40.1540   10.0070  128.9180 O.2    73  LEU73      -0.2864
     91  CB        41.9850   10.5780  130.9100 C.3    73  LEU73       0.0297
     92  CG        42.5380    9.9660  132.1920 C.3    73  LEU73       0.0022
     93  CD1       44.0560   10.0450  132.2560 C.3    73  LEU73       0.0001
     94  CD2       41.9080   10.6350  133.3960 C.3    73  LEU73       0.0001
     95  N         42.4550    2.7880  133.3930 N.3   183  MET183     -0.1245
     96  CA        43.5510    3.4190  134.1110 C.3   183  MET183      0.1570
     97  C         44.8650    2.5850  134.0770 C.2   183  MET183      0.2261
     98  O         45.9710    3.1520  134.0190 O.2   183  MET183     -0.2867
     99  CB        43.1040    3.6390  135.5430 C.3   183  MET183      0.0387
    100  CG        43.9940    4.5420  136.3480 C.3   183  MET183      0.0595
    101  SD        43.4020    6.2470  136.2140 S.3   183  MET183     -0.1393
    102  CE        44.1810    6.8490  137.7120 C.3   183  MET183      0.0692
    103  N         47.2270    2.9390  130.8570 N.3   186  LEU186     -0.1245
    104  CA        48.1430    4.0470  130.8970 C.3   186  LEU186      0.1561
    105  C         49.6010    3.6280  131.1060 C.2   186  LEU186      0.2260
    106  O         50.5170    4.2480  130.5800 O.2   186  LEU186     -0.2867
    107  CB        47.7080    4.8710  132.0940 C.3   186  LEU186      0.0270
    108  CG        48.4590    6.1000  132.5240 C.3   186  LEU186      0.0019
    109  CD1       47.5240    7.2970  132.4220 C.3   186  LEU186      0.0001
    110  CD2       48.8490    5.7770  133.9510 C.3   186  LEU186      0.0001
    111  N         37.2300   14.4750  144.2740 N.3   326  ALA326     -0.1231
    112  CA        37.7980   14.5880  142.9110 C.3   326  ALA326      0.1679
    113  C         39.0340   15.4680  142.9920 C.2   326  ALA326      0.2434
    114  O         38.8930   16.6970  142.9960 O.2   326  ALA326     -0.2733
    115  CB        36.7920   15.2170  141.9390 C.3   326  ALA326      0.0304
    116  N         40.2410   14.8420  143.0690 N.am  327  PRO327     -0.2718
    117  CA        41.3540   15.5870  143.6290 C.3   327  PRO327      0.1535
    118  C         42.1280   16.4830  142.6470 C.2   327  PRO327      0.2598
    119  O         43.0410   17.1850  143.0620 O.2   327  PRO327     -0.2715
    120  CB        42.2650   14.5030  144.1560 C.3   327  PRO327      0.0310
    121  CG        41.9870   13.3380  143.2400 C.3   327  PRO327      0.0237
    122  CD        40.5420   13.4010  142.9650 C.3   327  PRO327      0.0939
    123  N         41.7490   16.4940  141.3870 N.am  328  ALA328     -0.1964
    124  CA        42.4390   17.2860  140.4170 C.3   328  ALA328      0.1728
    125  C         41.5210   17.6810  139.2710 C.2   328  ALA328      0.2616
    126  O         40.6710   16.8960  138.8420 O.2   328  ALA328     -0.2715
    127  CB        43.6410   16.5060  139.9030 C.3   328  ALA328      0.0334
    128  N         41.7100   18.8790  138.7510 N.am  329  PHE329     -0.1974
    129  CA        41.1640   19.2120  137.4280 C.3   329  PHE329      0.1639
    130  C         42.1970   19.8200  136.4950 C.2   329  PHE329      0.2290
    131  O         43.2590   20.2580  136.9280 O.2   329  PHE329     -0.2864
    132  CB        39.9210   20.0740  137.5280 C.3   329  PHE329      0.0560
    133  CG        40.0830   21.3630  138.2300 C.ar  329  PHE329     -0.0200
    134  CD1       39.9710   21.4410  139.6130 C.ar  329  PHE329     -0.0042
    135  CD2       40.2010   22.5360  137.5170 C.ar  329  PHE329     -0.0042
    136  CE1       40.0870   22.6450  140.2590 C.ar  329  PHE329     -0.0003
    137  CE2       40.2820   23.7430  138.1620 C.ar  329  PHE329     -0.0003
    138  CZ        40.2220   23.8010  139.5200 C.ar  329  PHE329     -0.0000
    139  N         47.4830   21.1990  135.5940 N.3   352  MET352     -0.1245
    140  CA        46.7060   20.3640  136.5090 C.3   352  MET352      0.1570
    141  C         46.6870   21.0550  137.8630 C.2   352  MET352      0.2261
    142  O         47.7200   21.5450  138.3060 O.2   352  MET352     -0.2867
    143  CB        47.3040   18.9970  136.7010 C.3   352  MET352      0.0387
    144  CG        47.3050   18.0770  135.5140 C.3   352  MET352      0.0595
    145  SD        45.7210   17.6680  134.8140 S.3   352  MET352     -0.1393
    146  CE        44.8840   16.8330  136.1780 C.3   352  MET352      0.0692
    147  N         42.6440    4.9900  145.3520 N.3   433  GLU433     -0.1231
    148  CA        42.5070    5.9280  144.2760 C.3   433  GLU433      0.1699
    149  C         42.0130    5.2150  143.0640 C.2   433  GLU433      0.2593
    150  O         42.5530    4.1880  142.6750 O.2   433  GLU433     -0.2718
    151  CB        43.8380    6.5910  143.9580 C.3   433  GLU433      0.0402
    152  CG        44.5140    7.2550  145.1270 C.3   433  GLU433      0.1161
    153  CD        45.7110    8.1270  144.6890 C.2   433  GLU433      0.3649
    154  OE1       45.8010    8.4690  143.4920 O.co2 433  GLU433     -0.2457
    155  OE2       46.5370    8.5010  145.5540 O.co2 433  GLU433     -0.2457
    156  N         40.9560    5.7650  142.4830 N.am  434  THR434     -0.1939
    157  CA        40.5770    5.4360  141.1470 C.3   434  THR434      0.2028
    158  C         40.7680    6.7570  140.4030 C.2   434  THR434      0.2642
    159  O         41.8540    7.3490  140.4100 O.2   434  THR434     -0.2714
    160  CB        39.1420    4.8930  141.1500 C.3   434  THR434      0.1808
    161  OG1       38.3370    5.7630  141.9550 O.3   434  THR434     -0.2208
    162  CG2       39.1250    3.4720  141.7530 C.3   434  THR434      0.0379
    163  N         39.7340    7.2750  139.8030 N.am  435  LEU435     -0.1977
    164  CA        39.8130    8.6830  139.4180 C.3   435  LEU435      0.1596
    165  C         39.3350    9.5340  140.5800 C.2   435  LEU435      0.2287
    166  O         39.4540   10.7510  140.5450 O.2   435  LEU435     -0.2864
    167  CB        38.9880    8.9890  138.1660 C.3   435  LEU435      0.0297
    168  CG        39.5280    8.6400  136.7770 C.3   435  LEU435      0.0022
    169  CD1       40.3290    7.3570  136.8580 C.3   435  LEU435      0.0001
    170  CD2       38.3940    8.5170  135.7440 C.3   435  LEU435      0.0001
@<TRIPOS>BOND
     1    39    40    1
     2    40    43    1
     3    40    41    1
     4    43    44    1
     5    82    83    1
     6    41    42    2
     7    76    77    2
     8    76    75    1
     9    83    84    1
    10    83    86    1
    11    45    44   ar
    12    45    47   ar
    13    89    90    2
    14    89    88    1
    15    44    46   ar
    16    84    85    2
    17    84    87   am
    18    87    88    1
    19    75    74    1
    20    75    78    1
    21    88    91    1
    22    47    48   ar
    23    46    48   ar
    24    46    49   ar
    25    80    78    1
    26   106   105    2
    27    78    79    1
    28    48    50   ar
    29   103   104    1
    30   104   105    1
    31   104   107    1
    32    91    92    1
    33    49    51   ar
    34     8     6    1
    35    53    54    1
    36    79    81    1
    37    50    52   ar
    38   107   108    1
    39    54    57    1
    40    54    55    1
    41    92    93    1
    42    92    94    1
    43    51    52   ar
    44   109   108    1
    45     6     5    1
    46     6     7    1
    47   108   110    1
    48     5     2    1
    49    57    58    1
    50    57    59    1
    51    55    56    2
    52    95    96    1
    53     1     2    1
    54     2     3    1
    55    98    97    2
    56    97    96    1
    57    96    99    1
    58   145   144    1
    59   145   146    1
    60     3     4    2
    61   144   143    1
    62    99   100    1
    63   139   140    1
    64   170   168    1
    65   101   100    1
    66   101   102    1
    67   130   131    2
    68   130   129    1
    69   140   143    1
    70   140   141    1
    71    15    14    1
    72   168   169    1
    73   168   167    1
    74    60    61    1
    75    68    66   ar
    76    68    69   ar
    77   129   132    1
    78   129   128    1
    79   135   137   ar
    80   135   133   ar
    81   132   133    1
    82    66    65   ar
    83    13    14    1
    84    13    10    1
    85    14    16    1
    86    71    69   ar
    87    71    73   ar
    88   141   142    2
    89    69    67   ar
    90   137   138   ar
    91   167   164    1
    92   133   134   ar
    93    12    11    2
    94    61    64    1
    95    61    62    1
    96     9    10    1
    97    65    67   ar
    98    65    64    1
    99    11    10    1
   100    73    72   ar
   101   128   125   am
   102    67    70   ar
   103   126   125    2
   104   125   124    1
   105    62    63    2
   106   164   163    1
   107   164   165    1
   108    72    70   ar
   109   138   136   ar
   110   134   136   ar
   111   163   158   am
   112   127   124    1
   113    38    36    1
   114    37    36    1
   115   158   159    2
   116   158   157    1
   117   124   123    1
   118   166   165    2
   119    21    22    1
   120    21    18    1
   121    22    23    1
   122    36    35    1
   123   157   160    1
   124   157   156    1
   125   160   162    1
   126   160   161    1
   127   123   118   am
   128   115   112    1
   129    23    17    1
   130    18    19    1
   131    18    17    1
   132    35    32    1
   133   156   149   am
   134    30    28    1
   135   118   119    2
   136   118   117    1
   137    19    20    2
   138    19    24   am
   139   150   149    2
   140   112   113    1
   141   112   111    1
   142   122   116    1
   143   122   121    1
   144   113   114    2
   145   113   116   am
   146    24    25    1
   147   149   148    1
   148   116   117    1
   149   121   120    1
   150    32    31    1
   151    32    33    1
   152   154   153   ar
   153    25    28    1
   154    25    26    1
   155   117   120    1
   156    28    29    1
   157   151   148    1
   158   151   152    1
   159   148   147    1
   160    34    33    2
   161   153   152    1
   162   153   155   ar
   163    26    27    2
