@<TRIPOS>MOLECULE
tmp/5ogbA00.pdb
 188 172 0 0 0
SMALL
GASTEIGER

@<TRIPOS>ATOM
      1  N         -0.4200   10.5620    1.2940 N.3    15  PHE15      -0.1241
      2  CA        -0.4080    9.0810    1.3090 C.3    15  PHE15       0.1605
      3  C         -0.3250    8.5330    2.7310 C.2    15  PHE15       0.2264
      4  O         -1.1090    7.6740    3.1190 O.2    15  PHE15      -0.2867
      5  CB         0.7160    8.4570    0.4610 C.3    15  PHE15       0.0534
      6  CG         0.6310    6.9540    0.3740 C.ar   15  PHE15      -0.0203
      7  CD1       -0.5020    6.3420   -0.1220 C.ar   15  PHE15      -0.0042
      8  CD2        1.6770    6.1480    0.8130 C.ar   15  PHE15      -0.0042
      9  CE1       -0.5940    4.9470   -0.1890 C.ar   15  PHE15      -0.0003
     10  CE2        1.6050    4.7570    0.7390 C.ar   15  PHE15      -0.0003
     11  CZ         0.4680    4.1560    0.2540 C.ar   15  PHE15      -0.0000
     12  N         -3.2240    6.4290    5.0000 N.3    19  LEU19      -0.1245
     13  CA        -3.0000    5.2230    5.7480 C.3    19  LEU19       0.1561
     14  C         -3.2610    5.4530    7.2520 C.2    19  LEU19       0.2260
     15  O         -3.7870    4.5640    7.9270 O.2    19  LEU19      -0.2867
     16  CB        -1.5720    4.6780    5.5190 C.3    19  LEU19       0.0270
     17  CG        -1.1530    4.1970    4.1100 C.3    19  LEU19       0.0019
     18  CD1        0.2540    3.6880    4.1220 C.3    19  LEU19       0.0001
     19  CD2       -2.0740    3.1410    3.5410 C.3    19  LEU19       0.0001
     20  N         -3.7100    2.1240    9.9240 N.3    24  VAL24      -0.1245
     21  CA        -2.6440    1.2200    9.6480 C.3    24  VAL24       0.1561
     22  C         -1.6070    1.4310   10.7330 C.2    24  VAL24       0.2260
     23  O         -1.2710    2.5460   11.1130 O.2    24  VAL24      -0.2867
     24  CB        -2.0780    1.4380    8.2340 C.3    24  VAL24       0.0252
     25  CG1       -0.8330    0.6110    8.0140 C.3    24  VAL24       0.0019
     26  CG2       -3.1800    1.1560    7.2110 C.3    24  VAL24       0.0019
     27  N          4.0260   -0.7680   10.1550 N.3    28  LEU28      -0.1245
     28  CA         3.7210   -1.1290    8.7800 C.3    28  LEU28       0.1561
     29  C          3.5880    0.1320    7.9190 C.2    28  LEU28       0.2260
     30  O          3.9720    0.1220    6.7840 O.2    28  LEU28      -0.2867
     31  CB         2.4350   -1.9650    8.7170 C.3    28  LEU28       0.0270
     32  CG         2.5090   -3.3150    9.4160 C.3    28  LEU28       0.0019
     33  CD1        1.2520   -4.1110    9.1320 C.3    28  LEU28       0.0001
     34  CD2        3.7380   -4.0760    8.9270 C.3    28  LEU28       0.0001
     35  N          6.9350    1.3650    6.4510 N.3    31  ILE31      -0.1231
     36  CA         7.3730    0.4550    5.3580 C.3    31  ILE31       0.1692
     37  C          6.5070    0.7680    4.1290 C.2    31  ILE31       0.2591
     38  O          7.0320    0.9730    3.0800 O.2    31  ILE31      -0.2718
     39  CB         7.2970   -1.0380    5.7200 C.3    31  ILE31       0.0266
     40  CG1        8.2490   -1.4010    6.8770 C.3    31  ILE31       0.0019
     41  CG2        7.6890   -1.8900    4.5120 C.3    31  ILE31       0.0020
     42  CD1        7.8450   -2.6540    7.6080 C.3    31  ILE31       0.0001
     43  N          5.1940    0.9020    4.2800 N.am   32  ALA32      -0.1980
     44  CA         4.3020    1.1950    3.1420 C.3    32  ALA32       0.1597
     45  C          4.6160    2.5370    2.4510 C.2    32  ALA32       0.2287
     46  O          4.6120    2.6320    1.1990 O.2    32  ALA32      -0.2864
     47  CB         2.8510    1.1820    3.5970 C.3    32  ALA32       0.0319
     48  N          8.0210    2.2660    0.5210 N.3    35  ALA35      -0.1231
     49  CA         7.8310    1.4440   -0.6750 C.3    35  ALA35       0.1694
     50  C          7.0480    2.2040   -1.7580 C.2    35  ALA35       0.2591
     51  O          7.4150    2.1940   -2.9520 O.2    35  ALA35      -0.2718
     52  CB         7.1230    0.1510   -0.3060 C.3    35  ALA35       0.0304
     53  N          6.0270    2.9310   -1.3160 N.am   36  ALA36      -0.1980
     54  CA         5.2190    3.7680   -2.1870 C.3    36  ALA36       0.1597
     55  C          5.9350    4.9890   -2.7240 C.2    36  ALA36       0.2287
     56  O          5.4440    5.5940   -3.6490 O.2    36  ALA36      -0.2864
     57  CB         3.9440    4.1880   -1.4820 C.3    36  ALA36       0.0319
     58  N          7.3820    3.3720   -6.6470 N.3    39  PRO39      -0.2116
     59  CA         6.7480    2.2530   -7.3020 C.3    39  PRO39       0.1372
     60  C          7.0940    2.1610   -8.8020 C.2    39  PRO39       0.2244
     61  O          7.5160    3.1510   -9.4220 O.2    39  PRO39      -0.2868
     62  CB         5.2650    2.5830   -7.1540 C.3    39  PRO39       0.0268
     63  CG         5.1990    4.0500   -7.2310 C.3    39  PRO39       0.0207
     64  CD         6.5230    4.5710   -6.7080 C.3    39  PRO39       0.0892
     65  N          5.1810    1.3970  -12.1820 N.3    41  VAL41      -0.1245
     66  CA         3.7940    1.3860  -12.6690 C.3    41  VAL41       0.1561
     67  C          3.8280    1.0740  -14.1720 C.2    41  VAL41       0.2260
     68  O          4.6320    1.6820  -14.9130 O.2    41  VAL41      -0.2867
     69  CB         3.0670    2.6980  -12.3700 C.3    41  VAL41       0.0252
     70  CG1        1.6470    2.6860  -12.9230 C.3    41  VAL41       0.0019
     71  CG2        2.9930    2.9470  -10.8670 C.3    41  VAL41       0.0019
     72  N          0.9470   -2.0160  -10.4050 N.3    54  THR54      -0.1218
     73  CA         1.7630   -1.1690   -9.5420 C.3    54  THR54       0.1862
     74  C          2.6040   -2.0510   -8.6430 C.2    54  THR54       0.2287
     75  O          2.0210   -2.7730   -7.8300 O.2    54  THR54      -0.2866
     76  CB         0.8920   -0.2510   -8.6660 C.3    54  THR54       0.1770
     77  OG1        0.1420    0.6170   -9.5260 O.3    54  THR54      -0.2211
     78  CG2        1.7730    0.5930   -7.7290 C.3    54  THR54       0.0375
     79  N          5.8190   -2.7350   -5.8850 N.3    56  THR56      -0.1218
     80  CA         6.8330   -2.4240   -4.8600 C.3    56  THR56       0.1862
     81  C          7.1620   -3.7790   -4.2260 C.2    56  THR56       0.2287
     82  O          6.3660   -4.7200   -4.3080 O.2    56  THR56      -0.2866
     83  CB         6.3160   -1.4560   -3.7530 C.3    56  THR56       0.1770
     84  OG1        5.3820   -2.1450   -2.9010 O.3    56  THR56      -0.2211
     85  CG2        5.6050   -0.2420   -4.3160 C.3    56  THR56       0.0375
     86  N          7.0650   -4.9220   -1.2930 N.3    58  VAL58      -0.1231
     87  CA         6.2070   -5.3180   -0.2060 C.3    58  VAL58       0.1692
     88  C          4.7540   -5.3320   -0.6250 C.2    58  VAL58       0.2591
     89  O          3.9220   -5.8100    0.1280 O.2    58  VAL58      -0.2718
     90  CB         6.4600   -4.4730    1.1050 C.3    58  VAL58       0.0266
     91  CG1        7.9040   -4.6560    1.6090 C.3    58  VAL58       0.0020
     92  CG2        6.1750   -2.9640    0.9180 C.3    58  VAL58       0.0020
     93  N          4.4270   -4.8590   -1.8350 N.am   59  ARG59      -0.1980
     94  CA         3.0310   -4.9150   -2.3240 C.3    59  ARG59       0.1597
     95  C          2.9630   -4.6490   -3.8030 C.2    59  ARG59       0.2287
     96  O          3.3970   -3.5940   -4.2900 O.2    59  ARG59      -0.2864
     97  CB         2.1320   -3.9120   -1.5980 C.3    59  ARG59       0.0334
     98  CG         0.6700   -4.3150   -1.6310 C.3    59  ARG59       0.0492
     99  CD        -0.2140   -3.1270   -1.5240 C.3    59  ARG59       0.2205
    100  NE        -1.6430   -3.4460   -1.5260 N.pl3  59  ARG59      -0.0865
    101  CZ        -2.6080   -2.5870   -1.1920 C.cat  59  ARG59       0.5346
    102  NH1       -2.2990   -1.3430   -0.8130 N.pl3  59  ARG59       0.1354
    103  NH2       -3.8870   -2.9760   -1.1970 N.pl3  59  ARG59       0.1354
    104  N          0.1070   -4.7950   -6.8910 N.3    61  THR61      -0.1218
    105  CA        -1.3020   -4.8690   -7.2300 C.3    61  THR61       0.1862
    106  C         -1.3370   -4.9650   -8.7430 C.2    61  THR61       0.2287
    107  O         -0.5960   -4.2640   -9.4630 O.2    61  THR61      -0.2866
    108  CB        -2.1870   -3.7600   -6.6090 C.3    61  THR61       0.1770
    109  OG1       -1.8150   -2.4510   -7.0650 O.3    61  THR61      -0.2211
    110  CG2       -2.1130   -3.7790   -5.0490 C.3    61  THR61       0.0375
    111  N         -8.0290   -5.0400   -3.5480 N.3    74  GLN74      -0.1245
    112  CA        -7.9770   -4.6680   -2.1400 C.3    74  GLN74       0.1566
    113  C         -8.0810   -3.1680   -2.0610 C.2    74  GLN74       0.2260
    114  O         -7.6180   -2.4650   -2.9620 O.2    74  GLN74      -0.2867
    115  CB        -6.6540   -5.1120   -1.5230 C.3    74  GLN74       0.0367
    116  CG        -6.6090   -6.5910   -1.1340 C.3    74  GLN74       0.0905
    117  CD        -5.3560   -6.9570   -0.3400 C.2    74  GLN74       0.2608
    118  OE1       -4.4820   -6.1370   -0.1080 O.2    74  GLN74      -0.2717
    119  NE2       -5.2890   -8.1880    0.0980 N.am   74  GLN74      -0.0878
    120  N         -6.7080    0.3980   -0.3300 N.3    76  VAL76      -0.1231
    121  CA        -5.3360    0.8710   -0.1010 C.3    76  VAL76       0.1692
    122  C         -4.7240    0.2750    1.1950 C.2    76  VAL76       0.2592
    123  O         -3.5060    0.0170    1.2420 O.2    76  VAL76      -0.2718
    124  CB        -5.2860    2.4250   -0.1370 C.3    76  VAL76       0.0266
    125  CG1       -6.0910    3.0220    0.9940 C.3    76  VAL76       0.0020
    126  CG2       -3.8590    2.9370   -0.1440 C.3    76  VAL76       0.0020
    127  N         -5.5720    0.0700    2.2180 N.am   77  ASP77      -0.1960
    128  CA        -5.1590   -0.4740    3.5150 C.3    77  ASP77       0.1840
    129  C         -5.2930   -1.9890    3.6040 C.2    77  ASP77       0.2622
    130  O         -5.1360   -2.5450    4.6890 O.2    77  ASP77      -0.2715
    131  CB        -5.9010    0.1920    4.6910 C.3    77  ASP77       0.1450
    132  CG        -7.3950   -0.0260    4.6490 C.2    77  ASP77       0.3671
    133  OD1       -8.0190    0.2480    3.5850 O.co2  77  ASP77      -0.2456
    134  OD2       -7.9580   -0.4480    5.6770 O.co2  77  ASP77      -0.2456
    135  N         -5.5990   -2.6520    2.4940 N.am   78  GLY78      -0.1954
    136  CA        -5.4490   -4.1150    2.4040 C.3    78  GLY78       0.1869
    137  C         -6.6760   -4.9890    2.6140 C.2    78  GLY78       0.2309
    138  O         -6.5300   -6.1950    2.7910 O.2    78  GLY78      -0.2863
    139  N         -8.2850    8.1160  -11.8320 N.3   109  ARG109     -0.1245
    140  CA        -7.1020    8.3800  -12.6220 C.3   109  ARG109      0.1563
    141  C         -7.4790    9.2700  -13.7980 C.2   109  ARG109      0.2260
    142  O         -8.5270    9.1290  -14.4030 O.2   109  ARG109     -0.2867
    143  CB        -6.4050    7.0740  -13.0920 C.3   109  ARG109      0.0307
    144  CG        -5.7390    6.2610  -12.0200 C.3   109  ARG109      0.0489
    145  CD        -5.1670    4.9590  -12.5980 C.3   109  ARG109      0.2205
    146  NE        -4.0840    4.4120  -11.7490 N.pl3 109  ARG109     -0.0865
    147  CZ        -4.2370    3.4850  -10.8220 C.cat 109  ARG109      0.5346
    148  NH1       -5.4360    2.9070  -10.5800 N.pl3 109  ARG109      0.1354
    149  NH2       -3.1560    3.0820  -10.1360 N.pl3 109  ARG109      0.1354
    150  N         -3.4050   10.3670  -10.0260 N.3   119  LEU119     -0.1245
    151  CA        -4.1320    9.3840   -9.2540 C.3   119  LEU119      0.1561
    152  C         -4.6620   10.0330   -7.9930 C.2   119  LEU119      0.2260
    153  O         -3.8990   10.6500   -7.2720 O.2   119  LEU119     -0.2867
    154  CB        -3.2040    8.2040   -8.9010 C.3   119  LEU119      0.0270
    155  CG        -3.6990    7.1150   -7.8950 C.3   119  LEU119      0.0019
    156  CD1       -4.8480    6.2670   -8.4180 C.3   119  LEU119      0.0001
    157  CD2       -2.5610    6.2040   -7.4180 C.3   119  LEU119      0.0001
    158  N         -6.6820    8.8360   -4.3960 N.3   121  MET121     -0.1245
    159  CA        -7.2700    7.7580   -3.5600 C.3   121  MET121      0.1570
    160  C         -7.9270    8.4070   -2.3350 C.2   121  MET121      0.2261
    161  O         -7.2880    9.2220   -1.6870 O.2   121  MET121     -0.2867
    162  CB        -6.2280    6.7560   -3.1170 C.3   121  MET121      0.0387
    163  CG        -5.4830    6.0460   -4.2600 C.3   121  MET121      0.0595
    164  SD        -4.2130    4.8960   -3.6740 S.3   121  MET121     -0.1393
    165  CE        -2.7990    5.9320   -3.5130 C.3   121  MET121      0.0692
    166  N         -1.4210   11.6880   -6.1790 N.3   130  ARG130     -0.1245
    167  CA        -0.1300   11.2710   -6.6900 C.3   130  ARG130      0.1563
    168  C         -0.0660   11.5850   -8.2010 C.2   130  ARG130      0.2260
    169  O         -1.0220   11.3400   -8.9390 O.2   130  ARG130     -0.2867
    170  CB         0.0420    9.7770   -6.3780 C.3   130  ARG130      0.0307
    171  CG         0.2430    9.5680   -4.8590 C.3   130  ARG130      0.0489
    172  CD         0.0560    8.1280   -4.4170 C.3   130  ARG130      0.2205
    173  NE         1.0580    7.2140   -4.9260 N.pl3 130  ARG130     -0.0865
    174  CZ         2.2460    6.9690   -4.3550 C.cat 130  ARG130      0.5346
    175  NH1        2.6280    7.6110   -3.2640 N.pl3 130  ARG130      0.1354
    176  NH2        3.0700    6.0830   -4.8990 N.pl3 130  ARG130      0.1354
    177  N          2.2610   11.3260  -11.7830 N.3   132  TYR132     -0.1241
    178  CA         3.2600   10.5060  -12.4810 C.3   132  TYR132      0.1605
    179  C          3.4640   11.0520  -13.8530 C.2   132  TYR132      0.2264
    180  O          2.5610   11.6590  -14.4260 O.2   132  TYR132     -0.2867
    181  CB         2.8160    9.0540  -12.6550 C.3   132  TYR132      0.0534
    182  CG         2.3340    8.3740  -11.3960 C.ar  132  TYR132     -0.0201
    183  CD1        1.1070    8.7030  -10.8440 C.ar  132  TYR132     -0.0009
    184  CD2        3.0730    7.3790  -10.7980 C.ar  132  TYR132     -0.0009
    185  CE1        0.6730    8.0940   -9.6960 C.ar  132  TYR132      0.0417
    186  CE2        2.6160    6.7520   -9.6390 C.ar  132  TYR132      0.0417
    187  CZ         1.4050    7.1210   -9.1120 C.ar  132  TYR132      0.1957
    188  OH         0.9110    6.5390   -7.9590 O.3   132  TYR132     -0.2866
@<TRIPOS>BOND
     1    68    67    2
     2   180   179    2
     3   142   141    2
     4    67    66    1
     5   179   178    1
     6   141   140    1
     7   143   140    1
     8   143   144    1
     9    70    69    1
    10    66    69    1
    11    66    65    1
    12   181   178    1
    13   181   182    1
    14   140   139    1
    15   145   144    1
    16   145   146    1
    17   178   177    1
    18    69    71    1
    19   146   147    2
    20   182   183   ar
    21   182   184   ar
    22   183   185   ar
    23   147   148    1
    24   147   149    1
    25   184   186   ar
    26    72    73    1
    27   150   151    1
    28   185   187   ar
    29   186   187   ar
    30    73    76    1
    31    73    74    1
    32    77    76    1
    33   107   106    2
    34    61    60    2
    35   151   154    1
    36   151   152    1
    37   187   188    1
    38   169   168    2
    39   154   155    1
    40    60    59    1
    41   106   105    1
    42    76    78    1
    43    74    75    2
    44   156   155    1
    45   168   167    1
    46   152   153    2
    47   155   157    1
    48    59    62    1
    49    59    58    1
    50    63    62    1
    51    63    64    1
    52   105   104    1
    53   105   108    1
    54   109   108    1
    55    64    58    1
    56   167   170    1
    57   167   166    1
    58   108   110    1
    59   170   171    1
    60    79    80    1
    61   173   172    1
    62   173   174    2
    63   176   174    1
    64    80    81    1
    65    80    83    1
    66   171   172    1
    67   158   159    1
    68   174   175    1
    69    85    83    1
    70    82    81    2
    71    96    95    2
    72   163   164    1
    73   163   162    1
    74    95    94    1
    75    83    84    1
    76   164   165    1
    77    56    55    2
    78   159   162    1
    79   159   160    1
    80   111   112    1
    81   114   113    2
    82    51    50    2
    83    55    54    1
    84   160   161    2
    85    94    93    1
    86    94    97    1
    87    54    57    1
    88    54    53    1
    89   112   113    1
    90   112   115    1
    91    93    88   am
    92    50    53   am
    93    50    49    1
    94    98    97    1
    95    98    99    1
    96   100    99    1
    97   100   101    2
    98   115   116    1
    99    86    87    1
   100   103   101    1
   101   101   102    1
   102   116   117    1
   103    49    52    1
   104    49    48    1
   105    88    87    1
   106    88    89    2
   107   117   118    2
   108   117   119   am
   109   120   121    1
   110    87    90    1
   111     9     7   ar
   112     9    11   ar
   113   126   124    1
   114   124   121    1
   115   124   125    1
   116     7     6   ar
   117   121   122    1
   118    11    10   ar
   119     6     5    1
   120     6     8   ar
   121     5     2    1
   122    10     8   ar
   123    92    90    1
   124    90    91    1
   125   122   123    2
   126   122   127   am
   127    46    45    2
   128     1     2    1
   129     2     3    1
   130   127   128    1
   131   136   135    1
   132   136   137    1
   133    45    44    1
   134   135   129   am
   135   137   138    2
   136     3     4    2
   137    38    37    2
   138    44    47    1
   139    44    43    1
   140   128   129    1
   141   128   131    1
   142    19    17    1
   143   133   132   ar
   144   129   130    2
   145    17    18    1
   146    17    16    1
   147    37    43   am
   148    37    36    1
   149    41    39    1
   150   132   131    1
   151   132   134   ar
   152    12    13    1
   153    36    39    1
   154    36    35    1
   155    16    13    1
   156    39    40    1
   157    13    14    1
   158    30    29    2
   159    40    42    1
   160    26    24    1
   161    14    15    2
   162    29    28    1
   163    25    24    1
   164    24    21    1
   165    31    28    1
   166    31    32    1
   167    28    27    1
   168    34    32    1
   169    33    32    1
   170    21    20    1
   171    21    22    1
   172    22    23    2
