@<TRIPOS>MOLECULE
tmp/5ogcA00.pdb
 166 156 0 0 0
SMALL
GASTEIGER

@<TRIPOS>ATOM
      1  N        157.5430  341.5780  246.5430 N.3    92  HIS92      -0.1241
      2  CA       157.3730  342.9730  246.9850 C.3    92  HIS92       0.1621
      3  C        155.9030  343.3760  247.0300 C.2    92  HIS92       0.2264
      4  O        155.4270  343.9290  248.0090 O.2    92  HIS92      -0.2867
      5  CB       158.1150  343.9350  246.0470 C.3    92  HIS92       0.0745
      6  CG       159.2770  344.6310  246.7010 C.ar   92  HIS92       0.0817
      7  ND1      160.1300  345.5140  246.0560 N.ar   92  HIS92      -0.2268
      8  CD2      159.7600  344.3690  247.9520 C.ar   92  HIS92       0.1154
      9  CE1      161.1230  345.7630  246.9200 C.ar   92  HIS92       0.1986
     10  NE2      160.9220  345.0980  248.0730 N.ar   92  HIS92      -0.2212
     11  N        153.6650  340.9430  249.7290 N.3    95  LEU95      -0.1231
     12  CA       153.8000  341.1430  251.1730 C.3    95  LEU95       0.1693
     13  C        154.1320  342.5870  251.4650 C.2    95  LEU95       0.2593
     14  O        154.8710  343.2210  250.7290 O.2    95  LEU95      -0.2718
     15  CB       154.9260  340.3160  251.8090 C.3    95  LEU95       0.0284
     16  CG       154.5090  339.0110  252.4900 C.3    95  LEU95       0.0019
     17  CD1      153.0520  339.0190  252.9210 C.3    95  LEU95       0.0001
     18  CD2      154.6290  337.8840  251.4940 C.3    95  LEU95       0.0001
     19  N        153.5740  343.1140  252.5490 N.am   96  GLY96      -0.1942
     20  CA       153.8320  344.5000  252.9290 C.3    96  GLY96       0.2014
     21  C        153.2390  345.5100  251.9520 C.2    96  GLY96       0.2639
     22  O        153.3100  346.7050  252.2140 O.2    96  GLY96      -0.2714
     23  N        152.6120  345.0460  250.8660 N.am   97  SER97      -0.1949
     24  CA       151.8940  345.9140  249.9640 C.3    97  SER97       0.1924
     25  C        150.7000  346.4710  250.7160 C.2    97  SER97       0.2314
     26  O        149.8400  345.6960  251.1340 O.2    97  SER97      -0.2863
     27  CB       151.4370  345.1690  248.7310 C.3    97  SER97       0.2116
     28  OG       150.8950  346.1480  247.8750 O.3    97  SER97      -0.2180
     29  N        146.3650  343.1770  250.7600 N.3   102  GLY102     -0.1225
     30  CA       147.2420  342.4510  251.6670 C.3   102  GLY102      0.1811
     31  C        146.5830  341.1440  252.0820 C.2   102  GLY102      0.2280
     32  O        145.5460  341.1390  252.7320 O.2   102  GLY102     -0.2866
     33  N        147.8260  339.2670  254.3030 N.3   104  MET104     -0.1230
     34  CA       148.0790  339.5540  255.7030 C.3   104  MET104      0.1702
     35  C        147.1280  340.5890  256.2980 C.2   104  MET104      0.2592
     36  O        146.6530  340.3710  257.3980 O.2   104  MET104     -0.2718
     37  CB       149.5150  340.0540  255.8470 C.3   104  MET104      0.0401
     38  CG       150.3830  339.0440  256.5990 C.3   104  MET104      0.0596
     39  SD       150.5390  339.3390  258.3710 S.3   104  MET104     -0.1393
     40  CE       149.2490  338.2310  258.9890 C.3   104  MET104      0.0692
     41  N        146.7810  341.6680  255.5960 N.am  105  TYR105     -0.1976
     42  CA       145.8470  342.6730  256.1240 C.3   105  TYR105      0.1639
     43  C        144.4330  342.1370  256.2030 C.2   105  TYR105      0.2290
     44  O        143.8190  342.1840  257.2670 O.2   105  TYR105     -0.2864
     45  CB       145.8050  343.8820  255.2020 C.3   105  TYR105      0.0560
     46  CG       146.7390  345.0150  255.5130 C.ar  105  TYR105     -0.0198
     47  CD1      147.0160  345.4010  256.8400 C.ar  105  TYR105     -0.0009
     48  CD2      147.3820  345.6460  254.4340 C.ar  105  TYR105     -0.0009
     49  CE1      147.9320  346.4390  257.0830 C.ar  105  TYR105      0.0417
     50  CE2      148.3220  346.6580  254.6760 C.ar  105  TYR105      0.0417
     51  CZ       148.5900  347.0620  255.9980 C.ar  105  TYR105      0.1957
     52  OH       149.4410  348.0950  256.2040 O.3   105  TYR105     -0.2866
     53  N        144.4730  339.3530  258.8270 N.3   108  MET108     -0.1245
     54  CA       144.5450  339.9640  260.1260 C.3   108  MET108      0.1570
     55  C        143.2130  340.5720  260.5010 C.2   108  MET108      0.2261
     56  O        142.7250  340.2210  261.5570 O.2   108  MET108     -0.2867
     57  CB       145.6300  341.0120  260.1280 C.3   108  MET108      0.0387
     58  CG       146.8080  340.5480  260.9770 C.3   108  MET108      0.0595
     59  SD       148.2640  341.5630  260.6930 S.3   108  MET108     -0.1393
     60  CE       147.4480  342.8770  259.7540 C.3   108  MET108      0.0692
     61  N        156.1050  339.1720  266.7960 N.3   130  TYR130     -0.1241
     62  CA       156.7170  339.3250  265.4840 C.3   130  TYR130      0.1605
     63  C        158.2200  339.1210  265.6470 C.2   130  TYR130      0.2264
     64  O        158.8440  339.9030  266.3400 O.2   130  TYR130     -0.2867
     65  CB       156.3450  340.7170  264.9440 C.3   130  TYR130      0.0534
     66  CG       156.4270  340.8600  263.4370 C.ar  130  TYR130     -0.0201
     67  CD1      155.7400  341.8800  262.7490 C.ar  130  TYR130     -0.0009
     68  CD2      157.2350  339.9670  262.7140 C.ar  130  TYR130     -0.0009
     69  CE1      155.8550  342.0100  261.3520 C.ar  130  TYR130      0.0417
     70  CE2      157.3470  340.0980  261.3200 C.ar  130  TYR130      0.0417
     71  CZ       156.6570  341.1050  260.6330 C.ar  130  TYR130      0.1957
     72  OH       156.7970  341.1880  259.2850 O.3   130  TYR130     -0.2866
     73  N        149.2040  346.8900  263.7640 N.3   175  LEU175     -0.1245
     74  CA       149.8730  347.7520  262.7740 C.3   175  LEU175      0.1561
     75  C        151.0880  348.4640  263.3640 C.2   175  LEU175      0.2260
     76  O        152.1030  348.5450  262.6810 O.2   175  LEU175     -0.2867
     77  CB       148.9610  348.8420  262.1710 C.3   175  LEU175      0.0270
     78  CG       148.4360  348.6410  260.7500 C.3   175  LEU175      0.0019
     79  CD1      149.5910  348.4720  259.7630 C.3   175  LEU175      0.0001
     80  CD2      147.4390  347.4970  260.5950 C.3   175  LEU175      0.0001
     81  N        153.7110  345.8040  263.4490 N.3   178  LEU178     -0.1245
     82  CA       154.1540  345.6260  262.0650 C.3   178  LEU178      0.1561
     83  C        155.1050  346.7580  261.6610 C.2   178  LEU178      0.2260
     84  O        156.1770  346.4580  261.1660 O.2   178  LEU178     -0.2867
     85  CB       152.9970  345.5730  261.0470 C.3   178  LEU178      0.0270
     86  CG       151.8800  344.5370  261.2280 C.3   178  LEU178      0.0019
     87  CD1      150.6740  344.9480  260.3880 C.3   178  LEU178      0.0001
     88  CD2      152.2750  343.1160  260.8570 C.3   178  LEU178      0.0001
     89  N        158.8770  346.1630  260.9140 N.3   182  ASN182     -0.1240
     90  CA       159.2730  346.3290  259.5250 C.3   182  ASN182      0.1653
     91  C        160.4160  347.3400  259.3670 C.2   182  ASN182      0.2266
     92  O        161.3490  347.0090  258.6390 O.2   182  ASN182     -0.2867
     93  CB       158.0330  346.6650  258.6750 C.3   182  ASN182      0.1155
     94  CG       157.5190  345.5300  257.7860 C.2   182  ASN182      0.2627
     95  OD1      157.6150  345.5830  256.5720 O.2   182  ASN182     -0.2716
     96  ND2      157.1110  344.4020  258.3310 N.am  182  ASN182     -0.0877
     97  N        163.9150  345.4800  261.2440 N.3   185  ARG185     -0.1245
     98  CA       164.7810  344.8300  260.2710 C.3   185  ARG185      0.1563
     99  C        165.4190  345.8830  259.3650 C.2   185  ARG185      0.2260
    100  O        164.7130  346.6930  258.7620 O.2   185  ARG185     -0.2867
    101  CB       164.0940  343.8200  259.3720 C.3   185  ARG185      0.0307
    102  CG       163.0240  342.8430  259.8750 C.3   185  ARG185      0.0489
    103  CD       161.5710  343.1700  259.4890 C.3   185  ARG185      0.2205
    104  NE       161.3980  343.8800  258.2080 N.pl3 185  ARG185     -0.0865
    105  CZ       160.6330  343.5380  257.1730 C.cat 185  ARG185      0.5346
    106  NH1      159.9240  342.4560  257.1690 N.pl3 185  ARG185      0.1354
    107  NH2      160.5510  344.3420  256.1590 N.pl3 185  ARG185      0.1354
    108  N        163.6260  345.3760  250.9710 N.3   195  THR195     -0.1203
    109  CA       163.2500  345.1880  252.3850 C.3   195  THR195      0.1994
    110  C        164.1290  344.1120  253.0400 C.2   195  THR195      0.2619
    111  O        165.0170  343.5320  252.4120 O.2   195  THR195     -0.2717
    112  CB       161.7410  344.8780  252.5050 C.3   195  THR195      0.1784
    113  OG1      161.1880  344.4420  251.2760 O.3   195  THR195     -0.2211
    114  CG2      160.8840  346.0490  252.9820 C.3   195  THR195      0.0376
    115  N        163.7690  343.7490  254.2670 N.am  196  SER196     -0.1937
    116  CA       164.1970  342.4900  254.8610 C.3   196  SER196      0.2055
    117  C        163.5870  341.2480  254.1860 C.2   196  SER196      0.2643
    118  O        162.6120  340.6990  254.6930 O.2   196  SER196     -0.2714
    119  CB       163.9660  342.5120  256.3600 C.3   196  SER196      0.2130
    120  OG       165.1970  342.2160  256.9640 O.3   196  SER196     -0.2179
    121  N        163.8910  341.0740  252.8960 N.am  197  SER197     -0.1949
    122  CA       163.5250  339.9100  252.0800 C.3   197  SER197      0.1924
    123  C        164.4300  338.7300  252.4390 C.2   197  SER197      0.2314
    124  O        163.9480  337.6600  252.7780 O.2   197  SER197     -0.2863
    125  CB       163.7140  340.1790  250.5720 C.3   197  SER197      0.2116
    126  OG       162.9940  341.2900  250.0710 O.3   197  SER197     -0.2180
    127  N        161.1170  337.0120  257.8280 N.3   201  ALA201     -0.1245
    128  CA       160.2170  337.5980  258.8190 C.3   201  ALA201      0.1562
    129  C        159.2060  336.5530  259.2260 C.2   201  ALA201      0.2260
    130  O        158.5330  335.9910  258.3720 O.2   201  ALA201     -0.2867
    131  CB       159.5030  338.8430  258.2970 C.3   201  ALA201      0.0290
    132  N        155.5870  336.4510  261.3410 N.3   203  PHE203     -0.1241
    133  CA       154.5310  336.9090  262.1980 C.3   203  PHE203      0.1605
    134  C        153.9460  335.7600  262.9780 C.2   203  PHE203      0.2264
    135  O        153.7080  334.7230  262.3780 O.2   203  PHE203     -0.2867
    136  CB       153.4670  337.6940  261.4370 C.3   203  PHE203      0.0534
    137  CG       152.6630  338.6150  262.3390 C.ar  203  PHE203     -0.0203
    138  CD1      153.2820  339.4160  263.3260 C.ar  203  PHE203     -0.0042
    139  CD2      151.2690  338.6840  262.1930 C.ar  203  PHE203     -0.0042
    140  CE1      152.5500  340.2070  264.1980 C.ar  203  PHE203     -0.0003
    141  CE2      150.5290  339.5150  263.0550 C.ar  203  PHE203     -0.0003
    142  CZ       151.1720  340.2600  264.0570 C.ar  203  PHE203     -0.0000
    143  N        152.9830  333.4370  259.8370 N.3   227  LEU227     -0.1231
    144  CA       153.2440  333.7660  258.4440 C.3   227  LEU227      0.1693
    145  C        154.7250  334.0170  258.3490 C.2   227  LEU227      0.2592
    146  O        155.2760  334.6810  259.2200 O.2   227  LEU227     -0.2718
    147  CB       152.4750  335.0080  257.9790 C.3   227  LEU227      0.0284
    148  CG       151.6680  334.7920  256.6920 C.3   227  LEU227      0.0019
    149  CD1      150.2240  335.2870  256.7750 C.3   227  LEU227      0.0001
    150  CD2      152.3540  335.5150  255.5470 C.3   227  LEU227      0.0001
    151  N        155.3710  333.4340  257.3530 N.am  228  ILE228     -0.1966
    152  CA       156.8120  333.5730  257.1670 C.3   228  ILE228      0.1727
    153  C        157.0740  334.2170  255.8110 C.2   228  ILE228      0.2616
    154  O        156.5250  333.6990  254.8430 O.2   228  ILE228     -0.2715
    155  CB       157.5230  332.2170  257.3980 C.3   228  ILE228      0.0290
    156  CG1      157.1000  331.0680  256.4540 C.3   228  ILE228      0.0022
    157  CG2      157.2470  331.7570  258.8460 C.3   228  ILE228      0.0023
    158  CD1      158.0350  329.8520  256.5200 C.3   228  ILE228      0.0001
    159  N        157.6930  335.4060  255.7350 N.am  229  ASP229     -0.1971
    160  CA       158.3250  335.8080  254.4840 C.3   229  ASP229      0.1709
    161  C        159.7110  335.1970  254.4380 C.2   229  ASP229      0.2293
    162  O        160.3880  335.1870  255.4670 O.2   229  ASP229     -0.2864
    163  CB       158.4660  337.3200  254.3870 C.3   229  ASP229      0.1436
    164  CG       158.2740  337.7660  252.9290 C.2   229  ASP229      0.3671
    165  OD1      158.8690  338.8240  252.6040 O.co2 229  ASP229     -0.2456
    166  OD2      157.9150  336.8780  252.1310 O.co2 229  ASP229     -0.2456
@<TRIPOS>BOND
     1     5     6    1
     2     5     2    1
     3     7     6   ar
     4     7     9   ar
     5     1     2    1
     6     6     8   ar
     7     9    10   ar
     8     2     3    1
     9     3     4    2
    10    28    27    1
    11     8    10   ar
    12    27    24    1
    13    11    12    1
    14    24    25    1
    15    24    23    1
    16   126   125    1
    17   125   122    1
    18    25    26    2
    19    14    13    2
    20    29    30    1
    21    23    21   am
    22   108   109    1
    23    12    13    1
    24    12    15    1
    25   113   112    1
    26    13    19   am
    27    18    16    1
    28    30    31    1
    29    15    16    1
    30    21    22    2
    31    21    20    1
    32   122   123    1
    33   122   121    1
    34    31    32    2
    35   166   164   ar
    36   109   112    1
    37   109   110    1
    38   111   110    2
    39   123   124    2
    40    16    17    1
    41   112   114    1
    42    19    20    1
    43   165   164   ar
    44   121   117   am
    45   164   163    1
    46   110   115   am
    47   117   118    2
    48   117   116    1
    49   115   116    1
    50    33    34    1
    51   163   160    1
    52    48    50   ar
    53    48    46   ar
    54   161   160    1
    55   161   162    2
    56   160   159    1
    57    50    51   ar
    58   154   153    2
    59   116   119    1
    60    45    46    1
    61    45    42    1
    62    46    47   ar
    63   150   148    1
    64    41    42    1
    65    41    35   am
    66    34    37    1
    67    34    35    1
    68   159   153   am
    69   153   152    1
    70    37    38    1
    71    51    52    1
    72    51    49   ar
    73    42    43    1
    74   107   105    1
    75    43    44    2
    76    35    36    2
    77   119   120    1
    78   156   158    1
    79   156   155    1
    80    95    94    2
    81    38    39    1
    82   148   149    1
    83   148   147    1
    84    47    49   ar
    85   152   151    1
    86   152   155    1
    87   106   105    1
    88   105   104    2
    89   151   145   am
    90   155   157    1
    91    94    96   am
    92    94    93    1
    93   127   128    1
    94   147   144    1
    95   104   103    1
    96   131   128    1
    97   145   144    1
    98   145   146    2
    99    39    40    1
   100   130   129    2
   101   144   143    1
   102    92    91    2
   103    93    90    1
   104   100    99    2
   105   128   129    1
   106    53    54    1
   107    72    71    1
   108    99    98    1
   109    91    90    1
   110   101   102    1
   111   101    98    1
   112   103   102    1
   113    90    89    1
   114    60    59    1
   115    79    78    1
   116    54    57    1
   117    54    55    1
   118    57    58    1
   119    98    97    1
   120    87    86    1
   121    55    56    2
   122    80    78    1
   123    71    70   ar
   124    71    69   ar
   125    59    58    1
   126    78    77    1
   127    88    86    1
   128    85    86    1
   129    85    82    1
   130    84    83    2
   131    70    68   ar
   132   132   133    1
   133    69    67   ar
   134   136   133    1
   135   136   137    1
   136    83    82    1
   137    82    81    1
   138    77    74    1
   139   139   137   ar
   140   139   141   ar
   141   133   134    1
   142   137   138   ar
   143   135   134    2
   144    76    75    2
   145    68    66   ar
   146    67    66   ar
   147    74    75    1
   148    74    73    1
   149   141   142   ar
   150   138   140   ar
   151    66    65    1
   152   142   140   ar
   153    65    62    1
   154    62    63    1
   155    62    61    1
   156    63    64    2
