@<TRIPOS>MOLECULE
tmp/5ogeF00.pdb
 113 106 0 0 0
SMALL
GASTEIGER

@<TRIPOS>ATOM
      1  N        -34.9590 -104.5430  117.5660 N.3    99  PHE99      -0.1241
      2  CA       -35.6900 -105.3460  116.5850 C.3    99  PHE99       0.1605
      3  C        -34.7830 -106.3560  115.8940 C.2    99  PHE99       0.2264
      4  O        -35.2440 -107.4560  115.5850 O.2    99  PHE99      -0.2867
      5  CB       -36.3990 -104.4580  115.5580 C.3    99  PHE99       0.0534
      6  CG       -37.4020 -103.4900  116.1390 C.ar   99  PHE99      -0.0203
      7  CD1      -38.6850 -103.9080  116.4820 C.ar   99  PHE99      -0.0042
      8  CD2      -37.0690 -102.1570  116.3360 C.ar   99  PHE99      -0.0042
      9  CE1      -39.6080 -103.0100  117.0350 C.ar   99  PHE99      -0.0003
     10  CE2      -38.0000 -101.2560  116.8720 C.ar   99  PHE99      -0.0003
     11  CZ       -39.2620 -101.6890  117.2170 C.ar   99  PHE99      -0.0000
     12  N        -34.5690 -109.1060  118.2000 N.3   102  LEU102     -0.1245
     13  CA       -35.8810 -109.7500  118.2110 C.3   102  LEU102      0.1561
     14  C        -36.0220 -110.7450  117.0510 C.2   102  LEU102      0.2260
     15  O        -36.7660 -111.7240  117.1890 O.2   102  LEU102     -0.2867
     16  CB       -37.0110 -108.7050  118.1740 C.3   102  LEU102      0.0270
     17  CG       -37.3030 -107.9630  119.4830 C.3   102  LEU102      0.0019
     18  CD1      -38.0580 -106.6780  119.2250 C.3   102  LEU102      0.0001
     19  CD2      -38.0870 -108.8310  120.4570 C.3   102  LEU102      0.0001
     20  N        -35.1010 -114.5120  117.7330 N.3   105  ILE105     -0.1231
     21  CA       -36.2000 -115.3270  118.2700 C.3   105  ILE105      0.1692
     22  C        -37.0470 -115.9320  117.1320 C.2   105  ILE105      0.2591
     23  O        -37.3070 -117.1390  117.1580 O.2   105  ILE105     -0.2718
     24  CB       -37.0500 -114.5720  119.3340 C.3   105  ILE105      0.0266
     25  CG1      -36.1520 -113.9680  120.4390 C.3   105  ILE105      0.0019
     26  CG2      -38.0910 -115.5060  119.9580 C.3   105  ILE105      0.0020
     27  CD1      -36.6310 -112.6720  121.0430 C.3   105  ILE105      0.0001
     28  N        -37.4350 -115.1260  116.1160 N.am  106  LEU106     -0.1980
     29  CA       -38.2120 -115.6800  115.0010 C.3   106  LEU106      0.1596
     30  C        -37.3510 -116.5400  114.0560 C.2   106  LEU106      0.2287
     31  O        -37.9020 -117.4140  113.3980 O.2   106  LEU106     -0.2864
     32  CB       -39.0610 -114.6580  114.2250 C.3   106  LEU106      0.0297
     33  CG       -38.3670 -113.5240  113.5090 C.3   106  LEU106      0.0022
     34  CD1      -37.8050 -113.9990  112.1890 C.3   106  LEU106      0.0001
     35  CD2      -39.3350 -112.3840  113.2730 C.3   106  LEU106      0.0001
     36  N        -37.4050 -119.7860  116.1080 N.3   109  TYR109     -0.1241
     37  CA       -38.6920 -120.4730  115.9840 C.3   109  TYR109      0.1605
     38  C        -39.0240 -120.8300  114.5340 C.2   109  TYR109      0.2264
     39  O        -39.8150 -121.7480  114.2990 O.2   109  TYR109     -0.2867
     40  CB       -39.8250 -119.6980  116.6760 C.3   109  TYR109      0.0534
     41  CG       -39.7700 -119.8610  118.1800 C.ar  109  TYR109     -0.0201
     42  CD1      -40.3620 -120.9550  118.8050 C.ar  109  TYR109     -0.0009
     43  CD2      -39.0540 -118.9670  118.9710 C.ar  109  TYR109     -0.0009
     44  CE1      -40.2610 -121.1440  120.1810 C.ar  109  TYR109      0.0417
     45  CE2      -38.9440 -119.1460  120.3480 C.ar  109  TYR109      0.0417
     46  CZ       -39.5510 -120.2350  120.9500 C.ar  109  TYR109      0.1957
     47  OH       -39.4370 -120.4190  122.3060 O.3   109  TYR109     -0.2866
     48  N        -36.6490 -124.9390  120.3470 N.3   119  VAL119     -0.1245
     49  CA       -36.0010 -123.8100  121.0180 C.3   119  VAL119      0.1561
     50  C        -36.0460 -124.1490  122.5030 C.2   119  VAL119      0.2260
     51  O        -37.1030 -124.0110  123.1330 O.2   119  VAL119     -0.2867
     52  CB       -36.6570 -122.4380  120.7060 C.3   119  VAL119      0.0252
     53  CG1      -35.9390 -121.3040  121.4280 C.3   119  VAL119      0.0019
     54  CG2      -36.6910 -122.1770  119.2080 C.3   119  VAL119      0.0019
     55  N        -35.5820 -123.9490  126.5010 N.3   121  SER121     -0.1217
     56  CA       -35.8170 -122.8640  127.4570 C.3   121  SER121      0.1889
     57  C        -34.5580 -122.0450  127.7750 C.2   121  SER121      0.2288
     58  O        -34.6730 -120.8510  128.0480 O.2   121  SER121     -0.2866
     59  CB       -36.4590 -123.4040  128.7300 C.3   121  SER121      0.2089
     60  OG       -37.6540 -124.1190  128.4620 O.3   121  SER121     -0.2183
     61  N        -33.9590 -119.7510  124.7560 N.3   124  LEU124     -0.1245
     62  CA       -34.9910 -118.7290  124.9220 C.3   124  LEU124      0.1561
     63  C        -34.6140 -117.7150  126.0070 C.2   124  LEU124      0.2260
     64  O        -34.9260 -116.5350  125.8550 O.2   124  LEU124     -0.2867
     65  CB       -36.3630 -119.3750  125.1960 C.3   124  LEU124      0.0270
     66  CG       -37.6470 -118.5530  124.9230 C.3   124  LEU124      0.0019
     67  CD1      -38.1900 -117.9380  126.1820 C.3   124  LEU124      0.0001
     68  CD2      -37.4840 -117.5190  123.7850 C.3   124  LEU124      0.0001
     69  N        -33.6340 -113.5830  125.3690 N.3   128  LEU128     -0.1245
     70  CA       -34.2660 -112.5790  126.2240 C.3   128  LEU128      0.1561
     71  C        -33.2180 -111.6750  126.8590 C.2   128  LEU128      0.2260
     72  O        -33.4640 -110.4770  127.0150 O.2   128  LEU128     -0.2867
     73  CB       -35.1520 -113.2290  127.2950 C.3   128  LEU128      0.0270
     74  CG       -36.4530 -113.8730  126.8070 C.3   128  LEU128      0.0019
     75  CD1      -37.0390 -114.7470  127.8710 C.3   128  LEU128      0.0001
     76  CD2      -37.4760 -112.8320  126.3750 C.3   128  LEU128      0.0001
     77  N        -41.0100  -98.0690  111.4750 N.3   157  TYR157     -0.1241
     78  CA       -41.3260  -99.4040  111.9770 C.3   157  TYR157      0.1605
     79  C        -41.8230 -100.3540  110.8770 C.2   157  TYR157      0.2264
     80  O        -41.6850 -101.5670  111.0490 O.2   157  TYR157     -0.2867
     81  CB       -42.2890  -99.3320  113.1840 C.3   157  TYR157      0.0534
     82  CG       -41.7880  -98.4020  114.2730 C.ar  157  TYR157     -0.0201
     83  CD1      -40.7260  -98.7670  115.0970 C.ar  157  TYR157     -0.0009
     84  CD2      -42.3200  -97.1240  114.4230 C.ar  157  TYR157     -0.0009
     85  CE1      -40.2280  -97.8950  116.0650 C.ar  157  TYR157      0.0417
     86  CE2      -41.8300  -96.2430  115.3880 C.ar  157  TYR157      0.0417
     87  CZ       -40.7820  -96.6320  116.2060 C.ar  157  TYR157      0.1957
     88  OH       -40.2930  -95.7640  117.1550 O.3   157  TYR157     -0.2866
     89  N        -38.6030 -101.5610  109.1740 N.3   160  MET160     -0.1230
     90  CA       -37.9140 -102.4200  110.1320 C.3   160  MET160      0.1702
     91  C        -38.5630 -103.8080  110.1670 C.2   160  MET160      0.2592
     92  O        -37.8420 -104.8020  110.1840 O.2   160  MET160     -0.2718
     93  CB       -37.8480 -101.7830  111.5320 C.3   160  MET160      0.0401
     94  CG       -36.8480 -102.4620  112.4590 C.3   160  MET160      0.0596
     95  SD       -35.1520 -102.4790  111.8150 S.3   160  MET160     -0.1393
     96  CE       -34.5420 -103.9630  112.5310 C.3   160  MET160      0.0692
     97  N        -39.9140 -103.8700  110.1290 N.am  161  PHE161     -0.1976
     98  CA       -40.6790 -105.1180  110.1190 C.3   161  PHE161      0.1639
     99  C        -40.3730 -105.9560  108.8680 C.2   161  PHE161      0.2290
    100  O        -40.2620 -107.1820  108.9610 O.2   161  PHE161     -0.2864
    101  CB       -42.1860 -104.8380  110.2620 C.3   161  PHE161      0.0560
    102  CG       -43.0660 -106.0590  110.1540 C.ar  161  PHE161     -0.0200
    103  CD1      -43.1730 -106.9560  111.2110 C.ar  161  PHE161     -0.0042
    104  CD2      -43.7730 -106.3230  108.9900 C.ar  161  PHE161     -0.0042
    105  CE1      -43.9730 -108.0950  111.1050 C.ar  161  PHE161     -0.0003
    106  CE2      -44.5750 -107.4640  108.8840 C.ar  161  PHE161     -0.0003
    107  CZ       -44.6700 -108.3410  109.9420 C.ar  161  PHE161     -0.0000
    108  N        -36.9140 -107.4720  109.0920 N.3   164  CYS164     -0.1235
    109  CA       -36.9910 -108.6000  110.0100 C.3   164  CYS164      0.1677
    110  C        -37.3950 -109.8960  109.3170 C.2   164  CYS164      0.2270
    111  O        -36.7300 -110.9170  109.5140 O.2   164  CYS164     -0.2867
    112  CB       -37.9130 -108.2720  111.1790 C.3   164  CYS164      0.0956
    113  SG       -37.3180 -106.9190  112.2240 S.3   164  CYS164     -0.0801
@<TRIPOS>BOND
     1    99   100    2
     2    99    98    1
     3   106   104   ar
     4   106   107   ar
     5   104   102   ar
     6   108   109    1
     7    89    90    1
     8   110   111    2
     9   110   109    1
    10   107   105   ar
    11   109   112    1
    12    98    97    1
    13    98   101    1
    14    97    91   am
    15    90    91    1
    16    90    93    1
    17   102   101    1
    18   102   103   ar
    19    91    92    2
    20    79    80    2
    21    79    78    1
    22   105   103   ar
    23   112   113    1
    24    77    78    1
    25    93    94    1
    26    95    94    1
    27    95    96    1
    28    78    81    1
    29    34    33    1
    30    81    82    1
    31    35    33    1
    32    31    30    2
    33    33    32    1
    34    30    29    1
    35    32    29    1
    36    82    84   ar
    37    82    83   ar
    38    39    38    2
    39    84    86   ar
    40    38    37    1
    41    29    28    1
    42    83    85   ar
    43    86    87   ar
    44     5     6    1
    45     5     2    1
    46     4     3    2
    47     3     2    1
    48    37    36    1
    49    37    40    1
    50    85    87   ar
    51    28    22   am
    52     6     8   ar
    53     6     7   ar
    54    87    88    1
    55     8    10   ar
    56     7     9   ar
    57     2     1    1
    58    40    41    1
    59    10    11   ar
    60     9    11   ar
    61    14    15    2
    62    14    13    1
    63    22    23    2
    64    22    21    1
    65    20    21    1
    66    16    13    1
    67    16    17    1
    68    41    42   ar
    69    41    43   ar
    70    12    13    1
    71    21    24    1
    72    42    44   ar
    73    43    45   ar
    74    54    52    1
    75    18    17    1
    76    24    26    1
    77    24    25    1
    78    17    19    1
    79    44    46   ar
    80    48    49    1
    81    45    46   ar
    82    25    27    1
    83    52    49    1
    84    52    53    1
    85    46    47    1
    86    49    50    1
    87    50    51    2
    88    68    66    1
    89    61    62    1
    90    62    65    1
    91    62    63    1
    92    66    65    1
    93    66    67    1
    94    69    70    1
    95    64    63    2
    96    70    71    1
    97    70    73    1
    98    76    74    1
    99    55    56    1
   100    74    73    1
   101    74    75    1
   102    71    72    2
   103    56    57    1
   104    56    59    1
   105    57    58    2
   106    60    59    1
