@<TRIPOS>MOLECULE
tmp/5ogeF01.pdb
 111 102 0 0 0
SMALL
GASTEIGER

@<TRIPOS>ATOM
      1  N        -33.3650 -122.6760  127.7000 N.3   122  MET122     -0.1245
      2  CA       -32.0810 -122.0150  127.9350 C.3   122  MET122      0.1570
      3  C        -31.6990 -121.0990  126.7740 C.2   122  MET122      0.2261
      4  O        -31.1360 -120.0280  127.0160 O.2   122  MET122     -0.2867
      5  CB       -30.9700 -123.0280  128.2310 C.3   122  MET122      0.0387
      6  CG       -29.8170 -122.4180  128.9790 C.3   122  MET122      0.0595
      7  SD       -28.6010 -123.6270  129.5210 S.3   122  MET122     -0.1393
      8  CE       -27.7520 -122.6540  130.7410 C.3   122  MET122      0.0692
      9  N        -33.9010 -118.1640  127.0660 N.3   125  SER125     -0.1217
     10  CA       -33.4070 -117.3150  128.1590 C.3   125  SER125      0.1889
     11  C        -32.3170 -116.3700  127.6450 C.2   125  SER125      0.2288
     12  O        -32.3070 -115.1930  128.0150 O.2   125  SER125     -0.2866
     13  CB       -32.8470 -118.1690  129.2940 C.3   125  SER125      0.2089
     14  OG       -33.8750 -118.8120  130.0270 O.3   125  SER125     -0.2183
     15  N        -32.0390 -112.2470  127.1950 N.3   129  LEU129     -0.1245
     16  CA       -30.9030 -111.5070  127.7500 C.3   129  LEU129      0.1561
     17  C        -30.2610 -110.6460  126.6560 C.2   129  LEU129      0.2260
     18  O        -29.6320 -109.6350  126.9650 O.2   129  LEU129     -0.2867
     19  CB       -29.8600 -112.4480  128.3870 C.3   129  LEU129      0.0270
     20  CG       -30.0140 -112.7400  129.8850 C.3   129  LEU129      0.0019
     21  CD1      -29.2190 -113.9710  130.2820 C.3   129  LEU129      0.0001
     22  CD2      -29.5690 -111.5540  130.7350 C.3   129  LEU129      0.0001
     23  N        -32.8230 -107.7010  126.3810 N.3   132  LEU132     -0.1245
     24  CA       -32.5540 -106.9220  127.5940 C.3   132  LEU132      0.1561
     25  C        -31.3640 -105.9840  127.3940 C.2   132  LEU132      0.2260
     26  O        -31.4610 -104.8000  127.7180 O.2   132  LEU132     -0.2867
     27  CB       -32.2600 -107.8710  128.7580 C.3   132  LEU132      0.0270
     28  CG       -31.8940 -107.2050  130.0600 C.3   132  LEU132      0.0019
     29  CD1      -33.0430 -106.3680  130.5720 C.3   132  LEU132      0.0001
     30  CD2      -31.4600 -108.2260  131.0870 C.3   132  LEU132      0.0001
     31  N        -31.4950 -101.9010  127.3070 N.3   136  VAL136     -0.1245
     32  CA       -30.7560 -101.0980  128.2950 C.3   136  VAL136      0.1561
     33  C        -29.6660 -100.2430  127.6220 C.2   136  VAL136      0.2260
     34  O        -29.1580  -99.3120  128.2460 O.2   136  VAL136     -0.2867
     35  CB       -30.2200 -101.8830  129.5200 C.3   136  VAL136      0.0252
     36  CG1      -31.3580 -102.4600  130.3490 C.3   136  VAL136      0.0019
     37  CG2      -29.2370 -102.9690  129.1200 C.3   136  VAL136      0.0019
     38  N        -31.9750  -97.4090  126.4490 N.3   139  TRP139     -0.1241
     39  CA       -32.3510  -96.7480  127.7010 C.3   139  TRP139      0.1605
     40  C        -31.1750  -95.8510  128.1330 C.2   139  TRP139      0.2264
     41  O        -31.3790  -94.6860  128.4840 O.2   139  TRP139     -0.2867
     42  CB       -32.7370  -97.8150  128.7550 C.3   139  TRP139      0.0550
     43  CG       -32.9700  -97.3830  130.1840 C.ar  139  TRP139      0.0003
     44  CD1      -32.7040  -98.1240  131.2980 C.ar  139  TRP139      0.0946
     45  CD2      -33.6130  -96.1770  130.6510 C.ar  139  TRP139      0.0152
     46  NE1      -33.0890  -97.4390  132.4300 N.ar  139  TRP139     -0.2442
     47  CE2      -33.6470  -96.2410  132.0630 C.ar  139  TRP139      0.0810
     48  CE3      -34.1510  -95.0380  130.0150 C.ar  139  TRP139      0.0012
     49  CZ2      -34.1830  -95.2110  132.8490 C.ar  139  TRP139      0.0191
     50  CZ3      -34.6770  -94.0170  130.7950 C.ar  139  TRP139      0.0001
     51  CH2      -34.6950  -94.1110  132.1920 C.ar  139  TRP139      0.0015
     52  N        -23.2740  -95.6120  132.8200 N.3   278  PHE278     -0.1227
     53  CA       -23.1950  -96.9620  133.3820 C.3   278  PHE278      0.1736
     54  C        -24.1090  -97.9400  132.6380 C.2   278  PHE278      0.2595
     55  O        -23.7350  -99.0970  132.4660 O.2   278  PHE278     -0.2718
     56  CB       -23.4880  -96.9580  134.9010 C.3   278  PHE278      0.0547
     57  CG       -23.6990  -98.3170  135.5330 C.ar  278  PHE278     -0.0202
     58  CD1      -22.6220  -99.1530  135.8010 C.ar  278  PHE278     -0.0042
     59  CD2      -24.9760  -98.7590  135.8610 C.ar  278  PHE278     -0.0042
     60  CE1      -22.8210 -100.4150  136.3690 C.ar  278  PHE278     -0.0003
     61  CE2      -25.1730 -100.0170  136.4350 C.ar  278  PHE278     -0.0003
     62  CZ       -24.0950 -100.8360  136.6870 C.ar  278  PHE278     -0.0000
     63  N        -25.2880  -97.4720  132.1980 N.am  279  LEU279     -0.1980
     64  CA       -26.2800  -98.2740  131.4760 C.3   279  LEU279      0.1596
     65  C        -25.7340  -98.8520  130.1630 C.2   279  LEU279      0.2287
     66  O        -25.9770 -100.0260  129.8710 O.2   279  LEU279     -0.2864
     67  CB       -27.5580  -97.4640  131.2200 C.3   279  LEU279      0.0297
     68  CG       -28.3260  -97.0260  132.4590 C.3   279  LEU279      0.0022
     69  CD1      -28.7840  -95.5930  132.3330 C.3   279  LEU279      0.0001
     70  CD2      -29.4780  -97.9590  132.7470 C.3   279  LEU279      0.0001
     71  N        -23.2580 -101.4660  131.1560 N.3   282  LEU282     -0.1245
     72  CA       -24.0540 -102.5900  131.6490 C.3   282  LEU282      0.1561
     73  C        -24.6300 -103.4240  130.4930 C.2   282  LEU282      0.2260
     74  O        -24.6180 -104.6530  130.5760 O.2   282  LEU282     -0.2867
     75  CB       -25.1730 -102.0840  132.5820 C.3   282  LEU282      0.0270
     76  CG       -26.0650 -103.1240  133.2640 C.3   282  LEU282      0.0019
     77  CD1      -25.3060 -103.9270  134.2960 C.3   282  LEU282      0.0001
     78  CD2      -27.2410 -102.4650  133.9160 C.3   282  LEU282      0.0001
     79  N        -24.3270 -107.5040  129.8420 N.3   286  ILE286     -0.1245
     80  CA       -25.5880 -108.2690  129.7830 C.3   286  ILE286      0.1561
     81  C        -25.5510 -109.0890  128.4760 C.2   286  ILE286      0.2260
     82  O        -25.8470 -110.2870  128.4870 O.2   286  ILE286     -0.2867
     83  CB       -26.8660 -107.3740  129.9020 C.3   286  ILE286      0.0252
     84  CG1      -26.9820 -106.7480  131.3090 C.3   286  ILE286      0.0019
     85  CG2      -28.1470 -108.1650  129.5560 C.3   286  ILE286      0.0019
     86  CD1      -28.0460 -105.6560  131.4580 C.3   286  ILE286      0.0001
     87  N        -23.2670 -112.0360  128.9270 N.3   289  LEU289     -0.1245
     88  CA       -23.9500 -113.0750  129.7090 C.3   289  LEU289      0.1561
     89  C        -24.9090 -113.8830  128.8230 C.2   289  LEU289      0.2260
     90  O        -25.0890 -115.0830  129.0400 O.2   289  LEU289     -0.2867
     91  CB       -24.6940 -112.4450  130.9030 C.3   289  LEU289      0.0270
     92  CG       -25.5520 -113.3650  131.7870 C.3   289  LEU289      0.0019
     93  CD1      -24.7000 -114.3570  132.5730 C.3   289  LEU289      0.0001
     94  CD2      -26.4200 -112.5480  132.7170 C.3   289  LEU289      0.0001
     95  N        -24.4580 -117.9070  128.2820 N.3   293  ILE293     -0.1245
     96  CA       -25.5140 -118.8800  128.5830 C.3   293  ILE293      0.1561
     97  C        -26.0440 -119.5410  127.2840 C.2   293  ILE293      0.2260
     98  O        -26.5730 -120.6510  127.3540 O.2   293  ILE293     -0.2867
     99  CB       -26.6420 -118.3580  129.5280 C.3   293  ILE293      0.0252
    100  CG1      -27.6270 -117.4150  128.8280 C.3   293  ILE293      0.0019
    101  CG2      -26.0790 -117.7170  130.8140 C.3   293  ILE293      0.0019
    102  CD1      -29.0580 -117.6690  129.2830 C.3   293  ILE293      0.0001
    103  N        -25.5720 -128.1510  126.1600 N.3   300  LYS300     -0.1245
    104  CA       -26.6330 -128.9240  126.8010 C.3   300  LYS300      0.1561
    105  C        -27.3430 -129.8040  125.7630 C.2   300  LYS300      0.2260
    106  O        -27.6030 -130.9770  126.0360 O.2   300  LYS300     -0.2867
    107  CB       -27.6350 -127.9790  127.4830 C.3   300  LYS300      0.0271
    108  CG       -27.9030 -128.3280  128.9350 C.3   300  LYS300      0.0035
    109  CD       -27.3070 -127.3000  129.8740 C.3   300  LYS300      0.0206
    110  CE       -27.5630 -127.6480  131.3190 C.3   300  LYS300      0.1093
    111  NZ       -27.2590 -126.5090  132.2240 N.3   300  LYS300     -0.1314
@<TRIPOS>BOND
     1   105   106    2
     2   105   104    1
     3   103   104    1
     4    23    24    1
     5    38    39    1
     6    17    18    2
     7    17    16    1
     8     3     4    2
     9     3     2    1
    10   104   107    1
    11     9    10    1
    12    15    16    1
    13    97    98    2
    14    97    96    1
    15    31    32    1
    16    25    24    1
    17    25    26    2
    18   107   108    1
    19    24    27    1
    20    33    34    2
    21    33    32    1
    22    11    12    2
    23    11    10    1
    24     1     2    1
    25    39    40    1
    26    39    42    1
    27    16    19    1
    28     2     5    1
    29    40    41    2
    30    10    13    1
    31     5     6    1
    32    95    96    1
    33    32    35    1
    34    19    20    1
    35    81    82    2
    36    81    80    1
    37    96    99    1
    38    42    43    1
    39    27    28    1
    40    89    90    2
    41    89    88    1
    42   100   102    1
    43   100    99    1
    44    87    88    1
    45   108   109    1
    46     6     7    1
    47    37    35    1
    48    13    14    1
    49    35    36    1
    50     7     8    1
    51    99   101    1
    52    85    83    1
    53    88    91    1
    54    80    79    1
    55    80    83    1
    56    66    65    2
    57   109   110    1
    58    20    21    1
    59    20    22    1
    60    83    84    1
    61    48    45   ar
    62    48    50   ar
    63    28    29    1
    64    28    30    1
    65    65    64    1
    66    43    45   ar
    67    43    44   ar
    68    73    74    2
    69    73    72    1
    70    45    47   ar
    71    50    51   ar
    72    91    92    1
    73    71    72    1
    74    67    64    1
    75    67    68    1
    76    44    46   ar
    77    84    86    1
    78   110   111    1
    79    64    63    1
    80    72    75    1
    81    92    93    1
    82    92    94    1
    83    47    46   ar
    84    47    49   ar
    85    51    49   ar
    86    63    54   am
    87    69    68    1
    88    68    70    1
    89    55    54    2
    90    75    76    1
    91    54    53    1
    92    52    53    1
    93    76    78    1
    94    76    77    1
    95    53    56    1
    96    56    57    1
    97    57    58   ar
    98    57    59   ar
    99    58    60   ar
   100    59    61   ar
   101    60    62   ar
   102    61    62   ar
