@<TRIPOS>MOLECULE
tmp/5ogiA01.pdb
 104 100 0 0 0
SMALL
GASTEIGER

@<TRIPOS>ATOM
      1  N        -62.0800   31.5940  -17.9560 N.3   487  LEU487     -0.1245
      2  CA       -61.6510   31.0380  -16.6760 C.3   487  LEU487      0.1561
      3  C        -62.6510   31.3420  -15.5700 C.2   487  LEU487      0.2260
      4  O        -62.7270   30.5990  -14.5880 O.2   487  LEU487     -0.2867
      5  CB       -60.2660   31.5660  -16.2960 C.3   487  LEU487      0.0270
      6  CG       -59.0960   30.9750  -17.0870 C.3   487  LEU487      0.0019
      7  CD1      -58.9040   31.7230  -18.3820 C.3   487  LEU487      0.0001
      8  CD2      -57.8130   30.9970  -16.2730 C.3   487  LEU487      0.0001
      9  N        -69.2940   28.8500  -14.1910 N.3   492  ILE492     -0.1231
     10  CA       -68.3560   28.3660  -13.1850 C.3   492  ILE492      0.1692
     11  C        -69.1230   27.8050  -11.9980 C.2   492  ILE492      0.2592
     12  O        -70.0030   28.4720  -11.4390 O.2   492  ILE492     -0.2718
     13  CB       -67.4090   29.4900  -12.7450 C.3   492  ILE492      0.0266
     14  CG1      -68.2060   30.6900  -12.2100 C.3   492  ILE492      0.0019
     15  CG2      -66.5120   29.8870  -13.8980 C.3   492  ILE492      0.0020
     16  CD1      -67.3600   31.8100  -11.6700 C.3   492  ILE492      0.0001
     17  N        -68.7840   26.5780  -11.6030 N.am  493  ASN493     -0.1974
     18  CA       -69.3800   25.9220  -10.4400 C.3   493  ASN493      0.1688
     19  C        -70.8580   26.2770  -10.3230 C.2   493  ASN493      0.2292
     20  O        -71.3540   26.6890   -9.2720 O.2   493  ASN493     -0.2864
     21  CB       -68.6200   26.2940   -9.1690 C.3   493  ASN493      0.1181
     22  CG       -67.1470   25.9490   -9.2530 C.2   493  ASN493      0.2629
     23  OD1      -66.7640   24.9490   -9.8580 O.2   493  ASN493     -0.2716
     24  ND2      -66.3100   26.7840   -8.6510 N.am  493  ASN493     -0.0877
     25  N        -69.1890   28.4630   -3.6660 N.3   498  TRP498     -0.1241
     26  CA       -67.8280   27.9520   -3.7390 C.3   498  TRP498      0.1605
     27  C        -66.8800   29.0580   -4.1710 C.2   498  TRP498      0.2264
     28  O        -67.0840   29.6810   -5.2170 O.2   498  TRP498     -0.2867
     29  CB       -67.7530   26.7800   -4.7220 C.3   498  TRP498      0.0550
     30  CG       -66.4150   26.1310   -4.8020 C.ar  498  TRP498      0.0003
     31  CD1      -65.4240   26.4090   -5.6940 C.ar  498  TRP498      0.0946
     32  CD2      -65.9180   25.0850   -3.9600 C.ar  498  TRP498      0.0152
     33  NE1      -64.3390   25.6000   -5.4620 N.ar  498  TRP498     -0.2442
     34  CE2      -64.6150   24.7790   -4.4010 C.ar  498  TRP498      0.0810
     35  CE3      -66.4470   24.3790   -2.8760 C.ar  498  TRP498      0.0012
     36  CZ2      -63.8340   23.7970   -3.7960 C.ar  498  TRP498      0.0191
     37  CZ3      -65.6710   23.4050   -2.2760 C.ar  498  TRP498      0.0001
     38  CH2      -64.3780   23.1230   -2.7380 C.ar  498  TRP498      0.0015
     39  N        -63.2280   30.1730   -5.5750 N.3   500  LEU500     -0.1231
     40  CA       -62.2340   29.5560   -6.4400 C.3   500  LEU500      0.1693
     41  C        -60.9940   29.1770   -5.6400 C.2   500  LEU500      0.2592
     42  O        -60.5040   29.9520   -4.8140 O.2   500  LEU500     -0.2718
     43  CB       -61.8590   30.5030   -7.5790 C.3   500  LEU500      0.0284
     44  CG       -63.0230   31.0920   -8.3820 C.3   500  LEU500      0.0019
     45  CD1      -62.5050   31.7650   -9.6480 C.3   500  LEU500      0.0001
     46  CD2      -64.0650   30.0330   -8.7250 C.3   500  LEU500      0.0001
     47  N        -60.4900   27.9660   -5.8870 N.am  501  ASP501     -0.1960
     48  CA       -59.2850   27.5130   -5.2000 C.3   501  ASP501      0.1840
     49  C        -58.1190   28.4630   -5.4530 C.2   501  ASP501      0.2622
     50  O        -57.3500   28.7710   -4.5350 O.2   501  ASP501     -0.2715
     51  CB       -58.9280   26.0930   -5.6450 C.3   501  ASP501      0.1450
     52  CG       -59.8710   25.0420   -5.0750 C.2   501  ASP501      0.3671
     53  OD1      -60.4580   25.2800   -3.9980 O.co2 501  ASP501     -0.2456
     54  OD2      -60.0200   23.9710   -5.7040 O.co2 501  ASP501     -0.2456
     55  N        -57.9750   28.9450   -6.6900 N.am  502  TYR502     -0.1974
     56  CA       -56.8850   29.8610   -7.0060 C.3   502  TYR502      0.1639
     57  C        -57.0110   31.1910   -6.2750 C.2   502  TYR502      0.2290
     58  O        -56.0070   31.8950   -6.1250 O.2   502  TYR502     -0.2864
     59  CB       -56.8170   30.1150   -8.5130 C.3   502  TYR502      0.0560
     60  CG       -56.1730   28.9960   -9.3050 C.ar  502  TYR502     -0.0198
     61  CD1      -54.8190   28.7140   -9.1720 C.ar  502  TYR502     -0.0009
     62  CD2      -56.9150   28.2330  -10.1950 C.ar  502  TYR502     -0.0009
     63  CE1      -54.2250   27.6970   -9.8950 C.ar  502  TYR502      0.0417
     64  CE2      -56.3300   27.2140  -10.9230 C.ar  502  TYR502      0.0417
     65  CZ       -54.9860   26.9510  -10.7700 C.ar  502  TYR502      0.1957
     66  OH       -54.3990   25.9360  -11.4930 O.3   502  TYR502     -0.2866
     67  N        -68.7200   21.3360   -3.0680 N.3   777  ARG777     -0.1245
     68  CA       -69.0800   21.3300   -4.4800 C.3   777  ARG777      0.1563
     69  C        -68.8570   19.9310   -5.0370 C.2   777  ARG777      0.2260
     70  O        -68.2070   19.0870   -4.4150 O.2   777  ARG777     -0.2867
     71  CB       -68.2700   22.3600   -5.2750 C.3   777  ARG777      0.0307
     72  CG       -66.7950   21.9990   -5.4720 C.3   777  ARG777      0.0489
     73  CD       -66.1890   22.7580   -6.6390 C.3   777  ARG777      0.2205
     74  NE       -64.8210   22.3280   -6.9100 N.pl3 777  ARG777     -0.0865
     75  CZ       -64.0690   22.7930   -7.9020 C.cat 777  ARG777      0.5346
     76  NH1      -62.8340   22.3380   -8.0660 N.pl3 777  ARG777      0.1354
     77  NH2      -64.5440   23.7120   -8.7330 N.pl3 777  ARG777      0.1354
     78  N        -67.5710   17.8100   -8.6390 N.3   779  VAL779     -0.1245
     79  CA       -66.7290   17.9370   -9.8200 C.3   779  VAL779      0.1561
     80  C        -66.6950   16.5880  -10.5230 C.2   779  VAL779      0.2260
     81  O        -66.8390   15.5360   -9.8930 O.2   779  VAL779     -0.2867
     82  CB       -65.2970   18.3970   -9.4630 C.3   779  VAL779      0.0252
     83  CG1      -64.5250   18.7740  -10.7180 C.3   779  VAL779      0.0019
     84  CG2      -65.3290   19.5670   -8.4860 C.3   779  VAL779      0.0019
     85  N        -68.2480   22.1670  -22.8910 N.3   820  PHE820     -0.1241
     86  CA       -67.7880   22.4460  -21.5380 C.3   820  PHE820      0.1605
     87  C        -68.7830   23.3880  -20.8700 C.2   820  PHE820      0.2264
     88  O        -69.3210   24.2810  -21.5380 O.2   820  PHE820     -0.2867
     89  CB       -66.3880   23.0620  -21.5830 C.3   820  PHE820      0.0534
     90  CG       -65.7880   23.3270  -20.2320 C.ar  820  PHE820     -0.0203
     91  CD1      -66.0180   24.5290  -19.5860 C.ar  820  PHE820     -0.0042
     92  CD2      -64.9780   22.3810  -19.6150 C.ar  820  PHE820     -0.0042
     93  CE1      -65.4650   24.7820  -18.3450 C.ar  820  PHE820     -0.0003
     94  CE2      -64.4210   22.6280  -18.3730 C.ar  820  PHE820     -0.0003
     95  CZ       -64.6640   23.8300  -17.7380 C.ar  820  PHE820     -0.0000
     96  N        -65.9680   17.8200   -3.0220 N.3   835  GLN835     -0.1245
     97  CA       -64.8750   18.5310   -2.3740 C.3   835  GLN835      0.1566
     98  C        -65.4470   19.4520   -1.3080 C.2   835  GLN835      0.2260
     99  O        -66.3090   20.2850   -1.6030 O.2   835  GLN835     -0.2867
    100  CB       -64.0610   19.3470   -3.3830 C.3   835  GLN835      0.0367
    101  CG       -63.4240   18.5270   -4.4890 C.3   835  GLN835      0.0905
    102  CD       -62.6350   19.3830   -5.4680 C.2   835  GLN835      0.2608
    103  OE1      -62.5940   20.6080   -5.3450 O.2   835  GLN835     -0.2717
    104  NE2      -62.0060   18.7400   -6.4480 N.am  835  GLN835     -0.0878
@<TRIPOS>BOND
     1    85    86    1
     2    89    86    1
     3    89    90    1
     4    86    87    1
     5    88    87    2
     6    90    92   ar
     7    90    91   ar
     8    92    94   ar
     9    91    93   ar
    10     7     6    1
    11    94    95   ar
    12    93    95   ar
    13     1     2    1
    14     6     5    1
    15     6     8    1
    16     2     5    1
    17     2     3    1
    18     3     4    2
    19     9    10    1
    20    15    13    1
    21    10    13    1
    22    10    11    1
    23    13    14    1
    24    14    16    1
    25    11    17   am
    26    11    12    2
    27    17    18    1
    28    66    65    1
    29    64    65   ar
    30    64    62   ar
    31    65    63   ar
    32    83    82    1
    33    80    81    2
    34    80    79    1
    35    18    19    1
    36    18    21    1
    37    19    20    2
    38    62    60   ar
    39    63    61   ar
    40    23    22    2
    41    79    82    1
    42    79    78    1
    43    45    44    1
    44    82    84    1
    45    60    61   ar
    46    60    59    1
    47    22    21    1
    48    22    24   am
    49    77    75    1
    50    46    44    1
    51    59    56    1
    52    44    43    1
    53    76    75    1
    54    75    74    2
    55    43    40    1
    56    56    55    1
    57    56    57    1
    58    74    73    1
    59    55    49   am
    60    73    72    1
    61   104   102   am
    62    40    41    1
    63    40    39    1
    64    57    58    2
    65    47    41   am
    66    47    48    1
    67    54    52   ar
    68    31    33   ar
    69    31    30   ar
    70    51    48    1
    71    51    52    1
    72    41    42    2
    73    72    71    1
    74   102   103    2
    75   102   101    1
    76    33    34   ar
    77    49    48    1
    78    49    50    2
    79    71    68    1
    80    28    27    2
    81    52    53   ar
    82    69    68    1
    83    69    70    2
    84    30    29    1
    85    30    32   ar
    86    29    26    1
    87   101   100    1
    88    68    67    1
    89    34    32   ar
    90    34    36   ar
    91    27    26    1
    92    32    35   ar
    93    36    38   ar
    94    26    25    1
    95   100    97    1
    96    96    97    1
    97    35    37   ar
    98    38    37   ar
    99    97    98    1
   100    99    98    2
