@<TRIPOS>MOLECULE
tmp/5ogiA02.pdb
 94 90 0 0 0
SMALL
GASTEIGER

@<TRIPOS>ATOM
      1  N        -62.3490   46.9220   17.6600 N.3   349  ASP349     -0.1239
      2  CA       -63.4010   45.9470   17.3940 C.3   349  ASP349      0.1674
      3  C        -64.1230   45.5550   18.6760 C.2   349  ASP349      0.2266
      4  O        -65.3490   45.3950   18.6830 O.2   349  ASP349     -0.2867
      5  CB       -62.8120   44.7100   16.7180 C.3   349  ASP349      0.1410
      6  CG       -63.8480   43.6270   16.4850 C.2   349  ASP349      0.3668
      7  OD1      -64.8640   43.9100   15.8140 O.co2 349  ASP349     -0.2456
      8  OD2      -63.6470   42.4920   16.9720 O.co2 349  ASP349     -0.2456
      9  N        -66.3830   48.9720   19.8950 N.3   352  GLY352     -0.1210
     10  CA       -67.5000   49.4060   19.0790 C.3   352  GLY352      0.1956
     11  C        -67.7140   48.6070   17.8100 C.2   352  GLY352      0.2612
     12  O        -67.3140   47.4430   17.7130 O.2   352  GLY352     -0.2717
     13  N        -68.3500   49.2390   16.8280 N.am  353  ASP353     -0.1959
     14  CA       -68.7640   48.5890   15.5900 C.3   353  ASP353      0.1840
     15  C        -67.8790   49.0950   14.4560 C.2   353  ASP353      0.2622
     16  O        -68.0190   50.2430   14.0180 O.2   353  ASP353     -0.2715
     17  CB       -70.2390   48.8770   15.3160 C.3   353  ASP353      0.1450
     18  CG       -70.7740   48.1140   14.1250 C.2   353  ASP353      0.3671
     19  OD1      -69.9850   47.4050   13.4640 O.co2 353  ASP353     -0.2456
     20  OD2      -71.9880   48.2250   13.8500 O.co2 353  ASP353     -0.2456
     21  N        -66.9730   48.2390   13.9770 N.am  354  ARG354     -0.1963
     22  CA       -66.0580   48.6330   12.9110 C.3   354  ARG354      0.1729
     23  C        -66.7570   48.8500   11.5760 C.2   354  ARG354      0.2616
     24  O        -66.1430   49.4160   10.6650 O.2   354  ARG354     -0.2715
     25  CB       -64.9540   47.5830   12.7450 C.3   354  ARG354      0.0348
     26  CG       -64.0210   47.4490   13.9390 C.3   354  ARG354      0.0492
     27  CD       -63.1750   48.6950   14.1850 C.3   354  ARG354      0.2205
     28  NE       -62.0810   48.8440   13.2270 N.pl3 354  ARG354     -0.0865
     29  CZ       -61.9710   49.8080   12.3130 C.cat 354  ARG354      0.5346
     30  NH1      -62.8890   50.7540   12.2020 N.pl3 354  ARG354      0.1354
     31  NH2      -60.9190   49.8290   11.5040 N.pl3 354  ARG354      0.1354
     32  N        -68.0120   48.4200   11.4300 N.am  355  THR355     -0.1951
     33  CA       -68.7410   48.6920   10.1970 C.3   355  THR355      0.1897
     34  C        -69.0430   50.1740   10.0260 C.2   355  THR355      0.2313
     35  O        -69.3580   50.6030    8.9110 O.2   355  THR355     -0.2863
     36  CB       -70.0490   47.9040   10.1630 C.3   355  THR355      0.1794
     37  OG1      -70.8590   48.2760   11.2830 O.3   355  THR355     -0.2208
     38  CG2      -69.7730   46.4080   10.2010 C.3   355  THR355      0.0378
     39  N        -74.7020   38.0300   19.3430 N.3   760  SER760     -0.1202
     40  CA       -74.0770   38.9280   18.3780 C.3   760  SER760      0.2020
     41  C        -72.9600   39.7430   19.0190 C.2   760  SER760      0.2618
     42  O        -71.8810   39.8950   18.4340 O.2   760  SER760     -0.2717
     43  CB       -75.1310   39.8490   17.7630 C.3   760  SER760      0.2103
     44  OG       -75.7580   40.6420   18.7550 O.3   760  SER760     -0.2182
     45  N        -73.1910   40.2710   20.2250 N.am  761  TYR761     -0.1975
     46  CA       -72.1820   41.1160   20.8590 C.3   761  TYR761      0.1639
     47  C        -70.9170   40.3320   21.1880 C.2   761  TYR761      0.2290
     48  O        -69.8210   40.9030   21.1910 O.2   761  TYR761     -0.2864
     49  CB       -72.7530   41.7710   22.1190 C.3   761  TYR761      0.0560
     50  CG       -72.8280   40.8640   23.3280 C.ar  761  TYR761     -0.0198
     51  CD1      -73.9290   40.0430   23.5400 C.ar  761  TYR761     -0.0009
     52  CD2      -71.8030   40.8390   24.2650 C.ar  761  TYR761     -0.0009
     53  CE1      -74.0010   39.2170   24.6470 C.ar  761  TYR761      0.0417
     54  CE2      -71.8670   40.0170   25.3730 C.ar  761  TYR761      0.0417
     55  CZ       -72.9680   39.2080   25.5590 C.ar  761  TYR761      0.1957
     56  OH       -73.0360   38.3870   26.6610 O.3   761  TYR761     -0.2866
     57  N        -69.9470   37.7010   19.2870 N.3   763  ASP763     -0.1225
     58  CA       -69.4200   37.3340   17.9750 C.3   763  ASP763      0.1805
     59  C        -69.1930   38.6240   17.1930 C.2   763  ASP763      0.2598
     60  O        -70.1170   39.1540   16.5700 O.2   763  ASP763     -0.2718
     61  CB       -70.3910   36.4020   17.2540 C.3   763  ASP763      0.1424
     62  CG       -69.7840   35.7580   16.0240 C.2   763  ASP763      0.3668
     63  OD1      -68.5420   35.6560   15.9530 O.co2 763  ASP763     -0.2456
     64  OD2      -70.5500   35.3570   15.1240 O.co2 763  ASP763     -0.2456
     65  N        -67.9640   39.1300   17.2250 N.am  764  ARG764     -0.1966
     66  CA       -67.6440   40.4130   16.6230 C.3   764  ARG764      0.1729
     67  C        -66.9360   40.2090   15.2830 C.2   764  ARG764      0.2616
     68  O        -66.9160   39.1070   14.7250 O.2   764  ARG764     -0.2715
     69  CB       -66.8230   41.2440   17.6100 C.3   764  ARG764      0.0348
     70  CG       -67.6050   41.5890   18.8650 C.3   764  ARG764      0.0492
     71  CD       -66.9700   42.7090   19.6620 C.3   764  ARG764      0.2205
     72  NE       -67.9740   43.4650   20.4070 N.pl3 764  ARG764     -0.0865
     73  CZ       -68.4560   44.6570   20.0600 C.cat 764  ARG764      0.5346
     74  NH1      -68.0250   45.2750   18.9710 N.pl3 764  ARG764      0.1354
     75  NH2      -69.3750   45.2430   20.8190 N.pl3 764  ARG764      0.1354
     76  N        -66.3490   41.2860   14.7540 N.am  765  MET765     -0.1977
     77  CA       -65.8550   41.2670   13.3790 C.3   765  MET765      0.1605
     78  C        -64.6890   40.3000   13.2090 C.2   765  MET765      0.2287
     79  O        -64.6030   39.6000   12.1930 O.2   765  MET765     -0.2864
     80  CB       -65.4460   42.6750   12.9530 C.3   765  MET765      0.0413
     81  CG       -64.9520   42.7580   11.5170 C.3   765  MET765      0.0598
     82  SD       -64.7340   44.4530   10.9400 S.3   765  MET765     -0.1393
     83  CE       -66.4380   45.0040   10.8330 C.3   765  MET765      0.0692
     84  N        -68.2580   34.3610   13.2140 N.3   770  ARG770     -0.1245
     85  CA       -68.6590   35.3970   12.2670 C.3   770  ARG770      0.1563
     86  C        -68.0540   35.1580   10.8870 C.2   770  ARG770      0.2260
     87  O        -68.6870   35.4460    9.8640 O.2   770  ARG770     -0.2867
     88  CB       -68.2420   36.7710   12.7990 C.3   770  ARG770      0.0307
     89  CG       -68.6460   37.9480   11.9210 C.3   770  ARG770      0.0489
     90  CD       -70.1390   38.2180   11.9980 C.3   770  ARG770      0.2205
     91  NE       -70.5530   38.6140   13.3410 N.pl3 770  ARG770     -0.0865
     92  CZ       -71.8000   38.9250   13.6820 C.cat 770  ARG770      0.5346
     93  NH1      -72.7730   38.8900   12.7790 N.pl3 770  ARG770      0.1354
     94  NH2      -72.0780   39.2750   14.9300 N.pl3 770  ARG770      0.1354
@<TRIPOS>BOND
     1    35    34    2
     2    87    86    2
     3    34    33    1
     4    36    33    1
     5    36    38    1
     6    36    37    1
     7    33    32    1
     8    24    23    2
     9    83    82    1
    10    86    85    1
    11    82    81    1
    12    32    23   am
    13    31    29    1
    14    81    80    1
    15    23    22    1
    16    89    90    1
    17    89    88    1
    18    90    91    1
    19    79    78    2
    20    30    29    1
    21    85    88    1
    22    85    84    1
    23    29    28    2
    24    25    22    1
    25    25    26    1
    26    93    92    1
    27    22    21    1
    28    80    77    1
    29    78    77    1
    30    28    27    1
    31    91    92    2
    32    77    76    1
    33    19    18   ar
    34    92    94    1
    35    20    18   ar
    36    26    27    1
    37    21    15   am
    38    16    15    2
    39    18    17    1
    40    15    14    1
    41    68    67    2
    42    76    67   am
    43    64    62   ar
    44    67    66    1
    45    17    14    1
    46    14    13    1
    47     7     6   ar
    48    63    62   ar
    49    62    61    1
    50     6     5    1
    51     6     8   ar
    52    60    59    2
    53    66    65    1
    54    66    69    1
    55     5     2    1
    56    13    11   am
    57    59    65   am
    58    59    58    1
    59    61    58    1
    60     2     1    1
    61     2     3    1
    62    69    70    1
    63    12    11    2
    64    43    40    1
    65    43    44    1
    66    11    10    1
    67    58    57    1
    68    40    41    1
    69    40    39    1
    70    42    41    2
    71     3     4    2
    72    70    71    1
    73    74    73    1
    74    41    45   am
    75    10     9    1
    76    71    72    1
    77    73    72    2
    78    73    75    1
    79    45    46    1
    80    46    47    1
    81    46    49    1
    82    47    48    2
    83    49    50    1
    84    50    51   ar
    85    50    52   ar
    86    51    53   ar
    87    52    54   ar
    88    53    55   ar
    89    54    55   ar
    90    55    56    1
