@<TRIPOS>MOLECULE
tmp/5ogjA03.pdb
 130 126 0 0 0
SMALL
GASTEIGER

@<TRIPOS>ATOM
      1  N        -40.7080  -27.7790   27.2670 N.3    69  ASN69      -0.1240
      2  CA       -40.0570  -27.8110   25.9660 C.3    69  ASN69       0.1653
      3  C        -39.8860  -26.4100   25.4810 C.2    69  ASN69       0.2266
      4  O        -40.8960  -25.6810   25.3290 O.2    69  ASN69      -0.2867
      5  CB       -40.9260  -28.5280   24.9370 C.3    69  ASN69       0.1155
      6  CG       -41.0140  -29.9860   25.0590 C.2    69  ASN69       0.2627
      7  OD1      -40.1970  -30.6220   25.7700 O.2    69  ASN69      -0.2716
      8  ND2      -42.0020  -30.5700   24.4080 N.am   69  ASN69      -0.0877
      9  N        -39.1540  -24.6620   22.1350 N.3    71  ASP71      -0.1239
     10  CA       -39.1440  -24.9540   20.7060 C.3    71  ASP71       0.1674
     11  C        -38.4920  -23.8250   19.9670 C.2    71  ASP71       0.2266
     12  O        -38.6850  -22.6360   20.2690 O.2    71  ASP71      -0.2867
     13  CB       -40.5130  -25.1850   20.2430 C.3    71  ASP71       0.1410
     14  CG       -41.0490  -26.6000   20.7970 C.2    71  ASP71       0.3668
     15  OD1      -40.2390  -27.5330   21.1940 O.co2  71  ASP71      -0.2456
     16  OD2      -42.2630  -26.6720   21.0340 O.co2  71  ASP71      -0.2456
     17  N        -33.7060  -27.8740   17.4260 N.3    93  ARG93      -0.1231
     18  CA       -35.1480  -28.0070   17.4840 C.3    93  ARG93       0.1694
     19  C        -35.7480  -27.7300   18.8500 C.2    93  ARG93       0.2591
     20  O        -36.7240  -26.9980   18.9400 O.2    93  ARG93      -0.2718
     21  CB       -35.4990  -29.4700   17.0870 C.3    93  ARG93       0.0321
     22  CG       -36.9140  -29.9270   17.2710 C.3    93  ARG93       0.0489
     23  CD       -37.8370  -29.3660   16.3080 C.3    93  ARG93       0.2205
     24  NE       -39.1610  -29.9660   16.3460 N.pl3  93  ARG93      -0.0865
     25  CZ       -40.0750  -29.7970   15.3890 C.cat  93  ARG93       0.5346
     26  NH1      -39.7980  -29.0490   14.3260 N.pl3  93  ARG93       0.1354
     27  NH2      -41.2620  -30.3760   15.4960 N.pl3  93  ARG93       0.1354
     28  N        -35.2020  -28.3560   19.9070 N.am   94  GLN94      -0.1979
     29  CA       -35.8740  -28.3820   21.2060 C.3    94  GLN94       0.1601
     30  C        -34.8390  -28.4030   22.3210 C.2    94  GLN94       0.2287
     31  O        -33.7620  -29.0130   22.1960 O.2    94  GLN94      -0.2864
     32  CB       -36.7720  -29.6970   21.3390 C.3    94  GLN94       0.0394
     33  CG       -37.6630  -29.5960   22.5710 C.3    94  GLN94       0.0908
     34  CD       -38.5010  -30.7670   22.6690 C.2    94  GLN94       0.2608
     35  OE1      -39.6120  -30.7690   22.0750 O.2    94  GLN94      -0.2717
     36  NE2      -37.9580  -31.8240   23.2080 N.am   94  GLN94      -0.0878
     37  N        -35.1600  -29.4520   26.5830 N.3    96  HIS96      -0.1241
     38  CA       -35.9980  -29.8930   27.7170 C.3    96  HIS96       0.1621
     39  C        -35.0720  -30.4020   28.8100 C.2    96  HIS96       0.2264
     40  O        -33.8570  -30.4470   28.6670 O.2    96  HIS96      -0.2867
     41  CB       -37.0470  -30.8970   27.3080 C.3    96  HIS96       0.0745
     42  CG       -36.4720  -32.1680   26.8060 C.ar   96  HIS96       0.0817
     43  ND1      -36.2490  -32.4150   25.4840 N.ar   96  HIS96      -0.2268
     44  CD2      -35.9710  -33.2390   27.4530 C.ar   96  HIS96       0.1154
     45  CE1      -35.6640  -33.6270   25.3600 C.ar   96  HIS96       0.1986
     46  NE2      -35.4830  -34.1550   26.5360 N.ar   96  HIS96      -0.2212
     47  N        -31.8460  -30.8820   21.4850 N.3   123  VAL123     -0.1245
     48  CA       -32.1750  -31.7790   20.3920 C.3   123  VAL123      0.1561
     49  C        -32.0120  -31.0830   19.0630 C.2   123  VAL123      0.2260
     50  O        -32.5780  -30.0120   18.8650 O.2   123  VAL123     -0.2867
     51  CB       -33.5910  -32.3130   20.5590 C.3   123  VAL123      0.0252
     52  CG1      -33.9410  -33.3040   19.4430 C.3   123  VAL123      0.0019
     53  CG2      -33.8180  -32.9310   21.9310 C.3   123  VAL123      0.0019
     54  N        -37.8630  -32.5770   11.1440 N.3   133  PHE133     -0.1227
     55  CA       -37.4940  -33.2480   12.4110 C.3   133  PHE133      0.1736
     56  C        -38.1770  -34.6580   12.5130 C.2   133  PHE133      0.2595
     57  O        -37.5230  -35.6620   12.8430 O.2   133  PHE133     -0.2718
     58  CB       -37.8980  -32.4010   13.5890 C.3   133  PHE133      0.0547
     59  CG       -37.7180  -33.1490   14.9070 C.ar  133  PHE133     -0.0202
     60  CD1      -36.5100  -33.2140   15.4510 C.ar  133  PHE133     -0.0042
     61  CD2      -38.7540  -33.8370   15.4960 C.ar  133  PHE133     -0.0042
     62  CE1      -36.3320  -33.9530   16.6800 C.ar  133  PHE133     -0.0003
     63  CE2      -38.6130  -34.5830   16.6500 C.ar  133  PHE133     -0.0003
     64  CZ       -37.3810  -34.6120   17.2140 C.ar  133  PHE133     -0.0000
     65  N        -39.4810  -34.4940   12.3410 N.am  134  VAL134     -0.1980
     66  CA       -40.2930  -35.6240   12.4530 C.3   134  VAL134      0.1595
     67  C        -39.6680  -36.7640   11.5640 C.2   134  VAL134      0.2287
     68  O        -39.5650  -37.8990   12.0550 O.2   134  VAL134     -0.2864
     69  CB       -41.7810  -35.3320   12.0760 C.3   134  VAL134      0.0276
     70  CG1      -42.5560  -36.6440   11.8090 C.3   134  VAL134      0.0022
     71  CG2      -42.4680  -34.4580   13.1450 C.3   134  VAL134      0.0022
     72  N        -36.1440  -38.1570   12.7990 N.3   137  ALA137     -0.1231
     73  CA       -36.2150  -38.9170   14.0370 C.3   137  ALA137      0.1694
     74  C        -36.3510  -40.4110   13.7780 C.2   137  ALA137      0.2592
     75  O        -36.1950  -41.1960   14.7270 O.2   137  ALA137     -0.2718
     76  CB       -37.3490  -38.4420   14.8990 C.3   137  ALA137      0.0304
     77  N        -36.6090  -40.8240   12.5340 N.am  138  HIS138     -0.1976
     78  CA       -36.7120  -42.1930   12.1780 C.3   138  HIS138      0.1656
     79  C        -35.5040  -42.7280   11.4030 C.2   138  HIS138      0.2291
     80  O        -35.5930  -43.7960   10.7870 O.2   138  HIS138     -0.2864
     81  CB       -38.0110  -42.4320   11.3350 C.3   138  HIS138      0.0771
     82  CG       -39.2560  -42.1370   12.1070 C.ar  138  HIS138      0.0820
     83  ND1      -39.8490  -40.8780   12.2020 N.ar  138  HIS138     -0.2267
     84  CD2      -40.0880  -43.0060   12.7340 C.ar  138  HIS138      0.1154
     85  CE1      -40.9910  -41.0170   12.9030 C.ar  138  HIS138      0.1986
     86  NE2      -41.1270  -42.3060   13.2280 N.ar  138  HIS138     -0.2212
     87  N        -34.0350  -41.6900   21.5190 N.3   200  LEU200     -0.1231
     88  CA       -34.8690  -40.8400   22.3790 C.3   200  LEU200      0.1693
     89  C        -35.0160  -41.5530   23.7240 C.2   200  LEU200      0.2593
     90  O        -35.0770  -42.7760   23.7980 O.2   200  LEU200     -0.2718
     91  CB       -36.2560  -40.6530   21.7840 C.3   200  LEU200      0.0284
     92  CG       -36.3530  -40.1460   20.3580 C.3   200  LEU200      0.0019
     93  CD1      -37.8120  -40.0260   19.9460 C.3   200  LEU200      0.0001
     94  CD2      -35.6390  -38.8290   20.2010 C.3   200  LEU200      0.0001
     95  N        -35.1370  -40.7600   24.7950 N.am  201  THR201     -0.1939
     96  CA       -35.3040  -41.3420   26.1210 C.3   201  THR201      0.2028
     97  C        -36.7370  -41.2870   26.5980 C.2   201  THR201      0.2642
     98  O        -37.0100  -41.6450   27.7600 O.2   201  THR201     -0.2714
     99  CB       -34.3650  -40.7970   27.1690 C.3   201  THR201      0.1808
    100  OG1      -34.7700  -39.4840   27.5390 O.3   201  THR201     -0.2208
    101  CG2      -32.9430  -40.8060   26.6950 C.3   201  THR201      0.0379
    102  N        -37.6620  -40.8740   25.7230 N.am  202  VAL202     -0.1963
    103  CA       -39.0940  -41.0000   25.9400 C.3   202  VAL202      0.1712
    104  C        -39.6580  -41.7420   24.7770 C.2   202  VAL202      0.2458
    105  O        -39.1040  -41.6960   23.6560 O.2   202  VAL202     -0.2730
    106  CB       -39.7640  -39.6040   26.0390 C.3   202  VAL202      0.0289
    107  CG1      -39.4020  -38.9620   27.3500 C.3   202  VAL202      0.0023
    108  CG2      -39.4300  -38.6990   24.8790 C.3   202  VAL202      0.0023
    109  N        -40.8340  -42.3670   24.9370 N.am  203  PRO203     -0.2716
    110  CA       -41.5850  -42.8870   23.7950 C.3   203  PRO203      0.1521
    111  C        -41.6910  -41.8630   22.7480 C.2   203  PRO203      0.2440
    112  O        -41.9670  -40.6740   23.0230 O.2   203  PRO203     -0.2731
    113  CB       -42.9250  -43.2940   24.4060 C.3   203  PRO203      0.0310
    114  CG       -42.5350  -43.6630   25.8200 C.3   203  PRO203      0.0237
    115  CD       -41.5530  -42.5810   26.2120 C.3   203  PRO203      0.0939
    116  N        -41.4270  -42.2150   21.4790 N.am  204  PRO204     -0.2727
    117  CA       -41.3700  -43.5410   20.9450 C.3   204  PRO204      0.1402
    118  C        -39.9840  -44.1930   20.9550 C.2   204  PRO204      0.2269
    119  O        -39.8210  -45.2580   20.3580 O.2   204  PRO204     -0.2865
    120  CB       -41.8670  -43.3680   19.4730 C.3   204  PRO204      0.0296
    121  CG       -41.4690  -41.9690   19.1510 C.3   204  PRO204      0.0237
    122  CD       -41.6060  -41.1940   20.4120 C.3   204  PRO204      0.0939
    123  N        -37.0840  -43.8580   19.6800 N.3   206  LEU206     -0.1245
    124  CA       -36.5210  -44.1630   18.3810 C.3   206  LEU206      0.1561
    125  C        -34.9930  -44.1160   18.4280 C.2   206  LEU206      0.2260
    126  O        -34.3940  -43.2350   19.0290 O.2   206  LEU206     -0.2867
    127  CB       -37.0180  -43.1490   17.3580 C.3   206  LEU206      0.0270
    128  CG       -38.5170  -43.2140   17.1090 C.3   206  LEU206      0.0019
    129  CD1      -38.9980  -41.9610   16.3480 C.3   206  LEU206      0.0001
    130  CD2      -38.8820  -44.4570   16.3550 C.3   206  LEU206      0.0001
@<TRIPOS>BOND
     1    80    79    2
     2    54    55    1
     3    81    82    1
     4    81    78    1
     5    79    78    1
     6    67    68    2
     7    67    66    1
     8    70    69    1
     9    69    66    1
    10    69    71    1
    11    82    83   ar
    12    82    84   ar
    13    78    77    1
    14    83    85   ar
    15    65    66    1
    16    65    56   am
    17    55    56    1
    18    55    58    1
    19    56    57    2
    20    77    74   am
    21    84    86   ar
    22    72    73    1
    23    85    86   ar
    24    58    59    1
    25    74    73    1
    26    74    75    2
    27    73    76    1
    28    26    25    1
    29    59    60   ar
    30    59    61   ar
    31    25    27    1
    32    25    24    2
    33    60    62   ar
    34    61    63   ar
    35    23    24    1
    36    23    22    1
    37   129   128    1
    38   130   128    1
    39    63    64   ar
    40    62    64   ar
    41    21    22    1
    42    21    18    1
    43   128   127    1
    44   127   124    1
    45    17    18    1
    46    18    19    1
    47   124   125    1
    48   124   123    1
    49   125   126    2
    50    19    20    2
    51    19    28   am
    52    50    49    2
    53    49    48    1
    54   121   120    1
    55   121   122    1
    56    52    51    1
    57   120   117    1
    58    28    29    1
    59    93    92    1
    60    11    12    2
    61    11    10    1
    62    94    92    1
    63    13    10    1
    64    13    14    1
    65   119   118    2
    66    92    91    1
    67    48    51    1
    68    48    47    1
    69   122   116    1
    70    51    53    1
    71    10     9    1
    72    14    16   ar
    73    14    15   ar
    74   117   118    1
    75   117   116    1
    76    29    32    1
    77    29    30    1
    78    32    33    1
    79   116   111   am
    80    87    88    1
    81    91    88    1
    82    35    34    2
    83    31    30    2
    84    88    89    1
    85    33    34    1
    86    34    36   am
    87   111   112    2
    88   111   110    1
    89   105   104    2
    90    89    90    2
    91    89    95   am
    92   110   113    1
    93   110   109    1
    94   113   114    1
    95     8     6   am
    96   104   109   am
    97   104   103    1
    98    95    96    1
    99   108   106    1
   100   109   115    1
   101     5     6    1
   102     5     2    1
   103     6     7    2
   104     4     3    2
   105    45    43   ar
   106    45    46   ar
   107     3     2    1
   108    43    42   ar
   109   102   103    1
   110   102    97   am
   111   114   115    1
   112   103   106    1
   113     2     1    1
   114   106   107    1
   115    96    97    1
   116    96    99    1
   117    46    44   ar
   118    37    38    1
   119    97    98    2
   120   101    99    1
   121    42    41    1
   122    42    44   ar
   123    99   100    1
   124    41    38    1
   125    38    39    1
   126    40    39    2
