@<TRIPOS>MOLECULE
tmp/5ogkB00.pdb
 90 82 0 0 0
SMALL
GASTEIGER

@<TRIPOS>ATOM
      1  N         -9.7050   29.0300   62.6880 N.3    95  ILE95      -0.1231
      2  CA        -8.7260   28.2950   61.8880 C.3    95  ILE95       0.1692
      3  C         -7.9390   27.3260   62.7590 C.2    95  ILE95       0.2592
      4  O         -7.9090   26.1150   62.5110 O.2    95  ILE95      -0.2718
      5  CB        -7.7850   29.2680   61.1550 C.3    95  ILE95       0.0266
      6  CG1       -8.5850   30.3650   60.4550 C.3    95  ILE95       0.0019
      7  CG2       -6.9140   28.5190   60.1570 C.3    95  ILE95       0.0020
      8  CD1       -7.7260   31.4740   59.9040 C.3    95  ILE95       0.0001
      9  N         -7.2970   27.8470   63.8010 N.am   96  PHE96      -0.1976
     10  CA        -6.4580   26.9990   64.6380 C.3    96  PHE96       0.1639
     11  C         -7.2830   25.9570   65.3890 C.2    96  PHE96       0.2290
     12  O         -6.8750   24.7930   65.4880 O.2    96  PHE96      -0.2864
     13  CB        -5.6420   27.8690   65.5910 C.3    96  PHE96       0.0560
     14  CG        -4.6190   28.7260   64.8900 C.ar   96  PHE96      -0.0200
     15  CD1       -3.3970   28.1980   64.4930 C.ar   96  PHE96      -0.0042
     16  CD2       -4.8840   30.0630   64.6250 C.ar   96  PHE96      -0.0042
     17  CE1       -2.4610   28.9850   63.8430 C.ar   96  PHE96      -0.0003
     18  CE2       -3.9520   30.8550   63.9800 C.ar   96  PHE96      -0.0003
     19  CZ        -2.7370   30.3140   63.5870 C.ar   96  PHE96      -0.0000
     20  N         -7.4970   23.3490   63.2400 N.3    99  LEU99      -0.1245
     21  CA        -6.2270   22.6460   63.1170 C.3    99  LEU99       0.1561
     22  C         -6.0480   21.6200   64.2280 C.2    99  LEU99       0.2260
     23  O         -5.4320   20.5710   64.0090 O.2    99  LEU99      -0.2867
     24  CB        -5.0780   23.6530   63.1420 C.3    99  LEU99       0.0270
     25  CG        -4.7250   24.3170   61.8140 C.3    99  LEU99       0.0019
     26  CD1       -3.9850   25.6250   62.0510 C.3    99  LEU99       0.0001
     27  CD2       -3.8940   23.3750   60.9580 C.3    99  LEU99       0.0001
     28  N         -6.7920   18.0490   63.3960 N.3   102  ILE102     -0.1245
     29  CA        -5.7600   17.1930   62.8210 C.3   102  ILE102      0.1561
     30  C         -5.0180   16.4610   63.9300 C.2   102  ILE102      0.2260
     31  O         -4.9330   15.2270   63.9420 O.2   102  ILE102     -0.2867
     32  CB        -4.7940   18.0140   61.9490 C.3   102  ILE102      0.0252
     33  CG1       -5.5690   18.9200   60.9900 C.3   102  ILE102      0.0019
     34  CG2       -3.8660   17.0900   61.1730 C.3   102  ILE102      0.0019
     35  CD1       -4.6840   19.8510   60.1810 C.3   102  ILE102      0.0001
     36  N         -4.8870   12.6350   64.9500 N.3   106  TYR106     -0.1241
     37  CA        -3.5990   11.9760   65.1190 C.3   106  TYR106      0.1605
     38  C         -3.2020   11.8300   66.5790 C.2   106  TYR106      0.2264
     39  O         -2.2970   11.0450   66.8840 O.2   106  TYR106     -0.2867
     40  CB        -2.5100   12.7310   64.3540 C.3   106  TYR106      0.0534
     41  CG        -2.5700   12.5140   62.8610 C.ar  106  TYR106     -0.0201
     42  CD1       -3.4140   13.2720   62.0570 C.ar  106  TYR106     -0.0009
     43  CD2       -1.7950   11.5330   62.2580 C.ar  106  TYR106     -0.0009
     44  CE1       -3.4750   13.0650   60.6900 C.ar  106  TYR106      0.0417
     45  CE2       -1.8480   11.3180   60.8960 C.ar  106  TYR106      0.0417
     46  CZ        -2.6880   12.0850   60.1140 C.ar  106  TYR106      0.1957
     47  OH        -2.7350   11.8640   58.7550 O.3   106  TYR106     -0.2866
     48  N         -5.3770    6.9620   60.8550 N.3   116  VAL116     -0.1245
     49  CA        -6.0620    8.1360   60.3330 C.3   116  VAL116      0.1561
     50  C         -6.1560    7.9560   58.8230 C.2   116  VAL116      0.2260
     51  O         -5.1620    8.1010   58.1090 O.2   116  VAL116     -0.2867
     52  CB        -5.3220    9.4260   60.7020 C.3   116  VAL116      0.0252
     53  CG1       -6.0410   10.6370   60.1300 C.3   116  VAL116      0.0019
     54  CG2       -5.1840    9.5380   62.2100 C.3   116  VAL116      0.0019
     55  N         -6.4830    8.4560   54.9770 N.3   118  SER118     -0.1217
     56  CA        -6.1850    9.5740   54.0930 C.3   118  SER118      0.1889
     57  C         -7.4500   10.3420   53.7530 C.2   118  SER118      0.2288
     58  O         -7.4140   11.5690   53.6030 O.2   118  SER118     -0.2866
     59  CB        -5.5030    9.0790   52.8150 C.3   118  SER118      0.2089
     60  OG        -4.2200    8.5460   53.0930 O.3   118  SER118     -0.2183
     61  N         -8.0930   12.5970   56.4490 N.3   121  LEU121     -0.1245
     62  CA        -7.1590   13.7100   56.3170 C.3   121  LEU121      0.1561
     63  C         -7.6810   14.7420   55.3280 C.2   121  LEU121      0.2260
     64  O         -7.4900   15.9480   55.5180 O.2   121  LEU121     -0.2867
     65  CB        -5.7830   13.1910   55.8810 C.3   121  LEU121      0.0270
     66  CG        -4.5360   14.0580   56.1180 C.3   121  LEU121      0.0019
     67  CD1       -4.5740   15.3400   55.3010 C.3   121  LEU121      0.0001
     68  CD2       -4.3540   14.3730   57.5930 C.3   121  LEU121      0.0001
     69  N         -8.3420   18.9050   56.1870 N.3   125  LEU125     -0.1245
     70  CA        -7.7560   19.9740   55.3860 C.3   125  LEU125      0.1561
     71  C         -8.8430   20.8770   54.8190 C.2   125  LEU125      0.2260
     72  O         -8.6980   22.1050   54.8020 O.2   125  LEU125     -0.2867
     73  CB        -6.9010   19.3910   54.2570 C.3   125  LEU125      0.0270
     74  CG        -5.6360   18.6040   54.6080 C.3   125  LEU125      0.0019
     75  CD1       -4.9700   18.0530   53.3530 C.3   125  LEU125      0.0001
     76  CD2       -4.6640   19.4810   55.3740 C.3   125  LEU125      0.0001
     77  N        -10.0400   23.3510   57.1670 N.3   128  VAL128     -0.1245
     78  CA        -9.1080   24.4760   57.1920 C.3   128  VAL128      0.1561
     79  C         -9.4890   25.5040   56.1330 C.2   128  VAL128      0.2260
     80  O         -9.5490   26.7080   56.4030 O.2   128  VAL128     -0.2867
     81  CB        -7.6650   23.9780   56.9930 C.3   128  VAL128      0.0252
     82  CG1       -6.7010   25.1510   56.9140 C.3   128  VAL128      0.0019
     83  CG2       -7.2730   23.0260   58.1070 C.3   128  VAL128      0.0019
     84  N        -10.1200   28.8810   56.6470 N.3   132  VAL132     -0.1245
     85  CA        -9.1900   29.8120   56.0090 C.3   132  VAL132      0.1561
     86  C         -9.9240   30.6800   54.9950 C.2   132  VAL132      0.2260
     87  O         -9.7680   31.9060   54.9720 O.2   132  VAL132     -0.2867
     88  CB        -8.0180   29.0510   55.3630 C.3   132  VAL132      0.0252
     89  CG1       -7.0890   30.0180   54.6460 C.3   132  VAL132      0.0019
     90  CG2       -7.2420   28.2720   56.4200 C.3   132  VAL132      0.0019
@<TRIPOS>BOND
     1    59    60    1
     2    59    56    1
     3    75    74    1
     4    58    57    2
     5    57    56    1
     6    56    55    1
     7    73    74    1
     8    73    70    1
     9    74    76    1
    10    89    88    1
    11    72    71    2
    12    71    70    1
    13    87    86    2
    14    86    85    1
    15    67    66    1
    16    63    64    2
    17    63    62    1
    18    88    85    1
    19    88    90    1
    20    70    69    1
    21    65    66    1
    22    65    62    1
    23    85    84    1
    24    66    68    1
    25    79    80    2
    26    79    78    1
    27    62    61    1
    28    82    81    1
    29    81    78    1
    30    81    83    1
    31    77    78    1
    32    51    50    2
    33    47    46    1
    34    50    49    1
    35     8     6    1
    36    46    44   ar
    37    46    45   ar
    38    53    52    1
    39     7     5    1
    40    35    33    1
    41    49    52    1
    42    49    48    1
    43     6     5    1
    44    44    42   ar
    45    52    54    1
    46    45    43   ar
    47    27    25    1
    48    33    32    1
    49     5     2    1
    50    34    32    1
    51    25    26    1
    52    25    24    1
    53     2     1    1
    54     2     3    1
    55    32    29    1
    56    42    41   ar
    57    43    41   ar
    58     4     3    2
    59     3     9   am
    60    29    28    1
    61    29    30    1
    62    41    40    1
    63    21    24    1
    64    21    20    1
    65    21    22    1
    66    19    17   ar
    67    19    18   ar
    68     9    10    1
    69    17    15   ar
    70    30    31    2
    71    18    16   ar
    72    23    22    2
    73    40    37    1
    74    15    14   ar
    75    16    14   ar
    76    10    11    1
    77    10    13    1
    78    14    13    1
    79    36    37    1
    80    37    38    1
    81    11    12    2
    82    38    39    2
