@<TRIPOS>MOLECULE
tmp/5ogkG00.pdb
 87 85 0 0 0
SMALL
GASTEIGER

@<TRIPOS>ATOM
      1  N        -11.1040   31.4870  125.7690 N.3    16  ILE16      -0.1245
      2  CA       -12.0090   30.6140  126.5080 C.3    16  ILE16       0.1561
      3  C        -12.7820   29.7110  125.5530 C.2    16  ILE16       0.2260
      4  O        -12.8780   28.4960  125.7650 O.2    16  ILE16      -0.2867
      5  CB       -12.9540   31.4510  127.3880 C.3    16  ILE16       0.0252
      6  CG1      -12.1680   32.1660  128.4860 C.3    16  ILE16       0.0019
      7  CG2      -14.0240   30.5760  128.0110 C.3    16  ILE16       0.0019
      8  CD1      -12.8730   33.3840  129.0390 C.3    16  ILE16       0.0001
      9  N        -12.3460   25.6070  125.3760 N.3    20  VAL20      -0.1245
     10  CA       -13.4730   24.6910  125.5350 C.3    20  VAL20       0.1561
     11  C        -13.7590   23.9760  124.2200 C.2    20  VAL20       0.2260
     12  O        -13.8490   22.7430  124.1690 O.2    20  VAL20      -0.2867
     13  CB       -14.7160   25.4440  126.0410 C.3    20  VAL20       0.0252
     14  CG1      -15.9770   24.7480  125.5610 C.3    20  VAL20       0.0019
     15  CG2      -14.7020   25.5270  127.5580 C.3    20  VAL20       0.0019
     16  N        -12.0170   21.1080  123.5920 N.3    23  LYS23      -0.1231
     17  CA       -12.1760   20.0890  124.6190 C.3    23  LYS23       0.1693
     18  C        -13.5910   19.5440  124.7470 C.2    23  LYS23       0.2592
     19  O        -13.7500   18.3930  125.1580 O.2    23  LYS23      -0.2718
     20  CB       -11.7250   20.6540  125.9730 C.3    23  LYS23       0.0285
     21  CG       -10.2400   20.9870  125.9820 C.3    23  LYS23       0.0035
     22  CD        -9.7380   21.4850  127.3230 C.3    23  LYS23       0.0206
     23  CE        -8.2390   21.7420  127.2540 C.3    23  LYS23       0.1093
     24  NZ        -7.6810   22.1460  128.5690 N.3    23  LYS23      -0.1314
     25  N        -14.6180   20.3280  124.4110 N.am   24  PHE24      -0.1976
     26  CA       -15.9970   19.8480  124.4320 C.3    24  PHE24       0.1639
     27  C        -16.5520   19.5290  123.0480 C.2    24  PHE24       0.2290
     28  O        -17.0320   18.4150  122.8170 O.2    24  PHE24      -0.2864
     29  CB       -16.9050   20.8760  125.1170 C.3    24  PHE24       0.0560
     30  CG       -16.7250   20.9500  126.6040 C.ar   24  PHE24      -0.0200
     31  CD1      -17.4450   20.1140  127.4430 C.ar   24  PHE24      -0.0042
     32  CD2      -15.8500   21.8630  127.1670 C.ar   24  PHE24      -0.0042
     33  CE1      -17.2890   20.1750  128.8140 C.ar   24  PHE24      -0.0003
     34  CE2      -15.6900   21.9310  128.5390 C.ar   24  PHE24      -0.0003
     35  CZ       -16.4110   21.0840  129.3640 C.ar   24  PHE24      -0.0000
     36  N         -7.9900   31.0130  135.2140 N.3   254  PRO254     -0.2102
     37  CA        -9.4310   30.8940  135.5030 C.3   254  PRO254      0.1504
     38  C        -10.0610   29.6540  134.9030 C.2   254  PRO254      0.2576
     39  O        -11.0320   29.1260  135.4610 O.2   254  PRO254     -0.2718
     40  CB       -10.0090   32.1830  134.9050 C.3   254  PRO254      0.0282
     41  CG        -8.8870   33.1590  135.0090 C.3   254  PRO254      0.0208
     42  CD        -7.6270   32.3690  134.7660 C.3   254  PRO254      0.0893
     43  N         -9.5430   29.1760  133.7710 N.am  255  ILE255     -0.1966
     44  CA        -9.9630   27.8760  133.2630 C.3   255  ILE255      0.1727
     45  C         -9.4160   26.7640  134.1520 C.2   255  ILE255      0.2616
     46  O        -10.1240   25.8010  134.4720 O.2   255  ILE255     -0.2715
     47  CB        -9.5290   27.7020  131.7980 C.3   255  ILE255      0.0290
     48  CG1      -10.1830   28.7700  130.9180 C.3   255  ILE255      0.0022
     49  CG2       -9.8700   26.3060  131.3030 C.3   255  ILE255      0.0023
     50  CD1       -9.6680   28.7900  129.4910 C.3   255  ILE255      0.0001
     51  N         -8.1500   26.8770  134.5640 N.am  256  ALA256     -0.1977
     52  CA        -7.5910   25.8950  135.4880 C.3   256  ALA256      0.1597
     53  C         -8.3120   25.9310  136.8290 C.2   256  ALA256      0.2287
     54  O         -8.6030   24.8820  137.4130 O.2   256  ALA256     -0.2864
     55  CB        -6.0940   26.1440  135.6780 C.3   256  ALA256      0.0319
     56  N        -11.3710   26.9030  137.1100 N.3   258  SER258     -0.1202
     57  CA       -12.6290   26.2840  136.7110 C.3   258  SER258      0.2020
     58  C        -12.5180   24.7650  136.6330 C.2   258  SER258      0.2619
     59  O        -13.4960   24.0580  136.9020 O.2   258  SER258     -0.2717
     60  CB       -13.0740   26.8540  135.3660 C.3   258  SER258      0.2103
     61  OG       -13.1950   28.2640  135.4280 O.3   258  SER258     -0.2182
     62  N        -11.3480   24.2440  136.2500 N.am  259  GLY259     -0.1956
     63  CA       -11.1930   22.8040  136.1070 C.3   259  GLY259      0.1869
     64  C        -11.3240   22.0340  137.4060 C.2   259  GLY259      0.2309
     65  O        -11.7240   20.8660  137.4010 O.2   259  GLY259     -0.2863
     66  N        -15.6870   22.5660  138.4340 N.3   262  PHE262     -0.1227
     67  CA       -16.6120   21.7830  137.6210 C.3   262  PHE262      0.1736
     68  C        -16.3090   20.2880  137.5970 C.2   262  PHE262      0.2595
     69  O        -17.0830   19.5380  136.9940 O.2   262  PHE262     -0.2718
     70  CB       -16.6030   22.2790  136.1710 C.3   262  PHE262      0.0547
     71  CG       -17.3130   23.5810  135.9550 C.ar  262  PHE262     -0.0202
     72  CD1      -16.7170   24.7820  136.2910 C.ar  262  PHE262     -0.0042
     73  CD2      -18.5700   23.6010  135.3740 C.ar  262  PHE262     -0.0042
     74  CE1      -17.3740   25.9750  136.0740 C.ar  262  PHE262     -0.0003
     75  CE2      -19.2310   24.7880  135.1540 C.ar  262  PHE262     -0.0003
     76  CZ       -18.6340   25.9770  135.5030 C.ar  262  PHE262     -0.0000
     77  N        -15.2180   19.8290  138.2040 N.am  263  PHE263     -0.1976
     78  CA       -14.8380   18.4280  138.0740 C.3   263  PHE263      0.1639
     79  C        -14.3040   17.8610  139.3790 C.2   263  PHE263      0.2290
     80  O        -13.5360   18.5160  140.0890 O.2   263  PHE263     -0.2864
     81  CB       -13.8310   18.2530  136.9340 C.3   263  PHE263      0.0560
     82  CG       -14.4410   18.4580  135.5800 C.ar  263  PHE263     -0.0200
     83  CD1      -15.0930   17.4150  134.9430 C.ar  263  PHE263     -0.0042
     84  CD2      -14.4430   19.7050  134.9830 C.ar  263  PHE263     -0.0042
     85  CE1      -15.6800   17.5960  133.7090 C.ar  263  PHE263     -0.0003
     86  CE2      -15.0420   19.8960  133.7530 C.ar  263  PHE263     -0.0003
     87  CZ       -15.6540   18.8390  133.1130 C.ar  263  PHE263     -0.0000
@<TRIPOS>BOND
     1    28    27    2
     2    27    26    1
     3    16    17    1
     4    12    11    2
     5    11    10    1
     6    25    26    1
     7    25    18   am
     8    26    29    1
     9    17    18    1
    10    17    20    1
    11    18    19    2
    12    29    30    1
    13     9    10    1
    14    10    13    1
    15     3     4    2
    16     3     2    1
    17    14    13    1
    18     1     2    1
    19    20    21    1
    20    21    22    1
    21    13    15    1
    22     2     5    1
    23    30    32   ar
    24    30    31   ar
    25    32    34   ar
    26    23    22    1
    27    23    24    1
    28     5     7    1
    29     5     6    1
    30    31    33   ar
    31     6     8    1
    32    34    35   ar
    33    33    35   ar
    34    50    48    1
    35    48    47    1
    36    49    47    1
    37    47    44    1
    38    87    85   ar
    39    87    86   ar
    40    44    43    1
    41    44    45    1
    42    85    83   ar
    43    86    84   ar
    44    43    38   am
    45    45    46    2
    46    45    51   am
    47    51    52    1
    48    42    41    1
    49    42    36    1
    50    38    39    2
    51    38    37    1
    52    40    41    1
    53    40    37    1
    54    83    82   ar
    55    84    82   ar
    56    75    73   ar
    57    75    76   ar
    58    36    37    1
    59    60    61    1
    60    60    57    1
    61    73    71   ar
    62    52    55    1
    63    52    53    1
    64    76    74   ar
    65    82    81    1
    66    71    70    1
    67    71    72   ar
    68    74    72   ar
    69    63    62    1
    70    63    64    1
    71    70    67    1
    72    62    58   am
    73    58    57    1
    74    58    59    2
    75    57    56    1
    76    53    54    2
    77    81    78    1
    78    69    68    2
    79    65    64    2
    80    68    67    1
    81    68    77   am
    82    67    66    1
    83    78    77    1
    84    78    79    1
    85    79    80    2
