@<TRIPOS>MOLECULE
tmp/5ogkD00.pdb
 223 205 0 0 0
SMALL
GASTEIGER

@<TRIPOS>ATOM
      1  N         12.3960  -12.3870  -35.4380 N.3    11  TYR11      -0.1241
      2  CA        11.4470  -13.4920  -35.4120 C.3    11  TYR11       0.1605
      3  C         11.8610  -14.5620  -36.4080 C.2    11  TYR11       0.2264
      4  O         11.6940  -15.7600  -36.1510 O.2    11  TYR11      -0.2867
      5  CB        10.0380  -12.9700  -35.7140 C.3    11  TYR11       0.0534
      6  CG         8.9290  -14.0080  -35.6750 C.ar   11  TYR11      -0.0201
      7  CD1        8.5430  -14.6060  -34.4840 C.ar   11  TYR11      -0.0009
      8  CD2        8.2490  -14.3650  -36.8360 C.ar   11  TYR11      -0.0009
      9  CE1        7.5250  -15.5480  -34.4560 C.ar   11  TYR11       0.0417
     10  CE2        7.2310  -15.3020  -36.8160 C.ar   11  TYR11       0.0417
     11  CZ         6.8710  -15.8910  -35.6250 C.ar   11  TYR11       0.1957
     12  OH         5.8570  -16.8230  -35.6040 O.3    11  TYR11      -0.2866
     13  N         12.9860  -17.9060  -35.2990 N.3    15  SER15      -0.1217
     14  CA        12.1500  -18.9420  -35.9000 C.3    15  SER15       0.1889
     15  C         12.9520  -19.8050  -36.8640 C.2    15  SER15       0.2288
     16  O         12.6210  -20.9780  -37.0680 O.2    15  SER15      -0.2866
     17  CB        10.9430  -18.3250  -36.6090 C.3    15  SER15       0.2089
     18  OG        10.0790  -19.3290  -37.1190 O.3    15  SER15      -0.2183
     19  N         15.1380  -22.0080  -34.3010 N.3    18  MET18      -0.1245
     20  CA        14.3600  -22.9900  -33.5480 C.3    18  MET18       0.1570
     21  C         13.8240  -24.0980  -34.4420 C.2    18  MET18       0.2261
     22  O         13.5940  -25.2170  -33.9680 O.2    18  MET18      -0.2867
     23  CB        13.2220  -22.3080  -32.7920 C.3    18  MET18       0.0387
     24  CG        12.5450  -23.2180  -31.7750 C.3    18  MET18       0.0595
     25  SD        10.9250  -22.6060  -31.2520 S.3    18  MET18      -0.1393
     26  CE        10.0140  -22.5020  -32.8100 C.3    18  MET18       0.0692
     27  N          7.1790  -27.9770  -23.4080 N.3    38  LEU38      -0.1245
     28  CA         6.8660  -26.5510  -23.4350 C.3    38  LEU38       0.1561
     29  C          7.0320  -25.9080  -22.0660 C.2    38  LEU38       0.2260
     30  O          7.3940  -24.7280  -21.9780 O.2    38  LEU38      -0.2867
     31  CB         5.4300  -26.3260  -23.9160 C.3    38  LEU38       0.0270
     32  CG         5.0890  -26.1630  -25.3950 C.3    38  LEU38       0.0019
     33  CD1        3.6370  -26.5460  -25.6500 C.3    38  LEU38       0.0001
     34  CD2        5.3310  -24.7230  -25.7990 C.3    38  LEU38       0.0001
     35  N          9.1430  -22.6450  -21.7730 N.3    42  SER42      -0.1217
     36  CA         8.7290  -21.3950  -21.1480 C.3    42  SER42       0.1889
     37  C          9.4420  -21.1350  -19.8280 C.2    42  SER42       0.2288
     38  O          9.4960  -19.9820  -19.3840 O.2    42  SER42      -0.2866
     39  CB         7.2140  -21.3870  -20.9280 C.3    42  SER42       0.2089
     40  OG         6.5100  -21.3880  -22.1600 O.3    42  SER42      -0.2183
     41  N         -2.8620  -18.7160  -25.1400 N.3    75  LEU75      -0.1245
     42  CA        -1.6990  -19.3440  -25.7610 C.3    75  LEU75       0.1561
     43  C         -1.7550  -20.8600  -25.6180 C.2    75  LEU75       0.2260
     44  O         -1.7050  -21.5920  -26.6130 O.2    75  LEU75      -0.2867
     45  CB        -0.4060  -18.7770  -25.1680 C.3    75  LEU75       0.0270
     46  CG         0.8660  -19.0220  -25.9940 C.3    75  LEU75       0.0019
     47  CD1        1.9640  -18.0260  -25.6340 C.3    75  LEU75       0.0001
     48  CD2        1.3720  -20.4490  -25.8440 C.3    75  LEU75       0.0001
     49  N         -4.2100  -22.1890  -27.6410 N.3    78  MET78      -0.1230
     50  CA        -3.6880  -22.1460  -29.0020 C.3    78  MET78       0.1702
     51  C         -2.8440  -23.3810  -29.2910 C.2    78  MET78       0.2592
     52  O         -2.9270  -23.9630  -30.3800 O.2    78  MET78      -0.2718
     53  CB        -2.8740  -20.8680  -29.2130 C.3    78  MET78       0.0401
     54  CG        -2.4520  -20.6120  -30.6540 C.3    78  MET78       0.0596
     55  SD        -1.3630  -19.1810  -30.8290 S.3    78  MET78      -0.1393
     56  CE         0.2360  -19.9220  -30.5040 C.3    78  MET78       0.0692
     57  N         -2.0240  -23.7930  -28.3220 N.am   79  ILE79      -0.1980
     58  CA        -1.2350  -25.0100  -28.4810 C.3    79  ILE79       0.1595
     59  C         -2.1300  -26.2370  -28.3640 C.2    79  ILE79       0.2287
     60  O         -2.0800  -27.1430  -29.2060 O.2    79  ILE79      -0.2864
     61  CB        -0.0810  -25.0500  -27.4610 C.3    79  ILE79       0.0276
     62  CG1        0.8770  -23.8760  -27.6830 C.3    79  ILE79       0.0022
     63  CG2        0.6530  -26.3840  -27.5320 C.3    79  ILE79       0.0022
     64  CD1        1.8050  -23.6060  -26.5160 C.3    79  ILE79       0.0001
     65  N         -4.1340  -26.7500  -31.3990 N.3    82  SER82      -0.1217
     66  CA        -3.2510  -27.2170  -32.4600 C.3    82  SER82       0.1889
     67  C         -2.8710  -28.6800  -32.2610 C.2    82  SER82       0.2288
     68  O         -2.9360  -29.4800  -33.2020 O.2    82  SER82      -0.2866
     69  CB        -2.0030  -26.3370  -32.5170 C.3    82  SER82       0.2089
     70  OG        -1.0400  -26.8760  -33.4040 O.3    82  SER82      -0.2183
     71  N         -4.0170  -30.9660  -35.1730 N.3    86  LEU86      -0.1245
     72  CA        -3.1040  -31.7490  -35.9940 C.3    86  LEU86       0.1561
     73  C         -3.2240  -33.2430  -35.7290 C.2    86  LEU86       0.2260
     74  O         -2.7320  -34.0430  -36.5320 O.2    86  LEU86      -0.2867
     75  CB        -1.6650  -31.2840  -35.7750 C.3    86  LEU86       0.0270
     76  CG        -1.4180  -29.8340  -36.1940 C.3    86  LEU86       0.0019
     77  CD1       -0.0440  -29.3680  -35.7450 C.3    86  LEU86       0.0001
     78  CD2       -1.5790  -29.6840  -37.6950 C.3    86  LEU86       0.0001
     79  N         -1.1150  -31.9180  -42.2630 N.3    91  VAL91      -0.1245
     80  CA        -0.2610  -30.7440  -42.0780 C.3    91  VAL91       0.1561
     81  C         -0.5560  -29.6450  -43.0920 C.2    91  VAL91       0.2260
     82  O         -0.6820  -28.4780  -42.6850 O.2    91  VAL91      -0.2867
     83  CB         1.2180  -31.1640  -42.0830 C.3    91  VAL91       0.0252
     84  CG1        2.1000  -29.9900  -41.6960 C.3    91  VAL91       0.0019
     85  CG2        1.4350  -32.3410  -41.1430 C.3    91  VAL91       0.0019
     86  N         -4.0420  -27.9450  -42.3260 N.3    94  TYR94      -0.1227
     87  CA        -3.9390  -27.1160  -41.1310 C.3    94  TYR94       0.1736
     88  C         -3.3790  -25.7440  -41.4720 C.2    94  TYR94       0.2596
     89  O         -3.8250  -24.7280  -40.9270 O.2    94  TYR94      -0.2718
     90  CB        -3.0600  -27.8010  -40.0840 C.3    94  TYR94       0.0548
     91  CG        -2.7010  -26.9150  -38.9080 C.ar   94  TYR94      -0.0200
     92  CD1       -3.5620  -26.7740  -37.8280 C.ar   94  TYR94      -0.0009
     93  CD2       -1.5010  -26.2150  -38.8830 C.ar   94  TYR94      -0.0009
     94  CE1       -3.2330  -25.9650  -36.7530 C.ar   94  TYR94       0.0417
     95  CE2       -1.1650  -25.4030  -37.8150 C.ar   94  TYR94       0.0417
     96  CZ        -2.0330  -25.2810  -36.7540 C.ar   94  TYR94       0.1957
     97  OH        -1.6990  -24.4730  -35.6910 O.3    94  TYR94      -0.2866
     98  N         -2.4080  -25.6930  -42.3890 N.am   95  THR95      -0.1953
     99  CA        -1.8510  -24.4050  -42.7880 C.3    95  THR95       0.1897
    100  C         -2.9140  -23.5260  -43.4320 C.2    95  THR95       0.2313
    101  O         -2.9790  -22.3210  -43.1640 O.2    95  THR95      -0.2863
    102  CB        -0.6700  -24.6040  -43.7380 C.3    95  THR95       0.1794
    103  OG1        0.1030  -25.7340  -43.3190 O.3    95  THR95      -0.2208
    104  CG2        0.2160  -23.3710  -43.7310 C.3    95  THR95       0.0378
    105  N         -4.7940  -22.2070  -40.7610 N.3    98  LYS98      -0.1245
    106  CA        -3.8390  -21.3020  -40.1320 C.3    98  LYS98       0.1561
    107  C         -3.5550  -20.1000  -41.0180 C.2    98  LYS98       0.2260
    108  O         -3.2060  -19.0260  -40.5170 O.2    98  LYS98      -0.2867
    109  CB        -2.5320  -22.0380  -39.8210 C.3    98  LYS98       0.0271
    110  CG        -2.3340  -22.4080  -38.3570 C.3    98  LYS98       0.0035
    111  CD        -1.7750  -21.2340  -37.5690 C.3    98  LYS98       0.0206
    112  CE        -1.5000  -21.6080  -36.1230 C.3    98  LYS98       0.1093
    113  NZ        -0.7670  -20.5240  -35.4100 N.3    98  LYS98      -0.1314
    114  N         -5.6310  -14.6290  -29.2960 N.3   159  PHE159     -0.1241
    115  CA        -4.3530  -14.4940  -28.6080 C.3   159  PHE159      0.1605
    116  C         -3.5360  -13.3530  -29.1940 C.2   159  PHE159      0.2264
    117  O         -3.2510  -12.3600  -28.5140 O.2   159  PHE159     -0.2867
    118  CB        -3.5710  -15.8040  -28.6840 C.3   159  PHE159      0.0534
    119  CG        -2.1000  -15.6350  -28.4590 C.ar  159  PHE159     -0.0203
    120  CD1       -1.6140  -15.2520  -27.2220 C.ar  159  PHE159     -0.0042
    121  CD2       -1.2020  -15.8470  -29.4900 C.ar  159  PHE159     -0.0042
    122  CE1       -0.2590  -15.0880  -27.0150 C.ar  159  PHE159     -0.0003
    123  CE2        0.1530  -15.6870  -29.2870 C.ar  159  PHE159     -0.0003
    124  CZ         0.6260  -15.3070  -28.0470 C.ar  159  PHE159     -0.0000
    125  N         -3.1250   -9.7930  -26.9600 N.3   163  MET163     -0.1245
    126  CA        -1.7760   -9.4850  -26.4880 C.3   163  MET163      0.1570
    127  C         -1.3020   -8.1330  -27.0150 C.2   163  MET163      0.2261
    128  O         -0.7690   -7.3090  -26.2600 O.2   163  MET163     -0.2867
    129  CB        -0.8090  -10.6040  -26.8830 C.3   163  MET163      0.0387
    130  CG         0.6320  -10.3710  -26.4460 C.3   163  MET163      0.0595
    131  SD         1.7350  -11.7420  -26.8560 S.3   163  MET163     -0.1393
    132  CE         1.6390  -11.7310  -28.6430 C.3   163  MET163      0.0692
    133  N          6.8370   -8.1310  -22.2970 N.3   177  THR177     -0.1203
    134  CA         6.0300   -9.0980  -23.0340 C.3   177  THR177      0.1994
    135  C          6.5590  -10.5170  -22.8500 C.2   177  THR177      0.2617
    136  O          5.8120  -11.4250  -22.4690 O.2   177  THR177     -0.2717
    137  CB         5.9980   -8.7300  -24.5190 C.3   177  THR177      0.1784
    138  OG1        7.3260   -8.7790  -25.0580 O.3   177  THR177     -0.2211
    139  CG2        5.4360   -7.3270  -24.7100 C.3   177  THR177      0.0376
    140  N          7.8570  -10.7210  -23.0960 N.am  178  MET178     -0.1979
    141  CA         8.4330  -12.0610  -23.0040 C.3   178  MET178      0.1605
    142  C          8.2390  -12.6620  -21.6210 C.2   178  MET178      0.2287
    143  O          7.7810  -13.8030  -21.4860 O.2   178  MET178     -0.2864
    144  CB         9.9190  -12.0380  -23.3550 C.3   178  MET178      0.0413
    145  CG        10.5320  -13.4270  -23.2880 C.3   178  MET178      0.0598
    146  SD        12.3280  -13.4720  -23.3030 S.3   178  MET178     -0.1393
    147  CE        12.5950  -15.2290  -23.0800 C.3   178  MET178      0.0692
    148  N          4.6580  -13.8670  -20.6290 N.3   181  ASN181     -0.1225
    149  CA         4.2410  -15.0210  -21.4180 C.3   181  ASN181      0.1785
    150  C          4.9450  -16.2930  -20.9730 C.2   181  ASN181      0.2597
    151  O          4.3600  -17.3800  -21.0350 O.2   181  ASN181     -0.2718
    152  CB         4.4920  -14.7610  -22.9010 C.3   181  ASN181      0.1169
    153  CG         3.3690  -13.9760  -23.5470 C.2   181  ASN181      0.2627
    154  OD1        2.2290  -14.0160  -23.0840 O.2   181  ASN181     -0.2716
    155  ND2        3.6790  -13.2650  -24.6260 N.am  181  ASN181     -0.0877
    156  N          6.1980  -16.1850  -20.5390 N.am  182  ASN182     -0.1974
    157  CA         6.9060  -17.3580  -20.0430 C.3   182  ASN182      0.1688
    158  C          6.3680  -17.7740  -18.6790 C.2   182  ASN182      0.2292
    159  O          6.1010  -18.9560  -18.4350 O.2   182  ASN182     -0.2864
    160  CB         8.4050  -17.0630  -19.9570 C.3   182  ASN182      0.1181
    161  CG         9.0260  -16.7950  -21.3120 C.2   182  ASN182      0.2629
    162  OD1        9.7080  -15.7860  -21.5060 O.2   182  ASN182     -0.2716
    163  ND2        8.7950  -17.6970  -22.2570 N.am  182  ASN182     -0.0877
    164  N         14.3210  -21.3370  -27.9040 N.3   223  SER223     -0.1217
    165  CA        13.0480  -20.6260  -27.8610 C.3   223  SER223      0.1889
    166  C         13.1440  -19.2420  -27.2310 C.2   223  SER223      0.2288
    167  O         12.1770  -18.4780  -27.3190 O.2   223  SER223     -0.2866
    168  CB        12.0160  -21.4600  -27.1000 C.3   223  SER223      0.2089
    169  OG        12.3340  -21.5300  -25.7210 O.3   223  SER223     -0.2183
    170  N         12.6170  -16.6450  -30.2070 N.3   226  ILE226     -0.1231
    171  CA        11.2190  -16.4690  -30.5910 C.3   226  ILE226      0.1692
    172  C         10.4370  -15.7740  -29.4820 C.2   226  ILE226      0.2592
    173  O          9.5740  -14.9290  -29.7470 O.2   226  ILE226     -0.2718
    174  CB        10.5960  -17.8280  -30.9620 C.3   226  ILE226      0.0266
    175  CG1       10.7850  -18.8310  -29.8240 C.3   226  ILE226      0.0019
    176  CG2       11.2100  -18.3690  -32.2400 C.3   226  ILE226      0.0020
    177  CD1        9.5910  -18.9540  -28.9050 C.3   226  ILE226      0.0001
    178  N         10.7310  -16.1080  -28.2220 N.am  227  SER227     -0.1952
    179  CA         9.9780  -15.5410  -27.1050 C.3   227  SER227      0.1924
    180  C         10.0530  -14.0190  -27.1030 C.2   227  SER227      0.2314
    181  O          9.0270  -13.3280  -27.1200 O.2   227  SER227     -0.2863
    182  CB        10.5010  -16.1070  -25.7820 C.3   227  SER227      0.2116
    183  OG        10.2870  -17.5050  -25.6990 O.3   227  SER227     -0.2180
    184  N          8.6560  -12.6950  -30.6940 N.3   230  SER230     -0.1202
    185  CA         7.2180  -12.7830  -30.9280 C.3   230  SER230      0.2020
    186  C          6.5100  -11.5620  -30.3530 C.2   230  SER230      0.2619
    187  O          5.8010  -10.8420  -31.0640 O.2   230  SER230     -0.2717
    188  CB         6.6560  -14.0750  -30.3290 C.3   230  SER230      0.2103
    189  OG         7.1070  -15.2140  -31.0450 O.3   230  SER230     -0.2182
    190  N          6.6950  -11.3170  -29.0540 N.am  231  GLY231     -0.1956
    191  CA         6.1180  -10.1330  -28.4430 C.3   231  GLY231      0.1869
    192  C          6.7180   -8.8460  -28.9710 C.2   231  GLY231      0.2309
    193  O          6.0480   -7.8080  -28.9910 O.2   231  GLY231     -0.2863
    194  N          2.9080  -10.2450  -37.4140 N.3   242  TYR242     -0.1241
    195  CA         3.4120  -11.4340  -36.7370 C.3   242  TYR242      0.1605
    196  C          2.6950  -12.6780  -37.2390 C.2   242  TYR242      0.2264
    197  O          3.3090  -13.7380  -37.4060 O.2   242  TYR242     -0.2867
    198  CB         3.2490  -11.2980  -35.2230 C.3   242  TYR242      0.0534
    199  CG         3.3320  -12.6220  -34.4930 C.ar  242  TYR242     -0.0201
    200  CD1        4.5520  -13.2490  -34.2760 C.ar  242  TYR242     -0.0009
    201  CD2        2.1800  -13.2490  -34.0300 C.ar  242  TYR242     -0.0009
    202  CE1        4.6210  -14.4610  -33.6160 C.ar  242  TYR242      0.0417
    203  CE2        2.2420  -14.4590  -33.3700 C.ar  242  TYR242      0.0417
    204  CZ         3.4650  -15.0600  -33.1660 C.ar  242  TYR242      0.1957
    205  OH         3.5350  -16.2660  -32.5090 O.3   242  TYR242     -0.2866
    206  N          5.0470  -15.3640  -39.6260 N.3   246  GLY246     -0.1210
    207  CA         5.0670  -16.7470  -39.1820 C.3   246  GLY246      0.1956
    208  C          4.6920  -17.7160  -40.2870 C.2   246  GLY246      0.2611
    209  O          5.2870  -18.7890  -40.4150 O.2   246  GLY246     -0.2717
    210  N          3.7090  -17.3470  -41.1080 N.am  247  ALA247     -0.1979
    211  CA         3.3550  -18.1980  -42.2380 C.3   247  ALA247      0.1597
    212  C          4.3970  -18.1160  -43.3490 C.2   247  ALA247      0.2287
    213  O          4.7000  -19.1260  -43.9930 O.2   247  ALA247     -0.2864
    214  CB         1.9710  -17.8200  -42.7640 C.3   247  ALA247      0.0319
    215  N          7.9860  -20.3490  -43.0660 N.3   250  LYS250     -0.1245
    216  CA         8.0810  -21.7570  -43.4250 C.3   250  LYS250      0.1561
    217  C          8.3820  -21.9670  -44.8980 C.2   250  LYS250      0.2260
    218  O          8.7750  -23.0740  -45.2860 O.2   250  LYS250     -0.2867
    219  CB         6.8090  -22.4820  -43.0180 C.3   250  LYS250      0.0271
    220  CG         6.7380  -22.5770  -41.5170 C.3   250  LYS250      0.0035
    221  CD         7.8160  -23.5150  -40.9960 C.3   250  LYS250      0.0206
    222  CE         8.1630  -23.2180  -39.5520 C.3   250  LYS250      0.1093
    223  NZ         7.8700  -24.3730  -38.6920 N.3   250  LYS250     -0.1314
@<TRIPOS>BOND
     1   218   217    2
     2   217   216    1
     3   213   212    2
     4   102   104    1
     5   102   103    1
     6   102    99    1
     7   100   101    2
     8   100    99    1
     9   216   215    1
    10   216   219    1
    11   212   211    1
    12    81    82    2
    13    81    80    1
    14   219   220    1
    15    99    98    1
    16   214   211    1
    17    98    88   am
    18    86    87    1
    19    79    80    1
    20   211   210    1
    21    83    80    1
    22    83    84    1
    23    83    85    1
    24   220   221    1
    25    88    87    1
    26    88    89    2
    27    87    90    1
    28   210   208   am
    29   107   108    2
    30   107   106    1
    31   221   222    1
    32   105   106    1
    33   209   208    2
    34   208   207    1
    35   106   109    1
    36    90    91    1
    37   109   110    1
    38   206   207    1
    39   222   223    1
    40    91    93   ar
    41    91    92   ar
    42    93    95   ar
    43   110   111    1
    44    92    94   ar
    45    95    96   ar
    46    78    76    1
    47   111   112    1
    48   194   195    1
    49   197   196    2
    50   196   195    1
    51    18    17    1
    52    16    15    2
    53    15    14    1
    54     8    10   ar
    55     8     6   ar
    56    10    11   ar
    57    96    94   ar
    58    96    97    1
    59   195   198    1
    60    17    14    1
    61    74    73    2
    62     3     4    2
    63     3     2    1
    64    76    75    1
    65    76    77    1
    66   112   113    1
    67    72    75    1
    68    72    73    1
    69    72    71    1
    70    14    13    1
    71     5     6    1
    72     5     2    1
    73     6     7   ar
    74    11    12    1
    75    11     9   ar
    76     1     2    1
    77   198   199    1
    78   199   200   ar
    79   199   201   ar
    80     7     9   ar
    81    21    22    2
    82    21    20    1
    83    19    20    1
    84   200   202   ar
    85   201   203   ar
    86   202   204   ar
    87    20    23    1
    88    70    69    1
    89   203   204   ar
    90    68    67    2
    91   204   205    1
    92    26    25    1
    93    23    24    1
    94    69    66    1
    95    66    67    1
    96    66    65    1
    97   176   174    1
    98    24    25    1
    99   187   186    2
   100   189   188    1
   101   174   171    1
   102   174   175    1
   103   185   184    1
   104   185   186    1
   105   185   188    1
   106    55    54    1
   107    55    56    1
   108    54    53    1
   109   171   170    1
   110   171   172    1
   111    52    51    2
   112   186   190   am
   113   175   177    1
   114   173   172    2
   115   121   123   ar
   116   121   119   ar
   117   172   178   am
   118   114   115    1
   119    51    50    1
   120    51    57   am
   121   123   124   ar
   122    53    50    1
   123    60    59    2
   124   116   115    1
   125   116   117    2
   126   190   191    1
   127    50    49    1
   128   193   192    2
   129   192   191    1
   130   118   115    1
   131   118   119    1
   132   132   131    1
   133    58    59    1
   134    58    57    1
   135    58    61    1
   136   119   120   ar
   137   178   179    1
   138   124   122   ar
   139   164   165    1
   140   165   166    1
   141   165   168    1
   142    62    61    1
   143    62    64    1
   144    63    61    1
   145   167   166    2
   146   120   122   ar
   147   181   180    2
   148   179   180    1
   149   179   182    1
   150   168   169    1
   151   127   126    1
   152   127   128    2
   153   125   126    1
   154   129   126    1
   155   129   130    1
   156   131   130    1
   157    44    43    2
   158    46    48    1
   159    46    47    1
   160    46    45    1
   161    34    32    1
   162   182   183    1
   163    42    43    1
   164    42    45    1
   165    42    41    1
   166    33    32    1
   167    32    31    1
   168   138   137    1
   169   139   137    1
   170   155   153   am
   171   137   134    1
   172    31    28    1
   173   153   154    2
   174   153   152    1
   175    28    27    1
   176    28    29    1
   177   144   145    1
   178   144   141    1
   179   146   145    1
   180   146   147    1
   181   140   141    1
   182   140   135   am
   183   134   135    1
   184   134   133    1
   185   141   142    1
   186   152   149    1
   187   135   136    2
   188   163   161   am
   189    40    39    1
   190    29    30    2
   191    35    36    1
   192   142   143    2
   193   162   161    2
   194   149   150    1
   195   149   148    1
   196   161   160    1
   197    36    39    1
   198    36    37    1
   199   151   150    2
   200   150   156   am
   201   156   157    1
   202   157   160    1
   203   157   158    1
   204    37    38    2
   205   158   159    2
