@<TRIPOS>MOLECULE
tmp/5ogkB01.pdb
 90 81 0 0 0
SMALL
GASTEIGER

@<TRIPOS>ATOM
      1  N         -8.5850    9.6440   53.6580 N.3   119  MET119     -0.1245
      2  CA        -9.8410   10.3330   53.3940 C.3   119  MET119      0.1570
      3  C        -10.2110   11.2240   54.5730 C.2   119  MET119      0.2261
      4  O        -10.6490   12.3630   54.3800 O.2   119  MET119     -0.2867
      5  CB       -10.9440    9.3170   53.0870 C.3   119  MET119      0.0387
      6  CG       -12.1960    9.9150   52.4520 C.3   119  MET119      0.0595
      7  SD       -13.4290    8.6770   51.9840 S.3   119  MET119     -0.1393
      8  CE       -12.6690    7.9460   50.5350 C.3   119  MET119      0.0692
      9  N         -8.3600   14.2890   54.2730 N.3   122  SER122     -0.1217
     10  CA        -8.8900   15.2280   53.2930 C.3   122  SER122      0.1889
     11  C         -9.8950   16.1670   53.9440 C.2   122  SER122      0.2288
     12  O         -9.8190   17.3920   53.7820 O.2   122  SER122     -0.2866
     13  CB        -9.5380   14.4620   52.1380 C.3   122  SER122      0.2089
     14  OG        -8.6280   13.5620   51.5330 O.3   122  SER122     -0.2183
     15  N         -9.9520   20.2840   54.3710 N.3   126  LEU126     -0.1245
     16  CA       -11.0600   21.0760   53.8470 C.3   126  LEU126      0.1561
     17  C        -11.6450   21.9830   54.9170 C.2   126  LEU126      0.2260
     18  O        -11.9660   23.1470   54.6470 O.2   126  LEU126     -0.2867
     19  CB       -12.1440   20.1640   53.2730 C.3   126  LEU126      0.0270
     20  CG       -11.9300   19.6760   51.8410 C.3   126  LEU126      0.0019
     21  CD1      -12.8990   18.5520   51.5030 C.3   126  LEU126      0.0001
     22  CD2      -12.0860   20.8310   50.8630 C.3   126  LEU126      0.0001
     23  N         -9.7690   25.0390   54.9150 N.3   129  LEU129     -0.1245
     24  CA       -10.1450   25.9470   53.8380 C.3   129  LEU129      0.1561
     25  C        -11.4130   26.7180   54.1800 C.2   129  LEU129      0.2260
     26  O        -11.4170   27.9550   54.1940 O.2   129  LEU129     -0.2867
     27  CB       -10.3230   25.1580   52.5430 C.3   129  LEU129      0.0270
     28  CG        -9.0120   24.5860   52.0190 C.3   129  LEU129      0.0019
     29  CD1       -9.2740   23.4090   51.1000 C.3   129  LEU129      0.0001
     30  CD2       -8.2470   25.6760   51.2950 C.3   129  LEU129      0.0001
     31  N        -19.1080   36.1920   48.7070 N.3   270  PHE270     -0.1227
     32  CA       -19.0910   34.8670   48.0990 C.3   270  PHE270      0.1736
     33  C        -18.0410   33.9870   48.7580 C.2   270  PHE270      0.2595
     34  O        -18.2420   32.7760   48.9180 O.2   270  PHE270     -0.2718
     35  CB       -18.8280   34.9550   46.5980 C.3   270  PHE270      0.0547
     36  CG       -18.5410   33.6250   45.9670 C.ar  270  PHE270     -0.0202
     37  CD1      -19.5310   32.6580   45.8820 C.ar  270  PHE270     -0.0042
     38  CD2      -17.2750   33.3250   45.4950 C.ar  270  PHE270     -0.0042
     39  CE1      -19.2700   31.4230   45.3160 C.ar  270  PHE270     -0.0003
     40  CE2      -17.0060   32.0930   44.9280 C.ar  270  PHE270     -0.0003
     41  CZ       -18.0040   31.1400   44.8380 C.ar  270  PHE270     -0.0000
     42  N        -16.9130   34.5790   49.1480 N.am  271  LEU271     -0.1980
     43  CA       -15.9090   33.8250   49.8860 C.3   271  LEU271      0.1596
     44  C        -16.5160   33.2330   51.1500 C.2   271  LEU271      0.2287
     45  O        -16.3320   32.0470   51.4500 O.2   271  LEU271     -0.2864
     46  CB       -14.7220   34.7250   50.2200 C.3   271  LEU271      0.0297
     47  CG       -13.9250   35.2260   49.0160 C.3   271  LEU271      0.0022
     48  CD1      -13.6400   34.0780   48.0600 C.3   271  LEU271      0.0001
     49  CD2      -14.6660   36.3570   48.3110 C.3   271  LEU271      0.0001
     50  N        -18.6790   30.3740   49.9910 N.3   274  LEU274     -0.1245
     51  CA       -17.8280   29.2650   49.5810 C.3   274  LEU274      0.1561
     52  C        -17.2820   28.5370   50.8000 C.2   274  LEU274      0.2260
     53  O        -17.3070   27.3020   50.8700 O.2   274  LEU274     -0.2867
     54  CB       -16.6890   29.7720   48.7010 C.3   274  LEU274      0.0270
     55  CG       -16.6370   29.1750   47.2980 C.3   274  LEU274      0.0019
     56  CD1      -15.3650   29.6120   46.6140 C.3   274  LEU274      0.0001
     57  CD2      -16.7240   27.6600   47.3610 C.3   274  LEU274      0.0001
     58  N        -17.8870   24.8480   51.5640 N.3   278  ILE278     -0.1245
     59  CA       -16.6650   24.0720   51.7320 C.3   278  ILE278      0.1561
     60  C        -16.7640   23.2360   52.9980 C.2   278  ILE278      0.2260
     61  O        -16.3670   22.0650   53.0220 O.2   278  ILE278     -0.2867
     62  CB       -15.4330   24.9960   51.7510 C.3   278  ILE278      0.0252
     63  CG1      -15.1600   25.5530   50.3510 C.3   278  ILE278      0.0019
     64  CG2      -14.2100   24.2570   52.2810 C.3   278  ILE278      0.0019
     65  CD1      -14.1700   26.6990   50.3260 C.3   278  ILE278      0.0001
     66  N        -18.9600   20.1680   52.3530 N.3   281  LEU281     -0.1245
     67  CA       -18.1240   19.1550   51.7240 C.3   281  LEU281      0.1561
     68  C        -17.2730   18.4580   52.7740 C.2   281  LEU281      0.2260
     69  O        -17.1720   17.2260   52.7970 O.2   281  LEU281     -0.2867
     70  CB       -17.2480   19.7830   50.6400 C.3   281  LEU281      0.0270
     71  CG       -16.3600   18.7590   49.9290 C.3   281  LEU281      0.0019
     72  CD1      -17.1680   17.8740   48.9930 C.3   281  LEU281      0.0001
     73  CD2      -15.2300   19.4460   49.1850 C.3   281  LEU281      0.0001
     74  N        -17.1750   14.2720   53.2540 N.3   285  ILE285     -0.1245
     75  CA       -15.9660   13.4610   53.1730 C.3   285  ILE285      0.1561
     76  C        -15.7530   12.7200   54.4880 C.2   285  ILE285      0.2260
     77  O        -15.4620   11.5170   54.5050 O.2   285  ILE285     -0.2867
     78  CB       -14.7510   14.3340   52.8050 C.3   285  ILE285      0.0252
     79  CG1      -15.0890   15.2700   51.6400 C.3   285  ILE285      0.0019
     80  CG2      -13.5470   13.4590   52.4650 C.3   285  ILE285      0.0019
     81  CD1      -15.6710   14.5700   50.4280 C.3   285  ILE285      0.0001
     82  N        -16.3580    4.4620   55.4800 N.3   292  LYS292     -0.1245
     83  CA       -15.3630    3.5200   54.9760 C.3   292  LYS292      0.1561
     84  C        -14.5730    2.8510   56.1000 C.2   292  LYS292      0.2260
     85  O        -14.0950    1.7230   55.9260 O.2   292  LYS292     -0.2867
     86  CB       -14.4010    4.2270   54.0170 C.3   292  LYS292      0.0271
     87  CG       -14.9860    4.5710   52.6550 C.3   292  LYS292      0.0035
     88  CD       -13.8760    4.7990   51.6340 C.3   292  LYS292      0.0206
     89  CE       -14.4220    4.9270   50.2190 C.3   292  LYS292      0.1093
     90  NZ       -13.3340    5.0220   49.2050 N.3   292  LYS292     -0.1314
@<TRIPOS>BOND
     1    41    40   ar
     2    41    39   ar
     3    40    38   ar
     4    39    37   ar
     5    38    36   ar
     6    37    36   ar
     7    36    35    1
     8    35    32    1
     9    56    55    1
    10    55    57    1
    11    55    54    1
    12    48    47    1
    13    32    31    1
    14    32    33    1
    15    49    47    1
    16    54    51    1
    17    33    34    2
    18    33    42   am
    19    72    71    1
    20    47    46    1
    21    42    43    1
    22    73    71    1
    23    90    89    1
    24    51    50    1
    25    51    52    1
    26    43    46    1
    27    43    44    1
    28    71    70    1
    29    89    88    1
    30    65    63    1
    31    63    62    1
    32    81    79    1
    33     8     7    1
    34    70    67    1
    35    52    53    2
    36    22    20    1
    37    29    28    1
    38    44    45    2
    39    30    28    1
    40    21    20    1
    41    14    13    1
    42    58    59    1
    43    88    87    1
    44    79    78    1
    45    67    66    1
    46    67    68    1
    47    59    62    1
    48    59    60    1
    49    62    64    1
    50    20    19    1
    51     7     6    1
    52    28    27    1
    53    13    10    1
    54     6     5    1
    55    80    78    1
    56    27    24    1
    57    87    86    1
    58    68    69    2
    59    78    75    1
    60    60    61    2
    61     5     2    1
    62    75    74    1
    63    75    76    1
    64    19    16    1
    65    10    11    1
    66    10     9    1
    67     2     1    1
    68     2     3    1
    69    12    11    2
    70    24    25    1
    71    24    23    1
    72    16    15    1
    73    16    17    1
    74    86    83    1
    75    25    26    2
    76     4     3    2
    77    76    77    2
    78    18    17    2
    79    83    82    1
    80    83    84    1
    81    85    84    2
