@<TRIPOS>MOLECULE
tmp/5ogoA01.pdb
 82 77 0 0 0
SMALL
GASTEIGER

@<TRIPOS>ATOM
      1  N         12.1010    3.9030    1.9010 N.3    58  LEU58      -0.1245
      2  CA        13.4990    4.1210    1.5970 C.3    58  LEU58       0.1561
      3  C         14.3060    2.9570    2.1600 C.2    58  LEU58       0.2260
      4  O         14.1740    2.6420    3.3430 O.2    58  LEU58      -0.2867
      5  CB        14.0100    5.4870    2.3210 C.3    58  LEU58       0.0270
      6  CG        15.4810    5.7420    2.2370 C.3    58  LEU58       0.0019
      7  CD1       15.9630    5.9310    0.7950 C.3    58  LEU58       0.0001
      8  CD2       15.7690    6.9370    3.0780 C.3    58  LEU58       0.0001
      9  N         17.5170    2.2420    3.7090 N.3    60  VAL60      -0.1245
     10  CA        18.5510    3.0070    4.3900 C.3    60  VAL60       0.1561
     11  C         19.8090    2.2070    4.5900 C.2    60  VAL60       0.2260
     12  O         20.7350    2.6470    5.3050 O.2    60  VAL60      -0.2867
     13  CB        18.0310    3.6150    5.7150 C.3    60  VAL60       0.0252
     14  CG1       16.9140    4.5900    5.4490 C.3    60  VAL60       0.0019
     15  CG2       17.6120    2.5380    6.7070 C.3    60  VAL60       0.0019
     16  N         12.7830    2.3170    5.7710 N.3    65  HIS65      -0.1241
     17  CA        12.0000    3.2610    6.5180 C.3    65  HIS65       0.1621
     18  C         10.7820    3.6560    5.7160 C.2    65  HIS65       0.2264
     19  O         10.9270    4.0580    4.5520 O.2    65  HIS65      -0.2867
     20  CB        12.8180    4.5320    6.8430 C.3    65  HIS65       0.0745
     21  CG        13.8720    4.3320    7.8750 C.ar   65  HIS65       0.0817
     22  ND1       14.6780    5.3790    8.3020 N.ar   65  HIS65      -0.2268
     23  CD2       14.2580    3.2030    8.5840 C.ar   65  HIS65       0.1154
     24  CE1       15.4740    4.8170    9.2780 C.ar   65  HIS65       0.1986
     25  NE2       15.2660    3.5430    9.4290 N.ar   65  HIS65      -0.2212
     26  N          8.3310    6.6190    5.6700 N.3    67  GLU67      -0.1245
     27  CA         8.3460    7.9820    6.1790 C.3    67  GLU67       0.1567
     28  C          6.9900    8.6310    6.0290 C.2    67  GLU67       0.2260
     29  O          6.2820    8.3800    5.0400 O.2    67  GLU67      -0.2867
     30  CB         9.3890    8.8150    5.4720 C.3    67  GLU67       0.0388
     31  CG        10.8090    8.2610    5.6580 C.3    67  GLU67       0.1160
     32  CD        11.8820    9.1140    5.0480 C.2    67  GLU67       0.3649
     33  OE1       11.5560    9.7520    4.0060 O.co2  67  GLU67      -0.2457
     34  OE2       13.0880    9.0530    5.4980 O.co2  67  GLU67      -0.2457
     35  N          5.5330   14.9000    8.6350 N.3    70  ASP70      -0.1239
     36  CA         5.4990   15.3260   10.0110 C.3    70  ASP70       0.1674
     37  C          5.5190   16.8680   10.0900 C.2    70  ASP70       0.2266
     38  O          5.9430   17.4070   11.1300 O.2    70  ASP70      -0.2867
     39  CB         6.6290   14.7340   10.7980 C.3    70  ASP70       0.1410
     40  CG         8.0010   15.1840   10.4060 C.2    70  ASP70       0.3668
     41  OD1        8.1450   15.8900    9.3700 O.co2  70  ASP70      -0.2456
     42  OD2        8.9720   14.8660   11.1710 O.co2  70  ASP70      -0.2456
     43  N          6.5030    9.9740   12.6100 N.3    89  PHE89      -0.1227
     44  CA         7.2700   10.3670   11.4230 C.3    89  PHE89       0.1736
     45  C          7.8010    9.2120   10.6100 C.2    89  PHE89       0.2595
     46  O          8.1490    9.4520    9.4390 O.2    89  PHE89      -0.2718
     47  CB         8.3630   11.3880   11.7520 C.3    89  PHE89       0.0547
     48  CG         9.4830   10.8150   12.5500 C.ar   89  PHE89      -0.0202
     49  CD1       10.6530   10.4240   11.9260 C.ar   89  PHE89      -0.0042
     50  CD2        9.3860   10.6680   13.9220 C.ar   89  PHE89      -0.0042
     51  CE1       11.6920    9.8780   12.6570 C.ar   89  PHE89      -0.0003
     52  CE2       10.4070   10.1400   14.6580 C.ar   89  PHE89      -0.0003
     53  CZ        11.5800    9.7300   14.0310 C.ar   89  PHE89      -0.0000
     54  N          7.9020    8.0130   11.1580 N.am   90  GLN90      -0.1979
     55  CA         8.5350    6.9140   10.4220 C.3    90  GLN90       0.1601
     56  C          8.2020    5.6040   11.1090 C.2    90  GLN90       0.2287
     57  O          8.0500    5.6070   12.3460 O.2    90  GLN90      -0.2864
     58  CB        10.0400    7.1960   10.4250 C.3    90  GLN90       0.0394
     59  CG        10.9390    6.1660    9.7780 C.3    90  GLN90       0.0908
     60  CD        11.6540    5.3490   10.8580 C.2    90  GLN90       0.2608
     61  OE1       11.0470    4.4060   11.3820 O.2    90  GLN90      -0.2717
     62  NE2       12.8750    5.6650   11.1500 N.am   90  GLN90      -0.0878
     63  N         11.6100   20.2990   16.1100 N.3   127  ASP127     -0.1225
     64  CA        12.0710   19.3970   15.0100 C.3   127  ASP127      0.1805
     65  C         12.4090   18.0060   15.5190 C.2   127  ASP127      0.2598
     66  O         12.5180   17.8190   16.6840 O.2   127  ASP127     -0.2718
     67  CB        12.9880   20.0530   13.9570 C.3   127  ASP127      0.1424
     68  CG        14.3860   20.4170   14.4690 C.2   127  ASP127      0.3668
     69  OD1       15.1820   19.5090   14.7120 O.co2 127  ASP127     -0.2456
     70  OD2       14.7170   21.6080   14.5750 O.co2 127  ASP127     -0.2456
     71  N         12.5440   17.0250   14.6500 N.am  128  LEU128     -0.1966
     72  CA        13.1270   15.7420   14.9810 C.3   128  LEU128      0.1728
     73  C         14.5840   15.8830   15.4410 C.2   128  LEU128      0.2616
     74  O         15.0020   15.2160   16.4060 O.2   128  LEU128     -0.2715
     75  CB        13.0530   14.8560   13.7870 C.3   128  LEU128      0.0311
     76  CG        13.8040   13.5200   13.8660 C.3   128  LEU128      0.0022
     77  CD1       13.2880   12.6720   15.0380 C.3   128  LEU128      0.0001
     78  CD2       13.6120   12.8050   12.5320 C.3   128  LEU128      0.0001
     79  N         15.3980   16.6660   14.7420 N.am  129  GLY129     -0.1955
     80  CA        16.7920   16.7660   15.0750 C.3   129  GLY129      0.1869
     81  C         17.0030   17.3280   16.4590 C.2   129  GLY129      0.2309
     82  O         17.8910   16.8780   17.1930 O.2   129  GLY129     -0.2863
@<TRIPOS>BOND
     1     7     6    1
     2     2     1    1
     3     2     3    1
     4     2     5    1
     5     3     4    2
     6     6     5    1
     7     6     8    1
     8     9    10    1
     9    33    32   ar
    10    10    11    1
    11    10    13    1
    12    19    18    2
    13    11    12    2
    14    29    28    2
    15    32    34   ar
    16    32    31    1
    17    14    13    1
    18    30    31    1
    19    30    27    1
    20    26    27    1
    21    13    15    1
    22    18    17    1
    23    16    17    1
    24    28    27    1
    25    17    20    1
    26    20    21    1
    27    21    22   ar
    28    21    23   ar
    29    22    24   ar
    30    23    25   ar
    31    35    36    1
    32    24    25   ar
    33    41    40   ar
    34    46    45    2
    35    59    58    1
    36    59    60    1
    37    36    37    1
    38    36    39    1
    39    37    38    2
    40    40    39    1
    41    40    42   ar
    42    55    58    1
    43    55    56    1
    44    55    54    1
    45    45    54   am
    46    45    44    1
    47    60    62   am
    48    60    61    2
    49    56    57    2
    50    44    47    1
    51    44    43    1
    52    47    48    1
    53    49    48   ar
    54    49    51   ar
    55    78    76    1
    56    48    50   ar
    57    51    53   ar
    58    75    76    1
    59    75    72    1
    60    76    77    1
    61    50    52   ar
    62    67    68    1
    63    67    64    1
    64    53    52   ar
    65    68    70   ar
    66    68    69   ar
    67    71    72    1
    68    71    65   am
    69    79    80    1
    70    79    73   am
    71    72    73    1
    72    64    65    1
    73    64    63    1
    74    80    81    1
    75    73    74    2
    76    65    66    2
    77    81    82    2
