@<TRIPOS>MOLECULE
tmp/5ogqC00.pdb
 178 172 0 0 0
SMALL
GASTEIGER

@<TRIPOS>ATOM
      1  N          9.6600   54.1270   17.7980 N.3    25  GLN25      -0.1245
      2  CA        10.1890   53.5660   16.5680 C.3    25  GLN25       0.1566
      3  C         11.2800   54.4240   15.9260 C.2    25  GLN25       0.2260
      4  O         11.9110   53.9770   14.9680 O.2    25  GLN25      -0.2867
      5  CB         9.0420   53.3330   15.5660 C.3    25  GLN25       0.0367
      6  CG         8.4290   54.5960   14.9670 C.3    25  GLN25       0.0905
      7  CD         7.1770   54.3190   14.1540 C.2    25  GLN25       0.2608
      8  OE1        6.1360   53.9730   14.7050 O.2    25  GLN25      -0.2717
      9  NE2        7.2700   54.4860   12.8280 N.am   25  GLN25      -0.0878
     10  N         12.4070   55.6930   11.4960 N.3    28  CYS28      -0.1221
     11  CA        12.2310   54.4300   10.8060 C.3    28  CYS28       0.1808
     12  C         10.7350   54.0840   10.7020 C.2    28  CYS28       0.2601
     13  O          9.9530   54.3540   11.6340 O.2    28  CYS28      -0.2717
     14  CB        13.0120   53.3350   11.5570 C.3    28  CYS28       0.0970
     15  SG        12.5740   51.6370   11.1510 S.3    28  CYS28      -0.0800
     16  N         10.3460   53.4800    9.5770 N.am   29  GLY29      -0.1957
     17  CA         8.9320   53.1190    9.3290 C.3    29  GLY29       0.1869
     18  C          8.6070   51.7020    9.7600 C.2    29  GLY29       0.2309
     19  O          8.0570   50.8970    9.0040 O.2    29  GLY29      -0.2863
     20  N          6.5520   50.8920   12.2670 N.3    31  CYS31      -0.1221
     21  CA         5.3370   50.9540   13.0910 C.3    31  CYS31       0.1808
     22  C          4.6210   49.6060   13.1480 C.2    31  CYS31       0.2601
     23  O          4.1150   49.1840   14.1960 O.2    31  CYS31      -0.2717
     24  CB         4.3880   52.0220   12.5520 C.3    31  CYS31       0.0970
     25  SG         4.0080   51.9810   10.7700 S.3    31  CYS31      -0.0800
     26  N          4.5600   48.9660   11.9800 N.am   32  TRP32      -0.1976
     27  CA         4.0750   47.5950   11.8130 C.3    32  TRP32       0.1640
     28  C          4.7540   46.6040   12.7990 C.2    32  TRP32       0.2290
     29  O          4.1070   45.7020   13.3630 O.2    32  TRP32      -0.2864
     30  CB         4.2970   47.1860   10.3500 C.3    32  TRP32       0.0576
     31  CG         5.7720   47.0210    9.9660 C.ar   32  TRP32       0.0006
     32  CD1        6.6270   47.9910    9.4760 C.ar   32  TRP32       0.0946
     33  CD2        6.5630   45.8280   10.0940 C.ar   32  TRP32       0.0152
     34  NE1        7.8800   47.4580    9.2830 N.ar   32  TRP32      -0.2442
     35  CE2        7.8720   46.1390    9.6500 C.ar   32  TRP32       0.0810
     36  CE3        6.2880   44.5250   10.5280 C.ar   32  TRP32       0.0012
     37  CZ2        8.9100   45.1890    9.6350 C.ar   32  TRP32       0.0191
     38  CZ3        7.3230   43.5810   10.5200 C.ar   32  TRP32       0.0001
     39  CH2        8.6120   43.9200   10.0660 C.ar   32  TRP32       0.0015
     40  N          7.6320   42.6470    4.3770 N.3    69  GLY69      -0.1210
     41  CA         7.6710   43.8680    3.5670 C.3    69  GLY69       0.1956
     42  C          9.0480   44.5190    3.4820 C.2    69  GLY69       0.2611
     43  O         10.0360   43.8470    3.2350 O.2    69  GLY69      -0.2717
     44  N          9.1080   45.8280    3.7230 N.am   70  LEU70      -0.1979
     45  CA        10.2760   46.6410    3.3980 C.3    70  LEU70       0.1596
     46  C         11.0450   47.1510    4.6140 C.2    70  LEU70       0.2287
     47  O         11.8110   48.1240    4.5220 O.2    70  LEU70      -0.2864
     48  CB         9.8310   47.8050    2.5140 C.3    70  LEU70       0.0297
     49  CG         9.0970   47.3660    1.2380 C.3    70  LEU70       0.0022
     50  CD1        8.5730   48.5480    0.4410 C.3    70  LEU70       0.0001
     51  CD2       10.0040   46.4900    0.3970 C.3    70  LEU70       0.0001
     52  N         12.2300   49.1560    7.4720 N.3    72  CYS72      -0.1221
     53  CA        12.0370   50.5670    7.8670 C.3    72  CYS72       0.1808
     54  C         11.2750   51.3950    6.8490 C.2    72  CYS72       0.2601
     55  O         10.8620   52.5210    7.1470 O.2    72  CYS72      -0.2717
     56  CB        13.3660   51.2660    8.1720 C.3    72  CYS72       0.0970
     57  SG        14.0180   50.9900    9.8310 S.3    72  CYS72      -0.0800
     58  N         11.1260   50.8600    5.6420 N.am   73  GLU73      -0.1965
     59  CA        10.3620   51.5040    4.5940 C.3    73  GLU73       0.1733
     60  C          8.8740   51.1070    4.5940 C.2    73  GLU73       0.2617
     61  O          8.1530   51.3670    3.6370 O.2    73  GLU73      -0.2715
     62  CB        11.0170   51.1740    3.2500 C.3    73  GLU73       0.0429
     63  CG        12.3880   51.8070    3.0500 C.3    73  GLU73       0.1163
     64  CD        12.3770   53.3190    3.1680 C.2    73  GLU73       0.3649
     65  OE1       11.3940   53.9790    2.7520 O.co2  73  GLU73      -0.2457
     66  OE2       13.3660   53.8530    3.6830 O.co2  73  GLU73      -0.2457
     67  N          8.4040   50.4690    5.6600 N.am   74  GLY74      -0.1940
     68  CA         6.9930   50.0770    5.7400 C.3    74  GLY74       0.2014
     69  C          6.7810   48.5870    5.6610 C.2    74  GLY74       0.2639
     70  O          7.5580   47.8620    5.0210 O.2    74  GLY74      -0.2714
     71  N          5.7190   48.1110    6.3000 N.am   75  GLY75      -0.1939
     72  CA         5.5460   46.6810    6.4790 C.3    75  GLY75       0.2014
     73  C          4.1370   46.1480    6.5090 C.2    75  GLY75       0.2639
     74  O          3.1560   46.9030    6.4920 O.2    75  GLY75      -0.2714
     75  N          4.0650   44.8200    6.6360 N.am   76  ILE76      -0.1963
     76  CA         2.8210   44.0670    6.5210 C.3    76  ILE76       0.1727
     77  C          2.5370   43.3470    7.8330 C.2    76  ILE76       0.2616
     78  O          3.4240   42.6650    8.4010 O.2    76  ILE76      -0.2715
     79  CB         2.8860   43.0170    5.3770 C.3    76  ILE76       0.0290
     80  CG1        3.5320   43.6040    4.1220 C.3    76  ILE76       0.0022
     81  CG2        1.4860   42.5430    5.0190 C.3    76  ILE76       0.0023
     82  CD1        3.9640   42.5690    3.1070 C.3    76  ILE76       0.0001
     83  N          1.2870   43.4790    8.2820 N.am   77  LEU77      -0.1977
     84  CA         0.8690   43.0870    9.6280 C.3    77  LEU77       0.1596
     85  C          0.7420   41.5650    9.7590 C.2    77  LEU77       0.2287
     86  O          1.3680   40.9530   10.6320 O.2    77  LEU77      -0.2864
     87  CB        -0.4650   43.7470   10.0000 C.3    77  LEU77       0.0297
     88  CG        -0.4770   45.1870   10.5580 C.3    77  LEU77       0.0022
     89  CD1        0.5370   46.0780    9.8610 C.3    77  LEU77       0.0001
     90  CD2       -1.8690   45.8120   10.4750 C.3    77  LEU77       0.0001
     91  N         14.8160   58.6920    7.1840 N.3   124  ILE124     -0.1245
     92  CA        14.4530   57.3360    7.5510 C.3   124  ILE124      0.1561
     93  C         15.7390   56.5370    7.4960 C.2   124  ILE124      0.2260
     94  O         16.4400   56.5750    6.4920 O.2   124  ILE124     -0.2867
     95  CB        13.3880   56.7580    6.5760 C.3   124  ILE124      0.0252
     96  CG1       12.0020   57.3540    6.8790 C.3   124  ILE124      0.0019
     97  CG2       13.3090   55.2270    6.6210 C.3   124  ILE124      0.0019
     98  CD1       11.4360   56.9900    8.2360 C.3   124  ILE124      0.0001
     99  N         -4.3980   48.6210   11.7690 N.3   175  GLY175     -0.1210
    100  CA        -3.9170   49.5330   10.7640 C.3   175  GLY175      0.1956
    101  C         -4.9500   50.5830   10.4530 C.2   175  GLY175      0.2611
    102  O         -6.1290   50.2540   10.3070 O.2   175  GLY175     -0.2717
    103  N         -4.5100   51.8340   10.3300 N.am  176  PHE176     -0.1976
    104  CA        -5.3890   52.9590   10.0070 C.3   176  PHE176      0.1639
    105  C         -4.7020   53.9880    9.1020 C.2   176  PHE176      0.2290
    106  O         -3.4570   54.0810    9.0760 O.2   176  PHE176     -0.2864
    107  CB        -5.8800   53.6690   11.2860 C.3   176  PHE176      0.0560
    108  CG        -4.8480   54.6040   11.9280 C.ar  176  PHE176     -0.0200
    109  CD1       -3.8010   54.1000   12.6870 C.ar  176  PHE176     -0.0042
    110  CD2       -4.9620   55.9910   11.8200 C.ar  176  PHE176     -0.0042
    111  CE1       -2.8720   54.9510   13.2840 C.ar  176  PHE176     -0.0003
    112  CE2       -4.0260   56.8430   12.4070 C.ar  176  PHE176     -0.0003
    113  CZ        -2.9820   56.3230   13.1450 C.ar  176  PHE176     -0.0000
    114  N         -3.4970   57.5580    7.8500 N.3   178  VAL178     -0.1245
    115  CA        -2.9190   58.7970    8.3510 C.3   178  VAL178      0.1561
    116  C         -3.2290   59.8930    7.3300 C.2   178  VAL178      0.2260
    117  O         -2.7680   59.8330    6.1950 O.2   178  VAL178     -0.2867
    118  CB        -1.3820   58.6770    8.5460 C.3   178  VAL178      0.0252
    119  CG1       -0.7340   60.0300    8.8090 C.3   178  VAL178      0.0019
    120  CG2       -1.0540   57.7060    9.6800 C.3   178  VAL178      0.0019
    121  N         -1.0060   64.3560   12.1880 N.3   183  LEU183     -0.1245
    122  CA         0.3170   64.7890   12.6490 C.3   183  LEU183      0.1561
    123  C          0.2780   65.9730   13.6140 C.2   183  LEU183      0.2260
    124  O          1.2710   66.2840   14.2520 O.2   183  LEU183     -0.2867
    125  CB         1.1920   65.1500   11.4540 C.3   183  LEU183      0.0270
    126  CG         1.3680   64.0820   10.3630 C.3   183  LEU183      0.0019
    127  CD1        2.5280   64.4550    9.4510 C.3   183  LEU183      0.0001
    128  CD2        1.5670   62.6930   10.9620 C.3   183  LEU183      0.0001
    129  N         -1.5760   60.7480    3.6600 N.3   198  LEU198     -0.1245
    130  CA        -0.1120   60.6590    3.7280 C.3   198  LEU198      0.1561
    131  C          0.3640   59.2060    3.6240 C.2   198  LEU198      0.2260
    132  O          1.4150   58.9230    3.0350 O.2   198  LEU198     -0.2867
    133  CB         0.4140   61.2550    5.0330 C.3   198  LEU198      0.0270
    134  CG         0.2470   62.7540    5.3020 C.3   198  LEU198      0.0019
    135  CD1        1.0800   63.1020    6.5330 C.3   198  LEU198      0.0001
    136  CD2        0.6710   63.6250    4.1230 C.3   198  LEU198      0.0001
    137  N         -0.2960   55.0130    5.7550 N.3   200  GLY200     -0.1210
    138  CA        -0.9370   54.2030    6.8000 C.3   200  GLY200      0.1956
    139  C         -0.0450   54.0070    8.0270 C.2   200  GLY200      0.2612
    140  O          1.1850   53.9910    7.9230 O.2   200  GLY200     -0.2717
    141  N         -0.6900   53.8570    9.1850 N.am  201  HIS201     -0.1961
    142  CA        -0.0120   53.6210   10.4580 C.3   201  HIS201      0.1787
    143  C         -0.5510   52.3830   11.1580 C.2   201  HIS201      0.2620
    144  O         -1.7690   52.1780   11.2510 O.2   201  HIS201     -0.2715
    145  CB        -0.1560   54.8310   11.3820 C.3   201  HIS201      0.0785
    146  CG         0.7730   54.8320   12.5670 C.ar  201  HIS201      0.0821
    147  ND1        1.8690   54.0030   12.6820 N.ar  201  HIS201     -0.2267
    148  CD2        0.7910   55.6230   13.6670 C.ar  201  HIS201      0.1154
    149  CE1        2.5110   54.2800   13.8040 C.ar  201  HIS201      0.1986
    150  NE2        1.8800   55.2610   14.4140 N.ar  201  HIS201     -0.2212
    151  N          0.3780   51.5590   11.6460 N.am  202  ALA202     -0.1977
    152  CA         0.0430   50.3850   12.4500 C.3   202  ALA202      0.1597
    153  C          0.3010   50.6910   13.9330 C.2   202  ALA202      0.2287
    154  O          1.3640   51.2120   14.3070 O.2   202  ALA202     -0.2864
    155  CB         0.8780   49.2070   11.9990 C.3   202  ALA202      0.0319
    156  N          5.3330   56.5110   19.0840 N.3   223  TRP223     -0.1241
    157  CA         6.1010   57.7580   18.8800 C.3   223  TRP223      0.1605
    158  C          6.5550   58.4360   20.1770 C.2   223  TRP223      0.2264
    159  O          6.6280   59.6660   20.2520 O.2   223  TRP223     -0.2867
    160  CB         5.2800   58.7580   18.0690 C.3   223  TRP223      0.0550
    161  CG         4.9010   58.2900   16.6830 C.ar  223  TRP223      0.0003
    162  CD1        5.2850   57.1210   16.0330 C.ar  223  TRP223      0.0946
    163  CD2        4.0790   58.9930   15.7760 C.ar  223  TRP223      0.0152
    164  NE1        4.7200   57.0760   14.7730 N.ar  223  TRP223     -0.2442
    165  CE2        3.9770   58.2170   14.5970 C.ar  223  TRP223      0.0810
    166  CE3        3.4100   60.2220   15.8360 C.ar  223  TRP223      0.0012
    167  CZ2        3.2270   58.6310   13.5130 C.ar  223  TRP223      0.0191
    168  CZ3        2.6640   60.6180   14.7630 C.ar  223  TRP223      0.0001
    169  CH2        2.5880   59.8440   13.6100 C.ar  223  TRP223      0.0015
    170  N         -8.2380   46.4120    9.5360 N.3   247  GLU247     -0.1245
    171  CA        -7.0710   45.5070    9.5390 C.3   247  GLU247      0.1567
    172  C         -6.5320   45.2400   10.9450 C.2   247  GLU247      0.2260
    173  O         -5.3370   45.4560   11.2480 O.2   247  GLU247     -0.2867
    174  CB        -5.9520   45.9760    8.5970 C.3   247  GLU247      0.0388
    175  CG        -5.0220   44.8220    8.2110 C.3   247  GLU247      0.1160
    176  CD        -3.9420   45.1960    7.2140 C.2   247  GLU247      0.3649
    177  OE1       -3.9840   46.3240    6.6780 O.co2 247  GLU247     -0.2457
    178  OE2       -3.0470   44.3470    6.9560 O.co2 247  GLU247     -0.2457
@<TRIPOS>BOND
     1    51    49    1
     2    50    49    1
     3    49    48    1
     4    48    45    1
     5    65    64   ar
     6   132   131    2
     7    63    64    1
     8    63    62    1
     9    82    80    1
    10    64    66   ar
    11    43    42    2
    12    62    59    1
    13    45    44    1
    14    45    46    1
    15    42    41    1
    16    42    44   am
    17    41    40    1
    18   131   130    1
    19    61    60    2
    20   129   130    1
    21   130   133    1
    22    80    79    1
    23   136   134    1
    24    47    46    2
    25    60    59    1
    26    60    67   am
    27    59    58    1
    28    81    79    1
    29    70    69    2
    30   133   134    1
    31   134   135    1
    32    79    76    1
    33    58    54   am
    34    67    68    1
    35    69    68    1
    36    69    71   am
    37   137   138    1
    38   117   116    2
    39    71    72    1
    40    72    73    1
    41    74    73    2
    42    94    93    2
    43    73    75   am
    44    76    75    1
    45    76    77    1
    46    95    97    1
    47    95    96    1
    48    95    92    1
    49   177   176   ar
    50   138   139    1
    51    54    55    2
    52    54    53    1
    53    96    98    1
    54   178   176   ar
    55    91    92    1
    56   176   175    1
    57   116   115    1
    58    52    53    1
    59    93    92    1
    60    77    83   am
    61    77    78    2
    62   114   115    1
    63    53    56    1
    64   140   139    2
    65   139   141   am
    66    56    57    1
    67   175   174    1
    68    83    84    1
    69   115   118    1
    70   118   119    1
    71   118   120    1
    72   174   171    1
    73    19    18    2
    74   106   105    2
    75   105   104    1
    76   141   142    1
    77    34    32   ar
    78    34    35   ar
    79    17    16    1
    80    17    18    1
    81   127   126    1
    82    32    31   ar
    83   170   171    1
    84   171   172    1
    85    16    12   am
    86    84    85    1
    87    84    87    1
    88    37    35   ar
    89    37    39   ar
    90    35    33   ar
    91    85    86    2
    92    57    15    1
    93    89    88    1
    94    31    33   ar
    95    31    30    1
    96    87    88    1
    97   104   103    1
    98   104   107    1
    99    39    38   ar
   100    33    36   ar
   101   102   101    2
   102   103   101   am
   103    30    27    1
   104   126   128    1
   105   126   125    1
   106   101   100    1
   107   142   143    1
   108   142   145    1
   109    90    88    1
   110    38    36   ar
   111    12    11    1
   112    12    13    2
   113   100    99    1
   114    25    24    1
   115    11    10    1
   116    11    14    1
   117   172   173    2
   118    15    14    1
   119   143   144    2
   120   143   151   am
   121   107   108    1
   122   145   146    1
   123   125   122    1
   124   151   152    1
   125    27    26    1
   126    27    28    1
   127   110   108   ar
   128   110   112   ar
   129   108   109   ar
   130    26    22   am
   131   155   152    1
   132   121   122    1
   133    20    21    1
   134   112   113   ar
   135   152   153    1
   136    24    21    1
   137   146   147   ar
   138   146   148   ar
   139   122   123    1
   140   147   149   ar
   141   109   111   ar
   142    28    29    2
   143     9     7   am
   144    21    22    1
   145   113   111   ar
   146    22    23    2
   147   167   169   ar
   148   167   165   ar
   149   169   168   ar
   150   123   124    2
   151   148   150   ar
   152   149   150   ar
   153   153   154    2
   154     7     8    2
   155     7     6    1
   156   165   164   ar
   157   165   163   ar
   158   168   166   ar
   159   164   162   ar
   160     6     5    1
   161     4     3    2
   162     5     2    1
   163   163   166   ar
   164   163   161   ar
   165     3     2    1
   166   162   161   ar
   167     2     1    1
   168   161   160    1
   169   160   157    1
   170   157   156    1
   171   157   158    1
   172   158   159    2
