@<TRIPOS>MOLECULE
tmp/5ogrA00.pdb
 192 187 0 0 0
SMALL
GASTEIGER

@<TRIPOS>ATOM
      1  N          3.4340   -4.9720   42.0430 N.3    25  GLN25      -0.1245
      2  CA         2.2810   -4.3850   41.3200 C.3    25  GLN25       0.1566
      3  C          0.9610   -4.9460   41.7680 C.2    25  GLN25       0.2260
      4  O         -0.1040   -4.3750   41.4600 O.2    25  GLN25      -0.2867
      5  CB         2.3200   -4.7340   39.8320 C.3    25  GLN25       0.0367
      6  CG         3.3590   -4.0670   38.9660 C.3    25  GLN25       0.0905
      7  CD         3.4480   -4.7260   37.6000 C.2    25  GLN25       0.2608
      8  OE1        2.5160   -4.6480   36.8020 O.2    25  GLN25      -0.2717
      9  NE2        4.5690   -5.4130   37.3360 N.am   25  GLN25      -0.0878
     10  N         -2.7110   -6.0430   39.0490 N.3    28  CYS28      -0.1221
     11  CA        -2.9630   -4.7830   38.3050 C.3    28  CYS28       0.1808
     12  C         -1.8420   -4.7600   37.2740 C.2    28  CYS28       0.2601
     13  O         -0.6900   -4.9290   37.6670 O.2    28  CYS28      -0.2717
     14  CB        -2.9090   -3.5540   39.2700 C.3    28  CYS28       0.0970
     15  SG        -2.9520   -1.9310   38.4960 S.3    28  CYS28      -0.0800
     16  N         -2.1110   -4.4370   36.0010 N.am   29  GLY29      -0.1957
     17  CA        -1.0770   -4.2410   34.9700 C.3    29  GLY29       0.1869
     18  C         -0.4280   -2.8860   35.0070 C.2    29  GLY29       0.2309
     19  O         -0.3250   -2.1570   33.9860 O.2    29  GLY29      -0.2863
     20  N          2.7440   -2.2170   35.6580 N.3    31  CYS31      -0.1221
     21  CA         4.1620   -2.2780   35.4530 C.3    31  CYS31       0.1808
     22  C          4.7430   -0.9870   34.9180 C.2    31  CYS31       0.2601
     23  O          5.8280   -0.5240   35.3310 O.2    31  CYS31      -0.2717
     24  CB         4.5270   -3.4480   34.5520 C.3    31  CYS31       0.0970
     25  SG         3.7830   -3.3690   32.8950 S.3    31  CYS31      -0.0800
     26  N          4.0740   -0.4170   33.9140 N.am   32  TRP32      -0.1976
     27  CA         4.4860    0.8280   33.2950 C.3    32  TRP32       0.1640
     28  C          4.7260    1.9400   34.3390 C.2    32  TRP32       0.2290
     29  O          5.7010    2.6760   34.2440 O.2    32  TRP32      -0.2864
     30  CB         3.4200    1.2730   32.2770 C.3    32  TRP32       0.0576
     31  CG         2.0710    1.6020   32.8420 C.ar   32  TRP32       0.0006
     32  CD1        1.0210    0.7560   33.0830 C.ar   32  TRP32       0.0946
     33  CD2        1.6640    2.8880   33.3230 C.ar   32  TRP32       0.0152
     34  NE1       -0.0280    1.4650   33.6260 N.ar   32  TRP32      -0.2442
     35  CE2        0.3470    2.7790   33.7600 C.ar   32  TRP32       0.0810
     36  CE3        2.3030    4.1370   33.3650 C.ar   32  TRP32       0.0012
     37  CZ2       -0.3270    3.8730   34.2980 C.ar   32  TRP32       0.0191
     38  CZ3        1.6520    5.2170   33.9100 C.ar   32  TRP32       0.0001
     39  CH2        0.3460    5.0810   34.3520 C.ar   32  TRP32       0.0015
     40  N         -2.3900    5.8610   29.1410 N.3    69  GLY69      -0.1210
     41  CA        -3.0080    4.5700   28.8160 C.3    69  GLY69       0.1956
     42  C         -4.2390    4.1900   29.6230 C.2    69  GLY69       0.2611
     43  O         -5.1250    5.0350   29.9270 O.2    69  GLY69      -0.2717
     44  N         -4.3020    2.9040   29.9180 N.am   70  LEU70      -0.1979
     45  CA        -5.4430    2.2180   30.4700 C.3    70  LEU70       0.1596
     46  C         -5.3170    1.7710   31.9480 C.2    70  LEU70       0.2287
     47  O         -6.0750    0.8650   32.4390 O.2    70  LEU70      -0.2864
     48  CB        -5.7210    0.9920   29.6230 C.3    70  LEU70       0.0297
     49  CG        -5.8020    1.2530   28.1170 C.3    70  LEU70       0.0022
     50  CD1       -6.1120   -0.1000   27.4500 C.3    70  LEU70       0.0001
     51  CD2       -6.8860    2.3000   27.7310 C.3    70  LEU70       0.0001
     52  N         -4.6730   -0.0210   35.1340 N.3    72  CYS72      -0.1221
     53  CA        -4.3670   -1.4140   35.4080 C.3    72  CYS72       0.1808
     54  C         -4.4160   -2.3220   34.1760 C.2    72  CYS72       0.2601
     55  O         -4.0060   -3.4810   34.2640 O.2    72  CYS72      -0.2717
     56  CB        -5.2790   -1.9840   36.5130 C.3    72  CYS72       0.0970
     57  SG        -4.9310   -1.4080   38.1900 S.3    72  CYS72      -0.0800
     58  N         -4.9160   -1.7670   33.0640 N.am   73  GLU73      -0.1965
     59  CA        -4.9900   -2.5220   31.7950 C.3    73  GLU73       0.1733
     60  C         -3.8800   -2.1450   30.8320 C.2    73  GLU73       0.2617
     61  O         -3.8980   -2.4900   29.6590 O.2    73  GLU73      -0.2715
     62  CB        -6.3850   -2.3300   31.1700 C.3    73  GLU73       0.0429
     63  CG        -7.4940   -2.8420   32.0370 C.3    73  GLU73       0.1163
     64  CD        -7.5550   -4.3490   32.1900 C.2    73  GLU73       0.3649
     65  OE1       -7.1360   -5.1200   31.2750 O.co2  73  GLU73      -0.2457
     66  OE2       -8.1060   -4.8020   33.2340 O.co2  73  GLU73      -0.2457
     67  N         -2.8540   -1.4720   31.3310 N.am   74  GLY74      -0.1940
     68  CA        -1.6230   -1.2550   30.5420 C.3    74  GLY74       0.2014
     69  C         -1.3710    0.2180   30.2220 C.2    74  GLY74       0.2639
     70  O         -2.2960    1.0200   30.0190 O.2    74  GLY74      -0.2714
     71  N         -0.0980    0.5700   30.1510 N.am   75  GLY75      -0.1939
     72  CA         0.3100    1.9420   30.0130 C.3    75  GLY75       0.2014
     73  C          1.5070    2.2300   29.1450 C.2    75  GLY75       0.2639
     74  O          2.1680    1.3660   28.5880 O.2    75  GLY75      -0.2714
     75  N          1.8080    3.5110   29.0530 N.am   76  ILE76      -0.1963
     76  CA         2.7080    4.0790   28.0410 C.3    76  ILE76       0.1727
     77  C          3.8630    4.7690   28.7790 C.2    76  ILE76       0.2616
     78  O          3.6390    5.6190   29.6290 O.2    76  ILE76      -0.2715
     79  CB         1.9810    5.0730   27.1510 C.3    76  ILE76       0.0290
     80  CG1        0.6150    4.5300   26.7260 C.3    76  ILE76       0.0022
     81  CG2        2.8220    5.3490   25.8970 C.3    76  ILE76       0.0023
     82  CD1       -0.2100    5.5510   25.9410 C.3    76  ILE76       0.0001
     83  N          5.0820    4.4010   28.4250 N.am   77  LEU77      -0.1977
     84  CA         6.2760    4.8200   29.2070 C.3    77  LEU77       0.1596
     85  C          6.6450    6.3080   29.0630 C.2    77  LEU77       0.2287
     86  O          6.8580    7.0240   30.0390 O.2    77  LEU77      -0.2864
     87  CB         7.4830    3.9480   28.8010 C.3    77  LEU77       0.0297
     88  CG         7.5990    2.6080   29.5110 C.3    77  LEU77       0.0022
     89  CD1        6.3880    1.7550   29.2780 C.3    77  LEU77       0.0001
     90  CD2        8.9190    1.9130   29.0950 C.3    77  LEU77       0.0001
     91  N          2.7730  -16.0420   39.2400 N.3   112  HIS112     -0.1241
     92  CA         3.0870  -17.2960   38.5760 C.3   112  HIS112      0.1621
     93  C          4.3600  -17.9190   39.1410 C.2   112  HIS112      0.2264
     94  O          5.2300  -18.3760   38.3870 O.2   112  HIS112     -0.2867
     95  CB         3.1860  -17.1210   37.0500 C.3   112  HIS112      0.0745
     96  CG         1.9390  -16.5840   36.4030 C.ar  112  HIS112      0.0817
     97  ND1        1.8630  -15.2970   35.9070 N.ar  112  HIS112     -0.2268
     98  CD2        0.7240  -17.1430   36.1720 C.ar  112  HIS112      0.1154
     99  CE1        0.6640  -15.0860   35.3930 C.ar  112  HIS112      0.1986
    100  NE2       -0.0550  -16.1840   35.5510 N.ar  112  HIS112     -0.2212
    101  N         -7.9110   -8.9290   37.6580 N.3   124  ILE124     -0.1245
    102  CA        -7.2190   -7.6270   37.5970 C.3   124  ILE124      0.1561
    103  C         -8.1430   -6.6210   38.3190 C.2   124  ILE124      0.2260
    104  O         -9.3520   -6.5650   38.0100 O.2   124  ILE124     -0.2867
    105  CB        -6.9650   -7.2060   36.1120 C.3   124  ILE124      0.0252
    106  CG1       -5.9810   -8.1840   35.4090 C.3   124  ILE124      0.0019
    107  CG2       -6.4270   -5.7840   36.0010 C.3   124  ILE124      0.0019
    108  CD1       -4.5480   -8.1170   35.8990 C.3   124  ILE124      0.0001
    109  N         10.8480   -1.2960   28.3480 N.3   175  GLY175     -0.1210
    110  CA         9.7530   -2.2100   27.9460 C.3   175  GLY175      0.1956
    111  C         10.2880   -3.4070   27.1400 C.2   175  GLY175      0.2611
    112  O         11.2710   -3.2970   26.3660 O.2   175  GLY175     -0.2717
    113  N          9.6640   -4.5700   27.2910 N.am  176  PHE176     -0.1976
    114  CA        10.0850   -5.7520   26.5650 C.3   176  PHE176      0.1639
    115  C          8.8520   -6.6570   26.3320 C.2   176  PHE176      0.2290
    116  O          7.8160   -6.5420   26.9970 O.2   176  PHE176     -0.2864
    117  CB        11.2640   -6.5080   27.2310 C.3   176  PHE176      0.0560
    118  CG        10.8720   -7.3140   28.4310 C.ar  176  PHE176     -0.0200
    119  CD1       10.6400   -6.6870   29.6350 C.ar  176  PHE176     -0.0042
    120  CD2       10.6570   -8.6940   28.3430 C.ar  176  PHE176     -0.0042
    121  CE1       10.2770   -7.4350   30.7560 C.ar  176  PHE176     -0.0003
    122  CE2       10.3060   -9.4360   29.4670 C.ar  176  PHE176     -0.0003
    123  CZ        10.1240   -8.7920   30.6710 C.ar  176  PHE176     -0.0000
    124  N          6.7290   -9.9200   26.3570 N.3   178  VAL178     -0.1245
    125  CA         6.4930  -11.1180   27.1770 C.3   178  VAL178      0.1561
    126  C          5.9660  -12.2460   26.3380 C.2   178  VAL178      0.2260
    127  O          4.9010  -12.1070   25.7410 O.2   178  VAL178     -0.2867
    128  CB         5.5540  -10.8420   28.3530 C.3   178  VAL178      0.0252
    129  CG1        5.2290  -12.1030   29.1340 C.3   178  VAL178      0.0019
    130  CG2        6.1170   -9.7200   29.2180 C.3   178  VAL178      0.0019
    131  N          6.9860  -16.4080   31.9900 N.3   183  LEU183     -0.1245
    132  CA         6.2070  -16.5890   33.1820 C.3   183  LEU183      0.1561
    133  C          6.7090  -17.7720   34.0020 C.2   183  LEU183      0.2260
    134  O          6.3630  -17.9050   35.1690 O.2   183  LEU183     -0.2867
    135  CB         4.7070  -16.7330   32.8570 C.3   183  LEU183      0.0270
    136  CG         4.1040  -15.5730   32.0800 C.3   183  LEU183      0.0019
    137  CD1        2.5920  -15.8190   31.9950 C.3   183  LEU183      0.0001
    138  CD2        4.3960  -14.2020   32.6310 C.3   183  LEU183      0.0001
    139  N          2.4910  -12.8600   24.5130 N.3   198  LEU198     -0.1231
    140  CA         1.4400  -12.5090   25.4320 C.3   198  LEU198      0.1693
    141  C          1.1640  -11.0200   25.5020 C.2   198  LEU198      0.2593
    142  O          0.0060  -10.5950   25.5310 O.2   198  LEU198     -0.2718
    143  CB         1.7220  -13.0440   26.8510 C.3   198  LEU198      0.0284
    144  CG         1.7520  -14.5850   26.9730 C.3   198  LEU198      0.0019
    145  CD1        1.9830  -15.0260   28.4150 C.3   198  LEU198      0.0001
    146  CD2        0.4750  -15.2140   26.4770 C.3   198  LEU198      0.0001
    147  N          2.2140  -10.2010   25.5300 N.am  199  GLY199     -0.1942
    148  CA         2.0240   -8.7610   25.7630 C.3   199  GLY199      0.2014
    149  C          3.3520   -8.1310   26.0250 C.2   199  GLY199      0.2639
    150  O          4.3450   -8.5880   25.5090 O.2   199  GLY199     -0.2714
    151  N          3.3390   -7.0650   26.8090 N.am  200  GLY200     -0.1939
    152  CA         4.6000   -6.3570   27.1180 C.3   200  GLY200      0.2014
    153  C          4.6800   -6.0820   28.6100 C.2   200  GLY200      0.2639
    154  O          3.6730   -5.9920   29.3170 O.2   200  GLY200     -0.2714
    155  N          5.9160   -5.9280   29.0690 N.am  201  HIS201     -0.1959
    156  CA         6.1690   -5.6670   30.4790 C.3   201  HIS201      0.1787
    157  C          7.1860   -4.5240   30.5430 C.2   201  HIS201      0.2620
    158  O          7.9650   -4.3190   29.6260 O.2   201  HIS201     -0.2715
    159  CB         6.6870   -6.9580   31.1210 C.3   201  HIS201      0.0785
    160  CG         6.8760   -6.9270   32.6210 C.ar  201  HIS201      0.0821
    161  ND1        6.3670   -5.9230   33.4250 N.ar  201  HIS201     -0.2267
    162  CD2        7.5350   -7.7660   33.4450 C.ar  201  HIS201      0.1154
    163  CE1        6.7110   -6.1410   34.6800 C.ar  201  HIS201      0.1986
    164  NE2        7.4200   -7.2620   34.7200 N.ar  201  HIS201     -0.2212
    165  N          7.1190   -3.7590   31.6300 N.am  202  ALA202     -0.1977
    166  CA         7.9270   -2.5540   31.8290 C.3   202  ALA202      0.1597
    167  C          8.5970   -2.7140   33.1830 C.2   202  ALA202      0.2287
    168  O          7.9390   -2.9520   34.1810 O.2   202  ALA202     -0.2864
    169  CB         7.0490   -1.3130   31.8420 C.3   202  ALA202      0.0319
    170  N          7.3920   -7.8110   40.9200 N.3   223  TRP223     -0.1241
    171  CA         6.5660   -8.9640   41.3170 C.3   223  TRP223      0.1605
    172  C          6.9910   -9.5310   42.6580 C.2   223  TRP223      0.2264
    173  O          6.7640  -10.7060   42.9520 O.2   223  TRP223     -0.2867
    174  CB         6.6530  -10.0530   40.2490 C.3   223  TRP223      0.0550
    175  CG         5.9860   -9.6760   38.9280 C.ar  223  TRP223      0.0003
    176  CD1        5.1790   -8.5990   38.6850 C.ar  223  TRP223      0.0946
    177  CD2        6.0260  -10.4300   37.6970 C.ar  223  TRP223      0.0152
    178  NE1        4.7520   -8.6100   37.3530 N.ar  223  TRP223     -0.2442
    179  CE2        5.2540   -9.7360   36.7500 C.ar  223  TRP223      0.0810
    180  CE3        6.6740  -11.6150   37.3100 C.ar  223  TRP223      0.0012
    181  CZ2        5.1330  -10.1720   35.4260 C.ar  223  TRP223      0.0191
    182  CZ3        6.5350  -12.0660   36.0200 C.ar  223  TRP223      0.0001
    183  CH2        5.7600  -11.3630   35.0880 C.ar  223  TRP223      0.0015
    184  N         12.7860    0.2320   23.9890 N.3   247  GLU247     -0.1245
    185  CA        11.7950    1.0850   24.6300 C.3   247  GLU247      0.1567
    186  C         12.3570    1.5980   25.9670 C.2   247  GLU247      0.2260
    187  O         11.6530    1.6060   26.9470 O.2   247  GLU247     -0.2867
    188  CB        10.5580    0.1910   24.8230 C.3   247  GLU247      0.0388
    189  CG         9.3260    0.8680   25.3240 C.3   247  GLU247      0.1160
    190  CD         8.5690    1.6250   24.2720 C.2   247  GLU247      0.3649
    191  OE1        8.6230    1.2210   23.0920 O.co2 247  GLU247     -0.2457
    192  OE2        7.9120    2.6070   24.6720 O.co2 247  GLU247     -0.2457
@<TRIPOS>BOND
     1   191   190   ar
     2   184   185    1
     3   190   192   ar
     4   190   189    1
     5   139   140    1
     6   185   188    1
     7   185   186    1
     8   188   189    1
     9   140   141    1
    10   140   143    1
    11   141   147   am
    12   141   142    2
    13   150   149    2
    14   147   148    1
    15   127   126    2
    16   148   149    1
    17    81    79    1
    18    82    80    1
    19   186   187    2
    20   149   151   am
    21   115   114    1
    22   115   116    2
    23   126   125    1
    24   124   125    1
    25   112   111    2
    26   146   144    1
    27   114   117    1
    28   114   113    1
    29    80    79    1
    30   151   152    1
    31   143   144    1
    32   144   145    1
    33   152   153    1
    34   111   113   am
    35   111   110    1
    36    79    76    1
    37   125   128    1
    38   117   118    1
    39    50    49    1
    40    51    49    1
    41   110   109    1
    42    76    77    1
    43    76    75    1
    44    49    48    1
    45   120   118   ar
    46   120   122   ar
    47   128   129    1
    48   128   130    1
    49    83    77   am
    50    83    84    1
    51   118   119   ar
    52    74    73    2
    53   153   155   am
    54   153   154    2
    55    77    78    2
    56    87    84    1
    57    87    88    1
    58    41    40    1
    59    41    42    1
    60    75    73   am
    61    85    84    1
    62    85    86    2
    63   155   156    1
    64    90    88    1
    65    73    72    1
    66    89    88    1
    67   122   123   ar
    68    42    44   am
    69    42    43    2
    70    48    45    1
    71   158   157    2
    72   119   121   ar
    73    61    60    2
    74    44    45    1
    75    72    71    1
    76    70    69    2
    77    71    69   am
    78    69    68    1
    79    45    46    1
    80   156   157    1
    81   156   159    1
    82    68    67    1
    83   157   165   am
    84   123   121   ar
    85    60    67   am
    86    60    59    1
    87   159   160    1
    88    62    59    1
    89    62    63    1
    90    65    64   ar
    91   165   166    1
    92    59    58    1
    93   166   169    1
    94   166   167    1
    95    46    47    2
    96   131   132    1
    97   137   136    1
    98    63    64    1
    99   136   138    1
   100   136   135    1
   101    64    66   ar
   102    30    31    1
   103    30    27    1
   104   160   161   ar
   105   160   162   ar
   106    31    32   ar
   107    31    33   ar
   108   135   132    1
   109    25    24    1
   110    58    54   am
   111    32    34   ar
   112   132   133    1
   113   167   168    2
   114    27    26    1
   115    27    28    1
   116    33    36   ar
   117    33    35   ar
   118    36    38   ar
   119   161   163   ar
   120   162   164   ar
   121    34    35   ar
   122    35    37   ar
   123    38    39   ar
   124    26    22   am
   125    19    18    2
   126   133   134    2
   127    54    55    2
   128    54    53    1
   129    29    28    2
   130    37    39   ar
   131    24    21    1
   132   163   164   ar
   133    22    23    2
   134    22    21    1
   135    17    18    1
   136    17    16    1
   137   183   181   ar
   138   183   182   ar
   139    52    53    1
   140    99   100   ar
   141    99    97   ar
   142    53    56    1
   143   106   108    1
   144   106   105    1
   145   181   179   ar
   146    21    20    1
   147   100    98   ar
   148    97    96   ar
   149   107   105    1
   150    16    12   am
   151   182   180   ar
   152   105   102    1
   153    98    96   ar
   154    96    95    1
   155    56    57    1
   156   179   178   ar
   157   179   177   ar
   158     8     7    2
   159    95    92    1
   160    12    13    2
   161    12    11    1
   162   180   177   ar
   163     9     7   am
   164   178   176   ar
   165   102   101    1
   166   102   103    1
   167     7     6    1
   168   177   175   ar
   169   104   103    2
   170    57    15    1
   171    11    10    1
   172    11    14    1
   173    94    93    2
   174    15    14    1
   175    92    93    1
   176    92    91    1
   177   176   175   ar
   178   175   174    1
   179     6     5    1
   180     5     2    1
   181   174   171    1
   182   170   171    1
   183   171   172    1
   184     2     3    1
   185     2     1    1
   186     4     3    2
   187   172   173    2
