@<TRIPOS>MOLECULE
tmp/5ogsA01.pdb
 88 85 0 0 0
SMALL
GASTEIGER

@<TRIPOS>ATOM
      1  N         68.1470   78.2760  110.7700 N.3    29  TRP29      -0.1227
      2  CA        68.7110   77.6850  111.9800 C.3    29  TRP29       0.1737
      3  C         70.2020   77.9940  111.9720 C.2    29  TRP29       0.2595
      4  O         70.9490   77.4340  111.1640 O.2    29  TRP29      -0.2718
      5  CB        68.4480   76.1770  112.0400 C.3    29  TRP29       0.0564
      6  CG        68.8370   75.5210  113.3460 C.ar   29  TRP29       0.0003
      7  CD1       69.7480   75.9740  114.2570 C.ar   29  TRP29       0.0946
      8  CD2       68.3120   74.2980  113.8830 C.ar   29  TRP29       0.0152
      9  NE1       69.8300   75.1090  115.3200 N.ar   29  TRP29      -0.2442
     10  CE2       68.9570   74.0730  115.1160 C.ar   29  TRP29       0.0810
     11  CE3       67.3620   73.3720  113.4410 C.ar   29  TRP29       0.0012
     12  CZ2       68.6820   72.9610  115.9110 C.ar   29  TRP29       0.0191
     13  CZ3       67.0910   72.2690  114.2320 C.ar   29  TRP29       0.0001
     14  CH2       67.7490   72.0730  115.4530 C.ar   29  TRP29       0.0015
     15  N         70.6290   78.8870  112.8580 N.am   30  ASN30      -0.1960
     16  CA        72.0240   79.3080  112.9160 C.3    30  ASN30       0.1819
     17  C         72.4960   79.2480  114.3670 C.2    30  ASN30       0.2622
     18  O         71.8840   78.6050  115.2300 O.2    30  ASN30      -0.2715
     19  CB        72.1900   80.7020  112.2930 C.3    30  ASN30       0.1195
     20  CG        71.2750   81.7430  112.9220 C.2    30  ASN30       0.2630
     21  OD1       70.8540   81.6130  114.0710 O.2    30  ASN30      -0.2716
     22  ND2       70.9660   82.7880  112.1620 N.am   30  ASN30      -0.0877
     23  N         73.6030   79.9340  114.6530 N.am   31  SER31      -0.1950
     24  CA        74.1640   79.9610  115.9970 C.3    31  SER31       0.1924
     25  C         73.4190   80.8970  116.9370 C.2    31  SER31       0.2314
     26  O         73.7140   80.9050  118.1370 O.2    31  SER31      -0.2863
     27  CB        75.6400   80.3630  115.9400 C.3    31  SER31       0.2116
     28  OG        76.3820   79.4540  115.1460 O.3    31  SER31      -0.2180
     29  N         68.6810   80.2550  121.2690 N.3    51  HIS51      -0.1241
     30  CA        69.4120   79.2550  122.0410 C.3    51  HIS51       0.1621
     31  C         69.7130   79.7620  123.4450 C.2    51  HIS51       0.2264
     32  O         69.6470   79.0020  124.4180 O.2    51  HIS51      -0.2867
     33  CB        70.7040   78.8730  121.3200 C.3    51  HIS51       0.0745
     34  CG        70.4950   78.3930  119.9170 C.ar   51  HIS51       0.0817
     35  ND1       69.5830   77.4110  119.5940 N.ar   51  HIS51      -0.2268
     36  CD2       71.0860   78.7540  118.7540 C.ar   51  HIS51       0.1154
     37  CE1       69.6180   77.1920  118.2920 C.ar   51  HIS51       0.1986
     38  NE2       70.5220   77.9940  117.7590 N.ar   51  HIS51      -0.2212
     39  N         74.6670   73.6670  110.4600 N.3   258  VAL258     -0.1231
     40  CA        74.0260   74.7410  111.2070 C.3   258  VAL258      0.1692
     41  C         74.9950   75.8880  111.4730 C.2   258  VAL258      0.2592
     42  O         74.6680   77.0550  111.2500 O.2   258  VAL258     -0.2718
     43  CB        73.4210   74.2100  112.5260 C.3   258  VAL258      0.0266
     44  CG1       73.0660   75.3620  113.4520 C.3   258  VAL258      0.0020
     45  CG2       72.1940   73.3590  112.2390 C.3   258  VAL258      0.0020
     46  N         76.1970   75.5730  111.9470 N.am  259  GLY259     -0.1957
     47  CA        77.1780   76.6000  112.2400 C.3   259  GLY259      0.1869
     48  C         78.5820   76.0460  112.2160 C.2   259  GLY259      0.2309
     49  O         78.7960   74.8310  112.2810 O.2   259  GLY259     -0.2863
     50  N         82.5050   76.7970  113.9590 N.3   261  HIS261     -0.1241
     51  CA        83.2460   77.4560  115.0270 C.3   261  HIS261      0.1621
     52  C         84.7190   77.0930  114.9170 C.2   261  HIS261      0.2264
     53  O         85.0610   75.9190  114.7390 O.2   261  HIS261     -0.2867
     54  CB        82.6970   77.0610  116.4030 C.3   261  HIS261      0.0745
     55  CG        81.2480   77.3850  116.5900 C.ar  261  HIS261      0.0817
     56  ND1       80.8160   78.5020  117.2730 N.ar  261  HIS261     -0.2268
     57  CD2       80.1300   76.7420  116.1770 C.ar  261  HIS261      0.1154
     58  CE1       79.4950   78.5300  117.2750 C.ar  261  HIS261      0.1986
     59  NE2       79.0540   77.4740  116.6160 N.ar  261  HIS261     -0.2212
     60  N         78.9730   72.2870  113.7820 N.3   268  ARG268     -0.1245
     61  CA        77.6520   71.9640  114.3090 C.3   268  ARG268      0.1563
     62  C         76.6980   71.6860  113.1540 C.2   268  ARG268      0.2260
     63  O         76.4380   72.5710  112.3300 O.2   268  ARG268     -0.2867
     64  CB        77.1300   73.1060  115.1770 C.3   268  ARG268      0.0307
     65  CG        78.1180   73.5960  116.2220 C.3   268  ARG268      0.0489
     66  CD        77.4810   73.6500  117.6010 C.3   268  ARG268      0.2205
     67  NE        78.3430   74.3100  118.5780 N.pl3 268  ARG268     -0.0865
     68  CZ        78.1630   75.5530  119.0130 C.cat 268  ARG268      0.5346
     69  NH1       77.1450   76.2740  118.5630 N.pl3 268  ARG268      0.1354
     70  NH2       78.9970   76.0740  119.9030 N.pl3 268  ARG268      0.1354
     71  N         62.2280   67.8060  117.5830 N.3   283  ARG283     -0.1245
     72  CA        63.4030   68.6650  117.5170 C.3   283  ARG283      0.1563
     73  C         64.6560   67.8370  117.2540 C.2   283  ARG283      0.2260
     74  O         64.9890   66.9560  118.0620 O.2   283  ARG283     -0.2867
     75  CB        63.5660   69.4560  118.8120 C.3   283  ARG283      0.0307
     76  CG        64.9720   69.9970  119.0140 C.3   283  ARG283      0.0489
     77  CD        65.1520   70.6150  120.3880 C.3   283  ARG283      0.2205
     78  NE        64.7110   72.0040  120.4220 N.pl3 283  ARG283     -0.0865
     79  CZ        65.4750   73.0340  120.0750 C.cat 283  ARG283      0.5346
     80  NH1       66.7190   72.8300  119.6640 N.pl3 283  ARG283      0.1354
     81  NH2       64.9950   74.2660  120.1360 N.pl3 283  ARG283      0.1354
     82  N         71.6260   68.4710  117.6390 N.3   286  VAL286     -0.1245
     83  CA        72.7820   69.0430  116.9560 C.3   286  VAL286      0.1561
     84  C         74.0010   68.1730  117.2350 C.2   286  VAL286      0.2260
     85  O         74.3870   67.9790  118.3930 O.2   286  VAL286     -0.2867
     86  CB        73.0260   70.4920  117.3980 C.3   286  VAL286      0.0252
     87  CG1       74.2710   71.0520  116.7220 C.3   286  VAL286      0.0019
     88  CG2       71.8140   71.3520  117.0870 C.3   286  VAL286      0.0019
@<TRIPOS>BOND
     1    39    40    1
     2     1     2    1
     3     4     3    2
     4    40    41    1
     5    40    43    1
     6    42    41    2
     7    41    46   am
     8    46    47    1
     9     3     2    1
    10     3    15   am
    11     2     5    1
    12     5     6    1
    13    22    20   am
    14    48    47    1
    15    48    49    2
    16    45    43    1
    17    19    16    1
    18    19    20    1
    19    63    62    2
    20    43    44    1
    21    15    16    1
    22    16    17    1
    23    20    21    2
    24    62    61    1
    25     6     8   ar
    26     6     7   ar
    27    11     8   ar
    28    11    13   ar
    29    60    61    1
    30     8    10   ar
    31    50    51    1
    32    13    14   ar
    33     7     9   ar
    34    61    64    1
    35    17    23   am
    36    17    18    2
    37    23    24    1
    38    53    52    2
    39    52    51    1
    40    51    54    1
    41    10     9   ar
    42    10    12   ar
    43    28    27    1
    44    64    65    1
    45    14    12   ar
    46    27    24    1
    47    24    25    1
    48    57    55   ar
    49    57    59   ar
    50    65    66    1
    51    54    55    1
    52    55    56   ar
    53    59    58   ar
    54    87    86    1
    55    25    26    2
    56    83    84    1
    57    83    86    1
    58    83    82    1
    59    88    86    1
    60    84    85    2
    61    73    72    1
    62    73    74    2
    63    56    58   ar
    64    72    71    1
    65    72    75    1
    66    66    67    1
    67    38    37   ar
    68    38    36   ar
    69    37    35   ar
    70    69    68    1
    71    67    68    2
    72    36    34   ar
    73    75    76    1
    74    68    70    1
    75    76    77    1
    76    35    34   ar
    77    80    79    1
    78    34    33    1
    79    79    81    1
    80    79    78    2
    81    77    78    1
    82    29    30    1
    83    33    30    1
    84    30    31    1
    85    31    32    2
