@<TRIPOS>MOLECULE
tmp/5ogtC00.pdb
 213 207 0 0 0
SMALL
GASTEIGER

@<TRIPOS>ATOM
      1  N         46.0320    4.0890  163.3980 N.3    21  SER21      -0.1203
      2  CA        46.7940    5.2150  163.9270 C.3    21  SER21       0.2005
      3  C         45.8970    6.0920  164.8080 C.2    21  SER21       0.2461
      4  O         44.7070    6.2370  164.5150 O.2    21  SER21      -0.2732
      5  CB        47.3370    6.0470  162.7570 C.3    21  SER21       0.2103
      6  OG        48.3660    6.9530  163.1430 O.3    21  SER21      -0.2182
      7  N         46.4610    6.6880  165.8810 N.am   22  PRO22      -0.2717
      8  CA        45.6760    7.5710  166.7580 C.3    22  PRO22       0.1535
      9  C         45.0890    8.7780  166.0320 C.2    22  PRO22       0.2598
     10  O         45.8170    9.4510  165.3030 O.2    22  PRO22      -0.2715
     11  CB        46.6930    8.0110  167.8190 C.3    22  PRO22       0.0310
     12  CG        48.0390    7.7480  167.2100 C.3    22  PRO22       0.0237
     13  CD        47.8460    6.5380  166.3680 C.3    22  PRO22       0.0939
     14  N         43.7770    8.9970  166.1890 N.am   23  MET23      -0.1964
     15  CA        43.0780   10.1490  165.5990 C.3    23  MET23       0.1736
     16  C         42.0070   10.7280  166.5400 C.2    23  MET23       0.2616
     17  O         40.9140   10.1590  166.6800 O.2    23  MET23      -0.2715
     18  CB        42.4360    9.7920  164.2550 C.3    23  MET23       0.0427
     19  CG        43.4310    9.4380  163.1640 C.3    23  MET23       0.0599
     20  SD        42.6320    8.9350  161.6430 S.3    23  MET23      -0.1393
     21  CE        42.0750    7.2860  162.1090 C.3    23  MET23       0.0692
     22  N         42.3510   11.8530  167.1770 N.am   24  ASP24      -0.1957
     23  CA        41.4480   12.6630  168.0120 C.3    24  ASP24       0.1840
     24  C         40.0780   12.8590  167.3400 C.2    24  ASP24       0.2622
     25  O         39.9940   13.2130  166.1660 O.2    24  ASP24      -0.2715
     26  CB        42.1040   14.0230  168.2880 C.3    24  ASP24       0.1450
     27  CG        41.5100   14.7640  169.4920 C.2    24  ASP24       0.3671
     28  OD1       40.3090   14.6260  169.8210 O.co2  24  ASP24      -0.2456
     29  OD2       42.2680   15.5470  170.0980 O.co2  24  ASP24      -0.2456
     30  N         39.0200   12.5900  168.1020 N.am   25  GLN25      -0.1963
     31  CA        37.6260   12.7440  167.6570 C.3    25  GLN25       0.1733
     32  C         36.9260   13.9710  168.2530 C.2    25  GLN25       0.2616
     33  O         35.7830   14.2470  167.8880 O.2    25  GLN25      -0.2715
     34  CB        36.8080   11.4810  168.0150 C.3    25  GLN25       0.0408
     35  CG        37.2830   10.1900  167.3520 C.3    25  GLN25       0.0908
     36  CD        37.1460   10.2300  165.8390 C.2    25  GLN25       0.2608
     37  OE1       36.0410   10.1390  165.3040 O.2    25  GLN25      -0.2717
     38  NE2       38.2710   10.3830  165.1420 N.am   25  GLN25      -0.0878
     39  N         37.5710   14.6730  169.1910 N.am   26  TYR26      -0.1974
     40  CA        36.9840   15.8830  169.8260 C.3    26  TYR26       0.1639
     41  C         35.5020   15.6700  170.2240 C.2    26  TYR26       0.2290
     42  O         34.6450   16.5250  169.9550 O.2    26  TYR26      -0.2864
     43  CB        37.1100   17.0840  168.8770 C.3    26  TYR26       0.0560
     44  CG        38.4880   17.2440  168.2760 C.ar   26  TYR26      -0.0198
     45  CD1       39.4600   18.0030  168.9200 C.ar   26  TYR26      -0.0009
     46  CD2       38.8330   16.6050  167.0670 C.ar   26  TYR26      -0.0009
     47  CE1       40.7310   18.1390  168.3900 C.ar   26  TYR26       0.0417
     48  CE2       40.1070   16.7310  166.5290 C.ar   26  TYR26       0.0417
     49  CZ        41.0520   17.4970  167.1930 C.ar   26  TYR26       0.1957
     50  OH        42.3220   17.6340  166.6800 O.3    26  TYR26      -0.2866
     51  N         44.8850   10.4890  171.2400 N.3    57  ALA57      -0.1245
     52  CA        45.6360   11.2060  172.2760 C.3    57  ALA57       0.1562
     53  C         44.8000   11.3780  173.5430 C.2    57  ALA57       0.2260
     54  O         43.6900   11.8840  173.4770 O.2    57  ALA57      -0.2867
     55  CB        46.0700   12.5620  171.7490 C.3    57  ALA57       0.0290
     56  N         47.2980    5.9600  173.2750 N.3    99  GLN99      -0.1245
     57  CA        48.3460    6.9800  173.2360 C.3    99  GLN99       0.1566
     58  C         48.2210    7.9790  174.4130 C.2    99  GLN99       0.2260
     59  O         47.1700    8.6140  174.5760 O.2    99  GLN99      -0.2867
     60  CB        48.2730    7.7190  171.8890 C.3    99  GLN99       0.0367
     61  CG        49.3540    8.7610  171.6710 C.3    99  GLN99       0.0905
     62  CD        49.2170    9.5130  170.3510 C.2    99  GLN99       0.2608
     63  OE1       48.3030   10.3060  170.1790 O.2    99  GLN99      -0.2717
     64  NE2       50.1480    9.2910  169.4300 N.am   99  GLN99      -0.0878
     65  N         38.4940   21.6750  165.3940 N.3   112  PRO112     -0.2116
     66  CA        38.7990   22.0930  164.0050 C.3   112  PRO112      0.1372
     67  C         37.6330   22.7040  163.2120 C.2   112  PRO112      0.2244
     68  O         37.8500   23.6230  162.4180 O.2   112  PRO112     -0.2868
     69  CB        39.2350   20.7820  163.3390 C.3   112  PRO112      0.0268
     70  CG        39.7820   19.9650  164.4480 C.3   112  PRO112      0.0207
     71  CD        38.9240   20.2810  165.6360 C.3   112  PRO112      0.0892
     72  N         53.3260    9.9170  173.2230 N.3   171  HIS171     -0.1241
     73  CA        53.2430   10.9050  172.1520 C.3   171  HIS171      0.1621
     74  C         54.3150   11.9650  172.4020 C.2   171  HIS171      0.2264
     75  O         54.1150   12.9180  173.1560 O.2   171  HIS171     -0.2867
     76  CB        51.8340   11.5260  172.1180 C.3   171  HIS171      0.0745
     77  CG        51.5330   12.3230  170.8820 C.ar  171  HIS171      0.0817
     78  ND1       52.4900   12.6860  169.9550 N.ar  171  HIS171     -0.2268
     79  CD2       50.3640   12.8430  170.4310 C.ar  171  HIS171      0.1154
     80  CE1       51.9230   13.3740  168.9810 C.ar  171  HIS171      0.1986
     81  NE2       50.6310   13.4870  169.2480 N.ar  171  HIS171     -0.2212
     82  N         54.8820   15.9880  166.9390 N.3   174  HIS174     -0.1241
     83  CA        53.9140   16.9820  166.4500 C.3   174  HIS174      0.1621
     84  C         53.9110   18.3370  167.1770 C.2   174  HIS174      0.2264
     85  O         52.8990   19.0490  167.1540 O.2   174  HIS174     -0.2867
     86  CB        52.4870   16.4010  166.3940 C.3   174  HIS174      0.0745
     87  CG        52.3540   15.2110  165.4970 C.ar  174  HIS174      0.0817
     88  ND1       51.1910   14.4770  165.4090 N.ar  174  HIS174     -0.2268
     89  CD2       53.2330   14.6240  164.6500 C.ar  174  HIS174      0.1154
     90  CE1       51.3620   13.4850  164.5510 C.ar  174  HIS174      0.1986
     91  NE2       52.5950   13.5450  164.0840 N.ar  174  HIS174     -0.2212
     92  N         53.9770   19.0580  170.3810 N.3   176  TYR176     -0.1241
     93  CA        53.4250   19.0890  171.7360 C.3   176  TYR176      0.1605
     94  C         54.6090   19.0290  172.7190 C.2   176  TYR176      0.2264
     95  O         55.7580   19.2930  172.3130 O.2   176  TYR176     -0.2867
     96  CB        52.3740   17.9830  171.8980 C.3   176  TYR176      0.0534
     97  CG        51.2310   18.0940  170.8840 C.ar  176  TYR176     -0.0201
     98  CD1       50.3880   19.2050  170.8660 C.ar  176  TYR176     -0.0009
     99  CD2       50.9880   17.0780  169.9460 C.ar  176  TYR176     -0.0009
    100  CE1       49.3470   19.3130  169.9480 C.ar  176  TYR176      0.0417
    101  CE2       49.9380   17.1730  169.0340 C.ar  176  TYR176      0.0417
    102  CZ        49.1300   18.2910  169.0280 C.ar  176  TYR176      0.1957
    103  OH        48.0990   18.3980  168.1200 O.3   176  TYR176     -0.2866
    104  N         56.0830    7.5760  169.7150 N.3   224  ARG224     -0.1245
    105  CA        55.9150    8.3190  168.4700 C.3   224  ARG224      0.1563
    106  C         56.7920    9.5790  168.5210 C.2   224  ARG224      0.2260
    107  O         56.8100   10.2780  169.5310 O.2   224  ARG224     -0.2867
    108  CB        54.4430    8.6970  168.2560 C.3   224  ARG224      0.0307
    109  CG        54.2140    9.6090  167.0660 C.3   224  ARG224      0.0489
    110  CD        52.7550    9.7630  166.6570 C.3   224  ARG224      0.2205
    111  NE        52.2820    8.6150  165.8880 N.pl3 224  ARG224     -0.0865
    112  CZ        51.2330    8.5980  165.0650 C.cat 224  ARG224      0.5346
    113  NH1       50.4870    9.6820  164.8540 N.pl3 224  ARG224      0.1354
    114  NH2       50.9380    7.4700  164.4230 N.pl3 224  ARG224      0.1354
    115  N         56.7220    9.5960  162.6290 N.3   258  SER258     -0.1217
    116  CA        55.9470   10.6840  162.0210 C.3   258  SER258      0.1889
    117  C         56.8910   11.8520  161.7030 C.2   258  SER258      0.2288
    118  O         58.1060   11.6480  161.6550 O.2   258  SER258     -0.2866
    119  CB        54.8180   11.0870  162.9680 C.3   258  SER258      0.2089
    120  OG        53.8220   11.8220  162.2770 O.3   258  SER258     -0.2183
    121  N         55.7890    9.3100  152.0790 N.3   274  PHE274     -0.1227
    122  CA        56.8750   10.3090  152.3190 C.3   274  PHE274      0.1736
    123  C         57.5740   10.2460  153.6980 C.2   274  PHE274      0.2595
    124  O         58.6340   10.8470  153.8650 O.2   274  PHE274     -0.2718
    125  CB        56.3940   11.7470  152.0450 C.3   274  PHE274      0.0547
    126  CG        55.6610   12.3960  153.2070 C.ar  274  PHE274     -0.0202
    127  CD1       54.3460   12.0400  153.5170 C.ar  274  PHE274     -0.0042
    128  CD2       56.2770   13.3840  153.9750 C.ar  274  PHE274     -0.0042
    129  CE1       53.6700   12.6400  154.5740 C.ar  274  PHE274     -0.0003
    130  CE2       55.6080   13.9810  155.0290 C.ar  274  PHE274     -0.0003
    131  CZ        54.3030   13.6110  155.3320 C.ar  274  PHE274     -0.0000
    132  N         56.9830    9.5530  154.6730 N.am  275  GLN275     -0.1979
    133  CA        57.6020    9.3440  155.9810 C.3   275  GLN275      0.1601
    134  C         58.2390    7.9650  156.1550 C.2   275  GLN275      0.2287
    135  O         58.9490    7.7460  157.1340 O.2   275  GLN275     -0.2864
    136  CB        56.5780    9.5950  157.1010 C.3   275  GLN275      0.0394
    137  CG        56.1650   11.0590  157.1770 C.3   275  GLN275      0.0908
    138  CD        55.0550   11.4010  158.1540 C.2   275  GLN275      0.2608
    139  OE1       54.9980   12.5470  158.6160 O.2   275  GLN275     -0.2717
    140  NE2       54.1400   10.4640  158.4360 N.am  275  GLN275     -0.0878
    141  N         53.8660    5.2270  158.7280 N.3   293  VAL293     -0.1231
    142  CA        52.6120    5.9810  158.6590 C.3   293  VAL293      0.1692
    143  C         52.8090    7.1440  157.6960 C.2   293  VAL293      0.2593
    144  O         53.9140    7.6890  157.6140 O.2   293  VAL293     -0.2718
    145  CB        52.1830    6.5190  160.0700 C.3   293  VAL293      0.0266
    146  CG1       53.0160    7.7330  160.5140 C.3   293  VAL293      0.0020
    147  CG2       50.7020    6.8520  160.1120 C.3   293  VAL293      0.0020
    148  N         51.7430    7.5160  156.9850 N.am  294  GLY294     -0.1942
    149  CA        51.7100    8.7530  156.1810 C.3   294  GLY294      0.2014
    150  C         51.3480    8.4980  154.7260 C.2   294  GLY294      0.2639
    151  O         52.2060    8.1590  153.9020 O.2   294  GLY294     -0.2714
    152  N         50.0640    8.6800  154.4260 N.am  295  LEU295     -0.1963
    153  CA        49.4940    8.4930  153.0910 C.3   295  LEU295      0.1728
    154  C         49.7210    7.0750  152.5430 C.2   295  LEU295      0.2616
    155  O         50.1780    6.8810  151.4090 O.2   295  LEU295     -0.2715
    156  CB        49.9850    9.5830  152.1200 C.3   295  LEU295      0.0311
    157  CG        49.4380   11.0050  152.3500 C.3   295  LEU295      0.0022
    158  CD1       50.2930   12.0490  151.6350 C.3   295  LEU295      0.0001
    159  CD2       47.9860   11.1230  151.9010 C.3   295  LEU295      0.0001
    160  N         49.3820    6.0920  153.3720 N.am  296  ILE296     -0.1977
    161  CA        49.3570    4.6830  152.9680 C.3   296  ILE296      0.1596
    162  C         47.8920    4.3420  152.7770 C.2   296  ILE296      0.2287
    163  O         47.1110    4.4520  153.7090 O.2   296  ILE296     -0.2864
    164  CB        50.0400    3.7610  154.0030 C.3   296  ILE296      0.0276
    165  CG1       51.5300    4.1500  154.1610 C.3   296  ILE296      0.0022
    166  CG2       49.9280    2.2910  153.5890 C.3   296  ILE296      0.0022
    167  CD1       52.1840    3.6430  155.4370 C.3   296  ILE296      0.0001
    168  N         50.7820    1.5940  159.9040 N.3   315  LEU315     -0.1231
    169  CA        49.7030    2.3180  160.5690 C.3   315  LEU315      0.1693
    170  C         48.8370    3.1120  159.5850 C.2   315  LEU315      0.2592
    171  O         49.3570    3.7710  158.6840 O.2   315  LEU315     -0.2718
    172  CB        50.2730    3.2220  161.6620 C.3   315  LEU315      0.0284
    173  CG        50.8840    2.4300  162.8420 C.3   315  LEU315      0.0019
    174  CD1       52.4060    2.4340  162.8240 C.3   315  LEU315      0.0001
    175  CD2       50.3620    2.9640  164.1710 C.3   315  LEU315      0.0001
    176  N         47.5170    3.0200  159.7770 N.am  316  LEU316     -0.1966
    177  CA        46.5050    3.5870  158.8810 C.3   316  LEU316      0.1728
    178  C         45.6020    4.5940  159.6180 C.2   316  LEU316      0.2617
    179  O         44.9960    4.2600  160.6360 O.2   316  LEU316     -0.2715
    180  CB        45.6120    2.4720  158.3260 C.3   316  LEU316      0.0311
    181  CG        46.2110    1.3010  157.5420 C.3   316  LEU316      0.0022
    182  CD1       45.0800    0.3810  157.1010 C.3   316  LEU316      0.0001
    183  CD2       47.0040    1.7860  156.3380 C.3   316  LEU316      0.0001
    184  N         45.5120    5.8110  159.0860 N.am  317  GLY317     -0.1940
    185  CA        44.6620    6.8590  159.6340 C.3   317  GLY317      0.2014
    186  C         43.4610    7.1570  158.7520 C.2   317  GLY317      0.2639
    187  O         42.3990    6.5370  158.9050 O.2   317  GLY317     -0.2714
    188  N         43.6380    8.1020  157.8250 N.am  318  ARG318     -0.1963
    189  CA        42.5110    8.7250  157.1030 C.3   318  ARG318      0.1729
    190  C         41.6790    7.7530  156.2370 C.2   318  ARG318      0.2616
    191  O         40.4630    7.9440  156.0940 O.2   318  ARG318     -0.2715
    192  CB        42.9900    9.9270  156.2620 C.3   318  ARG318      0.0348
    193  CG        43.0680   11.2190  157.0720 C.3   318  ARG318      0.0492
    194  CD        43.8050   12.3490  156.3710 C.3   318  ARG318      0.2205
    195  NE        45.2130   12.0260  156.2000 N.pl3 318  ARG318     -0.0865
    196  CZ        46.1010   12.7490  155.5170 C.cat 318  ARG318      0.5346
    197  NH1       45.7570   13.8940  154.9170 N.pl3 318  ARG318      0.1354
    198  NH2       47.3540   12.3230  155.4350 N.pl3 318  ARG318      0.1354
    199  N         42.3290    6.7240  155.6800 N.am  319  VAL319     -0.1977
    200  CA        41.6480    5.6940  154.8890 C.3   319  VAL319      0.1596
    201  C         40.5780    4.9300  155.7190 C.2   319  VAL319      0.2287
    202  O         39.5040    4.5990  155.1990 O.2   319  VAL319     -0.2864
    203  CB        42.6680    4.7470  154.1860 C.3   319  VAL319      0.0276
    204  CG1       43.3560    3.8050  155.1710 C.3   319  VAL319      0.0022
    205  CG2       41.9960    3.9610  153.0670 C.3   319  VAL319      0.0022
    206  N         38.9290    6.3460  158.2620 N.3   321  LEU321     -0.1245
    207  CA        37.8110    7.2640  158.4860 C.3   321  LEU321      0.1561
    208  C         36.7680    7.1720  157.3690 C.2   321  LEU321      0.2260
    209  O         35.5730    7.3100  157.6340 O.2   321  LEU321     -0.2867
    210  CB        38.2810    8.7140  158.6420 C.3   321  LEU321      0.0270
    211  CG        39.3700    9.0200  159.6750 C.3   321  LEU321      0.0019
    212  CD1       39.6560   10.5090  159.7040 C.3   321  LEU321      0.0001
    213  CD2       38.9720    8.5200  161.0600 C.3   321  LEU321      0.0001
@<TRIPOS>BOND
     1   155   154    2
     2   158   157    1
     3   159   157    1
     4   125   122    1
     5   125   126    1
     6   121   122    1
     7   156   157    1
     8   156   153    1
     9   122   123    1
    10   154   153    1
    11   154   160   am
    12   162   161    1
    13   162   163    2
    14   161   160    1
    15   161   164    1
    16   205   203    1
    17   153   152    1
    18   126   127   ar
    19   126   128   ar
    20   127   129   ar
    21   166   164    1
    22   123   124    2
    23   123   132   am
    24   151   150    2
    25   128   130   ar
    26   164   165    1
    27   165   167    1
    28   203   200    1
    29   203   204    1
    30   152   150   am
    31   129   131   ar
    32   132   133    1
    33   150   149    1
    34   200   199    1
    35   200   201    1
    36   197   196    1
    37   130   131   ar
    38   202   201    2
    39   198   196    1
    40   196   195    2
    41   199   190   am
    42   133   134    1
    43   133   136    1
    44   191   190    2
    45   134   135    2
    46   149   148    1
    47   195   194    1
    48   190   189    1
    49   192   193    1
    50   192   189    1
    51   183   181    1
    52   194   193    1
    53   148   143   am
    54   136   137    1
    55   182   181    1
    56   189   188    1
    57   137   138    1
    58   208   209    2
    59   208   207    1
    60   181   180    1
    61   144   143    2
    62   143   142    1
    63   188   186   am
    64   138   140   am
    65   138   139    2
    66   206   207    1
    67   180   177    1
    68   207   210    1
    69   210   211    1
    70   142   141    1
    71   142   145    1
    72   171   170    2
    73   186   187    2
    74   186   185    1
    75   177   178    1
    76   177   176    1
    77   184   178   am
    78   184   185    1
    79   170   176   am
    80   170   169    1
    81   178   179    2
    82   211   212    1
    83   211   213    1
    84   168   169    1
    85   145   147    1
    86   145   146    1
    87   169   172    1
    88    20    21    1
    89    20    19    1
    90   118   117    2
    91   172   173    1
    92   117   116    1
    93   116   115    1
    94   116   119    1
    95   120   119    1
    96    68    67    2
    97     5     6    1
    98     5     2    1
    99   174   173    1
   100   173   175    1
   101    19    18    1
   102    67    66    1
   103    69    66    1
   104    69    70    1
   105     1     2    1
   106     2     3    1
   107    66    65    1
   108    91    90   ar
   109    91    89   ar
   110    18    15    1
   111   114   112    1
   112    70    71    1
   113     4     3    2
   114    90    88   ar
   115    89    87   ar
   116     3     7   am
   117   113   112    1
   118   112   111    2
   119    38    36   am
   120    10     9    2
   121    37    36    2
   122    65    71    1
   123    88    87   ar
   124    87    86    1
   125    15    14    1
   126    15    16    1
   127    36    35    1
   128     7    13    1
   129     7     8    1
   130   111   110    1
   131     9    14   am
   132     9     8    1
   133    25    24    2
   134    13    12    1
   135    86    83    1
   136    83    82    1
   137    83    84    1
   138    48    46   ar
   139    48    49   ar
   140    16    17    2
   141    16    22   am
   142   110   109    1
   143    50    49    1
   144     8    11    1
   145   109   108    1
   146    46    44   ar
   147    85    84    2
   148    22    23    1
   149    49    47   ar
   150    12    11    1
   151    24    23    1
   152    24    30   am
   153    35    34    1
   154    31    34    1
   155    31    30    1
   156    31    32    1
   157    33    32    2
   158    23    26    1
   159   103   102    1
   160    32    39   am
   161   108   105    1
   162    44    43    1
   163    44    45   ar
   164    26    27    1
   165    47    45   ar
   166   105   106    1
   167   105   104    1
   168   106   107    2
   169    43    40    1
   170    80    81   ar
   171    80    78   ar
   172   102   101   ar
   173   102   100   ar
   174   101    99   ar
   175    39    40    1
   176    81    79   ar
   177    64    62   am
   178    27    28   ar
   179    27    29   ar
   180    40    41    1
   181    99    97   ar
   182   100    98   ar
   183    78    77   ar
   184    42    41    2
   185    63    62    2
   186    62    61    1
   187    92    93    1
   188    79    77   ar
   189    98    97   ar
   190    77    76    1
   191    97    96    1
   192    51    52    1
   193    61    60    1
   194    93    96    1
   195    93    94    1
   196    55    52    1
   197    60    57    1
   198    76    73    1
   199    73    74    1
   200    73    72    1
   201    52    53    1
   202    95    94    2
   203    74    75    2
   204    57    56    1
   205    57    58    1
   206    54    53    2
   207    58    59    2
