@<TRIPOS>MOLECULE
tmp/5oh1C00.pdb
 117 122 0 0 0
SMALL
GASTEIGER

@<TRIPOS>ATOM
      1  N         17.4150  -11.7270   -0.0770 N.3    26  PHE26      -0.1227
      2  CA        17.4960  -11.9530    1.3680 C.3    26  PHE26       0.1736
      3  C         18.6430  -12.9060    1.6920 C.2    26  PHE26       0.2595
      4  O         18.7670  -13.9550    1.0710 O.2    26  PHE26      -0.2718
      5  CB        16.1880  -12.5590    1.8860 C.3    26  PHE26       0.0547
      6  CG        14.9850  -11.6800    1.6840 C.ar   26  PHE26      -0.0202
      7  CD1       14.3500  -11.6190    0.4510 C.ar   26  PHE26      -0.0042
      8  CD2       14.4790  -10.9210    2.7320 C.ar   26  PHE26      -0.0042
      9  CE1       13.2420  -10.8110    0.2610 C.ar   26  PHE26      -0.0003
     10  CE2       13.3650  -10.1180    2.5510 C.ar   26  PHE26      -0.0003
     11  CZ        12.7480  -10.0590    1.3120 C.ar   26  PHE26      -0.0000
     12  N         19.4810  -12.5500    2.6630 N.am   27  ASN27      -0.1961
     13  CA        20.5590  -13.4430    3.0860 C.3    27  ASN27       0.1804
     14  C         19.9560  -14.5860    3.9200 C.2    27  ASN27       0.2463
     15  O         18.7540  -14.5690    4.2040 O.2    27  ASN27      -0.2730
     16  CB        21.6890  -12.6690    3.8020 C.3    27  ASN27       0.1195
     17  CG        21.3490  -12.2660    5.2300 C.2    27  ASN27       0.2630
     18  OD1       20.2810  -12.5680    5.7450 O.2    27  ASN27      -0.2716
     19  ND2       22.2810  -11.5640    5.8730 N.am   27  ASN27      -0.0877
     20  N         20.7670  -15.5960    4.2850 N.am   28  PRO28      -0.2727
     21  CA        20.2080  -16.7320    5.0190 C.3    28  PRO28       0.1402
     22  C         19.5220  -16.3550    6.3400 C.2    28  PRO28       0.2269
     23  O         18.6070  -17.0570    6.7750 O.2    28  PRO28      -0.2865
     24  CB        21.4330  -17.6170    5.2680 C.3    28  PRO28       0.0296
     25  CG        22.3570  -17.2940    4.1460 C.3    28  PRO28       0.0237
     26  CD        22.1880  -15.8160    3.9420 C.3    28  PRO28       0.0939
     27  N         18.9250   -7.3830    1.1400 N.3    33  PHE33      -0.1241
     28  CA        19.9650   -6.7450    0.3420 C.3    33  PHE33       0.1605
     29  C         19.3830   -6.3100   -1.0010 C.2    33  PHE33       0.2264
     30  O         18.5470   -7.0060   -1.5820 O.2    33  PHE33      -0.2867
     31  CB        21.1270   -7.7080    0.0890 C.3    33  PHE33       0.0534
     32  CG        22.0270   -7.9010    1.2750 C.ar   33  PHE33      -0.0203
     33  CD1       21.6430   -8.7210    2.3260 C.ar   33  PHE33      -0.0042
     34  CD2       23.2620   -7.2660    1.3390 C.ar   33  PHE33      -0.0042
     35  CE1       22.4710   -8.9000    3.4230 C.ar   33  PHE33      -0.0003
     36  CE2       24.0950   -7.4430    2.4300 C.ar   33  PHE33      -0.0003
     37  CZ        23.6990   -8.2610    3.4740 C.ar   33  PHE33      -0.0000
     38  N         26.8990  -21.9710   -2.1740 N.3    53  GLU53      -0.1231
     39  CA        26.0190  -21.9500   -1.0000 C.3    53  GLU53       0.1699
     40  C         25.0640  -20.7460   -1.0000 C.2    53  GLU53       0.2592
     41  O         25.5010  -19.5890   -1.0860 O.2    53  GLU53      -0.2718
     42  CB        26.8600  -21.9450    0.2810 C.3    53  GLU53       0.0402
     43  CG        26.0850  -22.2700    1.5500 C.3    53  GLU53       0.1161
     44  CD        26.9360  -22.1560    2.8050 C.2    53  GLU53       0.3649
     45  OE1       28.0690  -21.6310    2.7350 O.co2  53  GLU53      -0.2457
     46  OE2       26.4680  -22.5840    3.8750 O.co2  53  GLU53      -0.2457
     47  N         23.7620  -21.0310   -0.9060 N.am   54  PHE54      -0.1962
     48  CA        22.7190  -19.9920   -0.8680 C.3    54  PHE54       0.1771
     49  C         22.8110  -18.9560   -2.0030 C.2    54  PHE54       0.2620
     50  O         22.4050  -17.8050   -1.8290 O.2    54  PHE54      -0.2715
     51  CB        22.7260  -19.2760    0.5010 C.3    54  PHE54       0.0574
     52  CG        21.5540  -19.6230    1.3760 C.ar   54  PHE54      -0.0200
     53  CD1       20.2950  -19.0950    1.1090 C.ar   54  PHE54      -0.0042
     54  CD2       21.7070  -20.4610    2.4760 C.ar   54  PHE54      -0.0042
     55  CE1       19.2100  -19.4020    1.9130 C.ar   54  PHE54      -0.0003
     56  CE2       20.6240  -20.7720    3.2850 C.ar   54  PHE54      -0.0003
     57  CZ        19.3740  -20.2410    3.0030 C.ar   54  PHE54      -0.0000
     58  N         23.3220  -19.3570   -3.1640 N.am   55  SER55      -0.1936
     59  CA        23.4760  -18.4130   -4.2720 C.3    55  SER55       0.2055
     60  C         22.1120  -17.8430   -4.6610 C.2    55  SER55       0.2643
     61  O         21.1540  -18.5890   -4.8320 O.2    55  SER55      -0.2714
     62  CB        24.1240  -19.0780   -5.4890 C.3    55  SER55       0.2130
     63  OG        24.4030  -18.1060   -6.4870 O.3    55  SER55      -0.2179
     64  N         22.0360  -16.5190   -4.7870 N.am   56  TRP56      -0.1973
     65  CA        20.7880  -15.8420   -5.1500 C.3    56  TRP56       0.1640
     66  C         20.4150  -16.0240   -6.6120 C.2    56  TRP56       0.2290
     67  O         19.2660  -15.7870   -6.9890 O.2    56  TRP56      -0.2864
     68  CB        20.8870  -14.3420   -4.8780 C.3    56  TRP56       0.0576
     69  CG        20.8760  -13.9780   -3.4390 C.ar   56  TRP56       0.0006
     70  CD1       20.0630  -14.4920   -2.4690 C.ar   56  TRP56       0.0946
     71  CD2       21.6910  -12.9920   -2.8020 C.ar   56  TRP56       0.0152
     72  NE1       20.3330  -13.8940   -1.2630 N.ar   56  TRP56      -0.2442
     73  CE2       21.3260  -12.9670   -1.4380 C.ar   56  TRP56       0.0810
     74  CE3       22.7020  -12.1310   -3.2470 C.ar   56  TRP56       0.0012
     75  CZ2       21.9370  -12.1180   -0.5150 C.ar   56  TRP56       0.0191
     76  CZ3       23.3020  -11.2760   -2.3270 C.ar   56  TRP56       0.0001
     77  CH2       22.9140  -11.2770   -0.9770 C.ar   56  TRP56       0.0015
     78  N         29.4770  -18.0410   -6.3160 N.3    62  TRP62      -0.1241
     79  CA        29.9440  -16.6980   -5.9680 C.3    62  TRP62       0.1605
     80  C         31.3360  -16.6890   -5.3490 C.2    62  TRP62       0.2264
     81  O         31.7650  -17.6680   -4.7310 O.2    62  TRP62      -0.2867
     82  CB        28.9750  -15.9970   -5.0160 C.3    62  TRP62       0.0550
     83  CG        28.6360  -16.7760   -3.7860 C.ar   62  TRP62       0.0003
     84  CD1       27.5400  -17.5600   -3.6010 C.ar   62  TRP62       0.0946
     85  CD2       29.3830  -16.8340   -2.5620 C.ar   62  TRP62       0.0152
     86  NE1       27.5560  -18.1100   -2.3460 N.ar   62  TRP62      -0.2442
     87  CE2       28.6780  -17.6890   -1.6870 C.ar   62  TRP62       0.0810
     88  CE3       30.5820  -16.2610   -2.1260 C.ar   62  TRP62       0.0012
     89  CZ2       29.1270  -17.9760   -0.3950 C.ar   62  TRP62       0.0191
     90  CZ3       31.0310  -16.5460   -0.8400 C.ar   62  TRP62       0.0001
     91  CH2       30.3020  -17.3940    0.0100 C.ar   62  TRP62       0.0015
     92  N         29.8650   -9.5610   -4.8120 N.3    76  TRP76      -0.1241
     93  CA        30.3450  -10.8720   -5.2560 C.3    76  TRP76       0.1605
     94  C         30.5140  -10.9320   -6.7600 C.2    76  TRP76       0.2264
     95  O         29.8230  -10.2260   -7.5050 O.2    76  TRP76      -0.2867
     96  CB        29.3730  -11.9690   -4.8210 C.3    76  TRP76       0.0550
     97  CG        29.1250  -11.9590   -3.3610 C.ar   76  TRP76       0.0003
     98  CD1       29.7980  -12.6670   -2.4140 C.ar   76  TRP76       0.0946
     99  CD2       28.1580  -11.1650   -2.6640 C.ar   76  TRP76       0.0152
    100  NE1       29.3030  -12.3720   -1.1620 N.ar   76  TRP76      -0.2442
    101  CE2       28.2950  -11.4520   -1.2900 C.ar   76  TRP76       0.0810
    102  CE3       27.1870  -10.2400   -3.0680 C.ar   76  TRP76       0.0012
    103  CZ2       27.4910  -10.8530   -0.3190 C.ar   76  TRP76       0.0191
    104  CZ3       26.3970   -9.6400   -2.0980 C.ar   76  TRP76       0.0001
    105  CH2       26.5480   -9.9540   -0.7460 C.ar   76  TRP76       0.0015
    106  N         30.0200  -13.6120   -9.7540 N.3    78  TYR78      -0.1241
    107  CA        29.3080  -14.8600  -10.0430 C.3    78  TYR78       0.1605
    108  C         29.8350  -15.5240  -11.3080 C.2    78  TYR78       0.2264
    109  O         30.1750  -14.8440  -12.2780 O.2    78  TYR78      -0.2867
    110  CB        27.8090  -14.5990  -10.1880 C.3    78  TYR78       0.0534
    111  CG        27.1490  -14.1980   -8.8940 C.ar   78  TYR78      -0.0201
    112  CD1       26.6350  -15.1580   -8.0250 C.ar   78  TYR78      -0.0009
    113  CD2       27.0490  -12.8610   -8.5290 C.ar   78  TYR78      -0.0009
    114  CE1       26.0360  -14.7950   -6.8350 C.ar   78  TYR78       0.0417
    115  CE2       26.4530  -12.4890   -7.3400 C.ar   78  TYR78       0.0417
    116  CZ        25.9510  -13.4550   -6.4920 C.ar   78  TYR78       0.1957
    117  OH        25.3560  -13.0760   -5.3060 O.3    78  TYR78      -0.2866
@<TRIPOS>BOND
     1   109   108    2
     2   108   107    1
     3   110   107    1
     4   110   111    1
     5   107   106    1
     6   111   113   ar
     7   111   112   ar
     8   113   115   ar
     9   112   114   ar
    10    95    94    2
    11   115   116   ar
    12    67    66    2
    13   114   116   ar
    14    94    93    1
    15    66    65    1
    16   116   117    1
    17    63    62    1
    18    78    79    1
    19    79    80    1
    20    79    82    1
    21    62    59    1
    22    80    81    2
    23    93    96    1
    24    93    92    1
    25    65    68    1
    26    65    64    1
    27    82    83    1
    28    68    69    1
    29    61    60    2
    30    96    97    1
    31    64    60   am
    32    60    59    1
    33    59    58    1
    34    83    84   ar
    35    83    85   ar
    36    84    86   ar
    37    69    71   ar
    38    69    70   ar
    39    97    99   ar
    40    97    98   ar
    41    74    71   ar
    42    74    76   ar
    43    58    49   am
    44   102    99   ar
    45   102   104   ar
    46    71    73   ar
    47    99   101   ar
    48    85    88   ar
    49    85    87   ar
    50    70    72   ar
    51    98   100   ar
    52    86    87   ar
    53    76    77   ar
    54    38    39    1
    55    88    90   ar
    56   104   105   ar
    57    49    50    2
    58    49    48    1
    59    87    89   ar
    60    30    29    2
    61    73    72   ar
    62    73    75   ar
    63   101   100   ar
    64   101   103   ar
    65    41    40    2
    66    29    28    1
    67    39    40    1
    68    39    42    1
    69    40    47   am
    70    77    75   ar
    71    47    48    1
    72    48    51    1
    73    90    91   ar
    74   105   103   ar
    75    89    91   ar
    76     1     2    1
    77    31    28    1
    78    31    32    1
    79     9     7   ar
    80     9    11   ar
    81    42    43    1
    82    28    27    1
    83     7     6   ar
    84    51    52    1
    85     4     3    2
    86    53    52   ar
    87    53    55   ar
    88    32    34   ar
    89    32    33   ar
    90    11    10   ar
    91    34    36   ar
    92     2     3    1
    93     2     5    1
    94    52    54   ar
    95    43    44    1
    96     6     5    1
    97     6     8   ar
    98     3    12   am
    99    55    57   ar
   100    33    35   ar
   101    36    37   ar
   102    54    56   ar
   103    10     8   ar
   104    12    13    1
   105    45    44   ar
   106    44    46   ar
   107    57    56   ar
   108    13    16    1
   109    13    14    1
   110    35    37   ar
   111    16    17    1
   112    14    15    2
   113    14    20   am
   114    26    25    1
   115    26    20    1
   116    25    24    1
   117    20    21    1
   118    21    24    1
   119    21    22    1
   120    17    18    2
   121    17    19   am
   122    22    23    2
