@<TRIPOS>MOLECULE
tmp/5oh3A00.pdb
 106 111 0 0 0
SMALL
GASTEIGER

@<TRIPOS>ATOM
      1  N         28.2530   10.8130   -5.1990 N.3    31  PHE31      -0.1227
      2  CA        29.3820   11.6340   -5.5780 C.3    31  PHE31       0.1736
      3  C         28.9740   12.7050   -6.5560 C.2    31  PHE31       0.2595
      4  O         28.1690   12.4580   -7.4530 O.2    31  PHE31      -0.2718
      5  CB        30.4450   10.7900   -6.2890 C.3    31  PHE31       0.0547
      6  CG        31.1610    9.8180   -5.4070 C.ar   31  PHE31      -0.0202
      7  CD1       32.2880   10.2100   -4.6960 C.ar   31  PHE31      -0.0042
      8  CD2       30.7470    8.4950   -5.3270 C.ar   31  PHE31      -0.0042
      9  CE1       32.9710    9.3170   -3.8840 C.ar   31  PHE31      -0.0003
     10  CE2       31.4280    7.5920   -4.5180 C.ar   31  PHE31      -0.0003
     11  CZ        32.5470    8.0020   -3.7980 C.ar   31  PHE31      -0.0000
     12  N         29.6130   13.8610   -6.4450 N.am   32  ASN32      -0.1961
     13  CA        29.4460   14.9270   -7.4210 C.3    32  ASN32       0.1804
     14  C         30.5570   14.8770   -8.4750 C.2    32  ASN32       0.2463
     15  O         31.4420   14.0380   -8.3820 O.2    32  ASN32      -0.2730
     16  CB        29.3500   16.2950   -6.7210 C.3    32  ASN32       0.1195
     17  CG        30.6540   16.7530   -6.0880 C.2    32  ASN32       0.2630
     18  OD1       31.7410   16.1770   -6.2950 O.2    32  ASN32      -0.2716
     19  ND2       30.5590   17.8270   -5.3460 N.am   32  ASN32      -0.0877
     20  N         30.4800   15.7270   -9.5180 N.am   33  PRO33      -0.2727
     21  CA        31.5190   15.6640  -10.5620 C.3    33  PRO33       0.1402
     22  C         32.9310   16.0580  -10.0990 C.2    33  PRO33       0.2269
     23  O         33.8860   15.7710  -10.7920 O.2    33  PRO33      -0.2865
     24  CB        31.0010   16.6290  -11.6390 C.3    33  PRO33       0.0296
     25  CG        29.5170   16.6890  -11.4220 C.3    33  PRO33       0.0237
     26  CD        29.3280   16.5480   -9.9430 C.3    33  PRO33       0.0939
     27  N         20.8930   18.9560  -14.3550 N.3    58  GLU58      -0.1231
     28  CA        22.2390   18.4340  -14.6610 C.3    58  GLU58       0.1699
     29  C         22.8460   17.6300  -13.5140 C.2    58  GLU58       0.2592
     30  O         22.9050   18.1040  -12.3850 O.2    58  GLU58      -0.2718
     31  CB        23.1660   19.5820  -15.0320 C.3    58  GLU58       0.0402
     32  CG        22.8730   20.1450  -16.4060 C.3    58  GLU58       0.1161
     33  CD        23.4740   21.5140  -16.6540 C.2    58  GLU58       0.3649
     34  OE1       24.1640   22.0650  -15.7720 O.co2  58  GLU58      -0.2457
     35  OE2       23.2600   22.0350  -17.7690 O.co2  58  GLU58      -0.2457
     36  N         23.2650   16.4020  -13.8180 N.am   59  PHE59      -0.1962
     37  CA        23.9080   15.4910  -12.8680 C.3    59  PHE59       0.1771
     38  C         23.0160   15.0670  -11.6860 C.2    59  PHE59       0.2620
     39  O         23.5420   14.6020  -10.6550 O.2    59  PHE59      -0.2715
     40  CB        25.1990   16.1070  -12.2890 C.3    59  PHE59       0.0574
     41  CG        26.2200   16.5270  -13.3200 C.ar   59  PHE59      -0.0200
     42  CD1       26.8730   15.5800  -14.0930 C.ar   59  PHE59      -0.0042
     43  CD2       26.5730   17.8610  -13.4650 C.ar   59  PHE59      -0.0042
     44  CE1       27.8300   15.9520  -15.0280 C.ar   59  PHE59      -0.0003
     45  CE2       27.5290   18.2430  -14.3930 C.ar   59  PHE59      -0.0003
     46  CZ        28.1640   17.2880  -15.1720 C.ar   59  PHE59      -0.0000
     47  N         21.6990   15.2280  -11.7960 N.am   60  SER60      -0.1936
     48  CA        20.8150   14.9350  -10.6620 C.3    60  SER60       0.2055
     49  C         20.9670   13.5030  -10.2130 C.2    60  SER60       0.2643
     50  O         20.9270   12.5900  -11.0320 O.2    60  SER60      -0.2714
     51  CB        19.3360   15.1790  -10.9770 C.3    60  SER60       0.2130
     52  OG        18.5600   14.9870   -9.7790 O.3    60  SER60      -0.2179
     53  N         21.1210   13.3180   -8.9080 N.am   61  TRP61      -0.1973
     54  CA        21.2130   11.9930   -8.3210 C.3    61  TRP61       0.1640
     55  C         19.8890   11.2840   -8.2660 C.2    61  TRP61       0.2290
     56  O         19.8560   10.1000   -8.0120 O.2    61  TRP61      -0.2864
     57  CB        21.7690   12.0740   -6.9000 C.3    61  TRP61       0.0576
     58  CG        23.1930   12.4980   -6.8420 C.ar   61  TRP61       0.0006
     59  CD1       24.2280   12.0300   -7.5990 C.ar   61  TRP61       0.0946
     60  CD2       23.7500   13.4740   -5.9610 C.ar   61  TRP61       0.0152
     61  NE1       25.4010   12.6690   -7.2530 N.ar   61  TRP61      -0.2442
     62  CE2       25.1330   13.5540   -6.2440 C.ar   61  TRP61       0.0810
     63  CE3       23.2110   14.2970   -4.9600 C.ar   61  TRP61       0.0012
     64  CZ2       25.9750   14.4170   -5.5660 C.ar   61  TRP61       0.0191
     65  CZ3       24.0410   15.1490   -4.2930 C.ar   61  TRP61       0.0001
     66  CH2       25.4180   15.2060   -4.5950 C.ar   61  TRP61       0.0015
     67  N         17.4870   20.0940   -9.1330 N.3    67  TRP67      -0.1241
     68  CA        18.0320   20.4840   -7.8470 C.3    67  TRP67       0.1605
     69  C         18.3040   21.9620   -7.7970 C.2    67  TRP67       0.2264
     70  O         18.5820   22.5990   -8.8280 O.2    67  TRP67      -0.2867
     71  CB        19.3200   19.6940   -7.5100 C.3    67  TRP67       0.0550
     72  CG        20.3830   19.7580   -8.5470 C.ar   67  TRP67       0.0003
     73  CD1       20.5860   18.8700   -9.5370 C.ar   67  TRP67       0.0946
     74  CD2       21.3740   20.7870   -8.7150 C.ar   67  TRP67       0.0152
     75  NE1       21.6310   19.2820  -10.3390 N.ar   67  TRP67      -0.2442
     76  CE2       22.1350   20.4520   -9.8480 C.ar   67  TRP67       0.0810
     77  CE3       21.6890   21.9590   -8.0170 C.ar   67  TRP67       0.0012
     78  CZ2       23.1980   21.2350  -10.3070 C.ar   67  TRP67       0.0191
     79  CZ3       22.7520   22.7370   -8.4740 C.ar   67  TRP67       0.0001
     80  CH2       23.4970   22.3630   -9.6090 C.ar   67  TRP67       0.0015
     81  N         20.5840   20.0770   -0.9090 N.3    81  TRP81      -0.1241
     82  CA        19.8450   20.4830   -2.1070 C.3    81  TRP81       0.1605
     83  C         18.3500   20.2960   -1.8780 C.2    81  TRP81       0.2264
     84  O         17.9250   19.3960   -1.1410 O.2    81  TRP81      -0.2867
     85  CB        20.3120   19.6360   -3.3060 C.3    81  TRP81       0.0550
     86  CG        21.7960   19.7350   -3.5660 C.ar   81  TRP81       0.0003
     87  CD1       22.4160   20.5840   -4.4310 C.ar   81  TRP81       0.0946
     88  CD2       22.8280   18.9810   -2.9340 C.ar   81  TRP81       0.0152
     89  NE1       23.7590   20.4010   -4.3840 N.ar   81  TRP81      -0.2442
     90  CE2       24.0430   19.4150   -3.4730 C.ar   81  TRP81       0.0810
     91  CE3       22.8400   17.9600   -1.9640 C.ar   81  TRP81       0.0012
     92  CZ2       25.2760   18.8780   -3.0710 C.ar   81  TRP81       0.0191
     93  CZ3       24.0500   17.4430   -1.5550 C.ar   81  TRP81       0.0001
     94  CH2       25.2530   17.8960   -2.1120 C.ar   81  TRP81       0.0015
     95  N         15.0090   19.3570   -4.0600 N.3    83  TYR83      -0.1241
     96  CA        14.6350   18.6730   -5.2790 C.3    83  TYR83       0.1605
     97  C         13.1830   18.9670   -5.6380 C.2    83  TYR83       0.2264
     98  O         12.3170   19.0230   -4.7680 O.2    83  TYR83      -0.2867
     99  CB        14.8870   17.1630   -5.1520 C.3    83  TYR83       0.0534
    100  CG        16.3540   16.8570   -5.1360 C.ar   83  TYR83      -0.0201
    101  CD1       17.0700   16.6450   -6.3150 C.ar   83  TYR83      -0.0009
    102  CD2       17.0460   16.8130   -3.9260 C.ar   83  TYR83      -0.0009
    103  CE1       18.4330   16.3680   -6.2960 C.ar   83  TYR83       0.0417
    104  CE2       18.3990   16.5360   -3.8930 C.ar   83  TYR83       0.0417
    105  CZ        19.0950   16.3300   -5.0610 C.ar   83  TYR83       0.1957
    106  OH        20.4470   16.0810   -4.9950 O.3    83  TYR83      -0.2866
@<TRIPOS>BOND
     1    35    33   ar
     2    33    32    1
     3    33    34   ar
     4    32    31    1
     5    46    44   ar
     6    46    45   ar
     7    31    28    1
     8    44    42   ar
     9    28    27    1
    10    28    29    1
    11    45    43   ar
    12    42    41   ar
    13    36    29   am
    14    36    37    1
    15    29    30    2
    16    43    41   ar
    17    41    40    1
    18    37    40    1
    19    37    38    1
    20    47    38   am
    21    47    48    1
    22    38    39    2
    23    24    25    1
    24    24    21    1
    25    25    26    1
    26    50    49    2
    27    51    48    1
    28    51    52    1
    29    23    22    2
    30    48    49    1
    31    21    22    1
    32    21    20    1
    33    75    76   ar
    34    75    73   ar
    35    78    76   ar
    36    78    80   ar
    37    49    53   am
    38    26    20    1
    39    76    74   ar
    40    80    79   ar
    41    73    72   ar
    42    20    14   am
    43    67    68    1
    44    53    54    1
    45    70    69    2
    46    74    72   ar
    47    74    77   ar
    48    72    71    1
    49    14    15    2
    50    14    13    1
    51    79    77   ar
    52    54    55    1
    53    54    57    1
    54    55    56    2
    55    68    69    1
    56    68    71    1
    57    59    61   ar
    58    59    58   ar
    59     4     3    2
    60    13    16    1
    61    13    12    1
    62    61    62   ar
    63    57    58    1
    64    58    60   ar
    65    16    17    1
    66     3    12   am
    67     3     2    1
    68   101   103   ar
    69   101   100   ar
    70   103   105   ar
    71    18    17    2
    72     5     2    1
    73     5     6    1
    74    62    60   ar
    75    62    64   ar
    76    17    19   am
    77    60    63   ar
    78    97    96    1
    79    97    98    2
    80     2     1    1
    81    64    66   ar
    82     6     8   ar
    83     6     7   ar
    84     8    10   ar
    85    96    99    1
    86    96    95    1
    87    99   100    1
    88   100   102   ar
    89   105   106    1
    90   105   104   ar
    91    63    65   ar
    92     7     9   ar
    93    66    65   ar
    94    10    11   ar
    95    87    89   ar
    96    87    86   ar
    97    89    90   ar
    98   102   104   ar
    99     9    11   ar
   100    86    85    1
   101    86    88   ar
   102    90    92   ar
   103    90    88   ar
   104    85    82    1
   105    92    94   ar
   106    88    91   ar
   107    94    93   ar
   108    82    83    1
   109    82    81    1
   110    91    93   ar
   111    83    84    2
