@<TRIPOS>MOLECULE
tmp/5oh4C00.pdb
 108 113 0 0 0
SMALL
GASTEIGER

@<TRIPOS>ATOM
      1  N         16.9490  -11.5740   -0.0850 N.3    26  PHE26      -0.1227
      2  CA        17.1930  -11.7520    1.3280 C.3    26  PHE26       0.1736
      3  C         18.2300  -12.8430    1.5520 C.2    26  PHE26       0.2595
      4  O         18.1490  -13.9060    0.9430 O.2    26  PHE26      -0.2718
      5  CB        15.8730  -12.1440    1.9860 C.3    26  PHE26       0.0547
      6  CG        14.7050  -11.2480    1.6320 C.ar   26  PHE26      -0.0202
      7  CD1       14.0490  -11.3720    0.4040 C.ar   26  PHE26      -0.0042
      8  CD2       14.2360  -10.3070    2.5370 C.ar   26  PHE26      -0.0042
      9  CE1       12.9670  -10.5600    0.0850 C.ar   26  PHE26      -0.0003
     10  CE2       13.1490   -9.5020    2.2240 C.ar   26  PHE26      -0.0003
     11  CZ        12.5180   -9.6230    0.9960 C.ar   26  PHE26      -0.0000
     12  N         19.2030  -12.5730    2.4260 N.am   27  ASN27      -0.1961
     13  CA        20.2050  -13.5830    2.7810 C.3    27  ASN27       0.1804
     14  C         19.5140  -14.5370    3.7450 C.2    27  ASN27       0.2463
     15  O         18.3480  -14.2890    4.1000 O.2    27  ASN27      -0.2730
     16  CB        21.5110  -12.9530    3.3450 C.3    27  ASN27       0.1195
     17  CG        21.3550  -12.3510    4.7510 C.2    27  ASN27       0.2630
     18  OD1       20.3310  -12.4940    5.4040 O.2    27  ASN27      -0.2716
     19  ND2       22.3800  -11.6610    5.1980 N.am   27  ASN27      -0.0877
     20  N         20.1880  -15.6400    4.1420 N.am   28  PRO28      -0.2727
     21  CA        19.4810  -16.6090    4.9830 C.3    28  PRO28       0.1402
     22  C         19.1270  -16.0960    6.3840 C.2    28  PRO28       0.2269
     23  O         18.3400  -16.7400    7.0860 O.2    28  PRO28      -0.2865
     24  CB        20.4510  -17.7980    5.0500 C.3    28  PRO28       0.0296
     25  CG        21.3880  -17.6290    3.8970 C.3    28  PRO28       0.0237
     26  CD        21.4830  -16.1570    3.6660 C.3    28  PRO28       0.0939
     27  N         18.8880   -7.0580    0.9100 N.3    33  PHE33      -0.1241
     28  CA        19.8230   -6.3240    0.0670 C.3    33  PHE33       0.1605
     29  C         19.0820   -5.9340   -1.2080 C.2    33  PHE33       0.2264
     30  O         18.2870   -6.7020   -1.7330 O.2    33  PHE33      -0.2867
     31  CB        21.0150   -7.1940   -0.3400 C.3    33  PHE33       0.0534
     32  CG        21.8170   -7.7200    0.8160 C.ar   33  PHE33      -0.0203
     33  CD1       21.3070   -8.7280    1.6350 C.ar   33  PHE33      -0.0042
     34  CD2       23.0760   -7.2080    1.1000 C.ar   33  PHE33      -0.0042
     35  CE1       22.0350   -9.1990    2.7090 C.ar   33  PHE33      -0.0003
     36  CE2       23.8010   -7.6790    2.1800 C.ar   33  PHE33      -0.0003
     37  CZ        23.2850   -8.6750    2.9780 C.ar   33  PHE33      -0.0000
     38  N         23.1740  -21.0150   -1.0850 N.3    54  PHE54      -0.1227
     39  CA        22.2260  -19.8970   -0.9980 C.3    54  PHE54       0.1736
     40  C         22.3110  -18.9000   -2.1770 C.2    54  PHE54       0.2596
     41  O         21.9510  -17.7390   -2.0230 O.2    54  PHE54      -0.2718
     42  CB        22.4180  -19.1470    0.3360 C.3    54  PHE54       0.0547
     43  CG        22.0560  -20.0610    1.4830 C.ar   54  PHE54      -0.0202
     44  CD1       20.7290  -20.3770    1.6960 C.ar   54  PHE54      -0.0042
     45  CD2       23.0290  -20.6020    2.2920 C.ar   54  PHE54      -0.0042
     46  CE1       20.3980  -21.2680    2.7040 C.ar   54  PHE54      -0.0003
     47  CE2       22.6780  -21.4710    3.2790 C.ar   54  PHE54      -0.0003
     48  CZ        21.3660  -21.7920    3.4940 C.ar   54  PHE54      -0.0000
     49  N         22.7560  -19.3480   -3.3500 N.am   55  SER55      -0.1938
     50  CA        22.8830  -18.4390   -4.4960 C.3    55  SER55       0.2055
     51  C         21.5230  -17.8840   -4.8500 C.2    55  SER55       0.2643
     52  O         20.5580  -18.6270   -4.9600 O.2    55  SER55      -0.2714
     53  CB        23.4370  -19.1420   -5.7340 C.3    55  SER55       0.2130
     54  OG        23.6070  -18.2030   -6.7840 O.3    55  SER55      -0.2179
     55  N         21.4340  -16.5730   -5.0110 N.am   56  TRP56      -0.1973
     56  CA        20.1740  -15.9540   -5.4300 C.3    56  TRP56       0.1640
     57  C         19.8270  -16.1950   -6.9040 C.2    56  TRP56       0.2290
     58  O         18.6850  -15.9810   -7.3150 O.2    56  TRP56      -0.2864
     59  CB        20.2000  -14.4580   -5.1710 C.3    56  TRP56       0.0576
     60  CG        20.0940  -14.1380   -3.7300 C.ar   56  TRP56       0.0006
     61  CD1       19.1740  -14.6420   -2.8390 C.ar   56  TRP56       0.0946
     62  CD2       20.9190  -13.2320   -2.9930 C.ar   56  TRP56       0.0152
     63  NE1       19.3900  -14.1020   -1.6000 N.ar   56  TRP56      -0.2442
     64  CE2       20.4520  -13.2310   -1.6640 C.ar   56  TRP56       0.0810
     65  CE3       22.0030  -12.4260   -3.3280 C.ar   56  TRP56       0.0012
     66  CZ2       21.0420  -12.4340   -0.6560 C.ar   56  TRP56       0.0191
     67  CZ3       22.5830  -11.6500   -2.3550 C.ar   56  TRP56       0.0001
     68  CH2       22.1100  -11.6520   -1.0280 C.ar   56  TRP56       0.0015
     69  N         28.9920  -18.2540   -6.4480 N.3    62  TRP62      -0.1241
     70  CA        29.4610  -16.9190   -6.1020 C.3    62  TRP62       0.1605
     71  C         30.8260  -16.8950   -5.3880 C.2    62  TRP62       0.2264
     72  O         31.2170  -17.8580   -4.7270 O.2    62  TRP62      -0.2867
     73  CB        28.4090  -16.1840   -5.2750 C.3    62  TRP62       0.0550
     74  CG        27.9230  -16.8930   -4.0500 C.ar   62  TRP62       0.0003
     75  CD1       26.7180  -17.5460   -3.8990 C.ar   62  TRP62       0.0946
     76  CD2       28.6050  -16.9990   -2.7870 C.ar   62  TRP62       0.0152
     77  NE1       26.6190  -18.0490   -2.6160 N.ar   62  TRP62      -0.2442
     78  CE2       27.7600  -17.7270   -1.9150 C.ar   62  TRP62       0.0810
     79  CE3       29.8430  -16.5310   -2.3010 C.ar   62  TRP62       0.0012
     80  CZ2       28.1200  -18.0070   -0.5830 C.ar   62  TRP62       0.0191
     81  CZ3       30.2050  -16.8230   -0.9720 C.ar   62  TRP62       0.0001
     82  CH2       29.3430  -17.5530   -0.1320 C.ar   62  TRP62       0.0015
     83  N         29.3310   -9.7330   -4.9700 N.3    76  TRP76      -0.1241
     84  CA        29.7430  -11.0610   -5.3610 C.3    76  TRP76       0.1605
     85  C         29.9620  -11.1330   -6.8610 C.2    76  TRP76       0.2264
     86  O         29.3210  -10.4340   -7.6300 O.2    76  TRP76      -0.2867
     87  CB        28.6650  -12.0610   -4.9630 C.3    76  TRP76       0.0550
     88  CG        28.4140  -12.0980   -3.4730 C.ar   76  TRP76       0.0003
     89  CD1       29.0390  -12.8910   -2.5430 C.ar   76  TRP76       0.0946
     90  CD2       27.4910  -11.2910   -2.7440 C.ar   76  TRP76       0.0152
     91  NE1       28.5580  -12.6280   -1.2870 N.ar   76  TRP76      -0.2442
     92  CE2       27.6030  -11.6490   -1.3820 C.ar   76  TRP76       0.0810
     93  CE3       26.5930  -10.2870   -3.1140 C.ar   76  TRP76       0.0012
     94  CZ2       26.8360  -11.0600   -0.3940 C.ar   76  TRP76       0.0191
     95  CZ3       25.8410   -9.6920   -2.1290 C.ar   76  TRP76       0.0001
     96  CH2       25.9710  -10.0750   -0.7810 C.ar   76  TRP76       0.0015
     97  N         29.5250  -13.7550   -9.8960 N.3    78  TYR78      -0.1241
     98  CA        28.8010  -14.9650  -10.2140 C.3    78  TYR78       0.1605
     99  C         29.3690  -15.5940  -11.4860 C.2    78  TYR78       0.2264
    100  O         29.6630  -14.9010  -12.4620 O.2    78  TYR78      -0.2867
    101  CB        27.3100  -14.6660  -10.3600 C.3    78  TYR78       0.0534
    102  CG        26.6250  -14.2950   -9.0400 C.ar   78  TYR78      -0.0201
    103  CD1       26.5620  -12.9680   -8.6030 C.ar   78  TYR78      -0.0009
    104  CD2       26.0310  -15.2810   -8.2480 C.ar   78  TYR78      -0.0009
    105  CE1       25.9400  -12.6450   -7.4140 C.ar   78  TYR78       0.0417
    106  CE2       25.3970  -14.9670   -7.0650 C.ar   78  TYR78       0.0417
    107  CZ        25.3550  -13.6420   -6.6500 C.ar   78  TYR78       0.1957
    108  OH        24.6980  -13.3160   -5.4810 O.3    78  TYR78      -0.2866
@<TRIPOS>BOND
     1   100    99    2
     2    99    98    1
     3   101    98    1
     4   101   102    1
     5    98    97    1
     6   102   103   ar
     7   102   104   ar
     8   103   105   ar
     9   104   106   ar
    10    86    85    2
    11   105   107   ar
    12    58    57    2
    13   106   107   ar
    14    57    56    1
    15    85    84    1
    16    54    53    1
    17   107   108    1
    18    69    70    1
    19    70    71    1
    20    70    73    1
    21    53    50    1
    22    56    59    1
    23    56    55    1
    24    71    72    2
    25    84    83    1
    26    84    87    1
    27    73    74    1
    28    59    60    1
    29    55    51   am
    30    87    88    1
    31    52    51    2
    32    51    50    1
    33    50    49    1
    34    74    75   ar
    35    74    76   ar
    36    75    77   ar
    37    60    62   ar
    38    60    61   ar
    39    88    90   ar
    40    88    89   ar
    41    49    40   am
    42    65    62   ar
    43    65    67   ar
    44    93    90   ar
    45    93    95   ar
    46    62    64   ar
    47    61    63   ar
    48    76    79   ar
    49    76    78   ar
    50    90    92   ar
    51    77    78   ar
    52    89    91   ar
    53    67    68   ar
    54    79    81   ar
    55    40    41    2
    56    40    39    1
    57    95    96   ar
    58    78    80   ar
    59    30    29    2
    60    64    63   ar
    61    64    66   ar
    62    92    91   ar
    63    92    94   ar
    64    29    28    1
    65    38    39    1
    66    68    66   ar
    67    39    42    1
    68    81    82   ar
    69    96    94   ar
    70    80    82   ar
    71    31    28    1
    72    31    32    1
    73     1     2    1
    74    28    27    1
    75     9     7   ar
    76     9    11   ar
    77    42    43    1
    78     7     6   ar
    79    32    34   ar
    80    32    33   ar
    81     4     3    2
    82    11    10   ar
    83    34    36   ar
    84     2     3    1
    85     2     5    1
    86    43    44   ar
    87    43    45   ar
    88     3    12   am
    89     6     5    1
    90     6     8   ar
    91    33    35   ar
    92    44    46   ar
    93    36    37   ar
    94    10     8   ar
    95    45    47   ar
    96    12    13    1
    97    46    48   ar
    98    35    37   ar
    99    13    16    1
   100    13    14    1
   101    47    48   ar
   102    16    17    1
   103    26    25    1
   104    26    20    1
   105    14    15    2
   106    14    20   am
   107    25    24    1
   108    20    21    1
   109    17    19   am
   110    17    18    2
   111    21    24    1
   112    21    22    1
   113    22    23    2
