@<TRIPOS>MOLECULE
tmp/5oh8A00.pdb
 134 135 0 0 0
SMALL
GASTEIGER

@<TRIPOS>ATOM
      1  N         29.9890   13.6810   -6.4870 N.3    32  ASN32      -0.1226
      2  CA        29.8370   14.6930   -7.5210 C.3    32  ASN32       0.1770
      3  C         30.9500   14.5800   -8.5510 C.2    32  ASN32       0.2439
      4  O         31.8510   13.7750   -8.3790 O.2    32  ASN32      -0.2733
      5  CB        29.6570   16.0900   -6.8960 C.3    32  ASN32       0.1168
      6  CG        30.9160   16.6460   -6.2790 C.2    32  ASN32       0.2627
      7  OD1       32.0110   16.1210   -6.4790 O.2    32  ASN32      -0.2716
      8  ND2       30.7520   17.7010   -5.4920 N.am   32  ASN32      -0.0877
      9  N         30.8620   15.3410   -9.6620 N.am   33  PRO33      -0.2729
     10  CA        31.9110   15.2410  -10.6640 C.3    33  PRO33       0.1401
     11  C         33.2980   15.6640  -10.1950 C.2    33  PRO33       0.2269
     12  O         34.2380   15.2320  -10.7960 O.2    33  PRO33      -0.2865
     13  CB        31.4240   16.1430  -11.8060 C.3    33  PRO33       0.0296
     14  CG        29.9270   16.1870  -11.6400 C.3    33  PRO33       0.0237
     15  CD        29.6840   16.0990  -10.1560 C.3    33  PRO33       0.0939
     16  N         33.9890   14.4740   -4.7880 N.3    36  MET36      -0.1245
     17  CA        33.5720   14.5420   -3.3820 C.3    36  MET36       0.1570
     18  C         32.4390   13.5650   -3.1010 C.2    36  MET36       0.2261
     19  O         31.5050   13.4100   -3.9280 O.2    36  MET36      -0.2867
     20  CB        33.1180   15.9390   -2.9810 C.3    36  MET36       0.0387
     21  CG        33.9840   17.0380   -3.5560 C.3    36  MET36       0.0595
     22  SD        33.3970   18.6580   -3.0730 S.3    36  MET36      -0.1393
     23  CE        33.1990   19.5300   -4.6290 C.3    36  MET36       0.0692
     24  N         29.4000   12.2850   -0.5990 N.3    38  PHE38      -0.1241
     25  CA        28.4060   12.8100    0.3490 C.3    38  PHE38       0.1605
     26  C         27.4870   11.7000    0.8460 C.2    38  PHE38       0.2264
     27  O         27.0150   10.8650    0.0700 O.2    38  PHE38      -0.2867
     28  CB        27.5210   13.8420   -0.2720 C.3    38  PHE38       0.0534
     29  CG        28.2480   14.9810   -0.9140 C.ar   38  PHE38      -0.0203
     30  CD1       28.6750   14.8890   -2.2340 C.ar   38  PHE38      -0.0042
     31  CD2       28.5200   16.1200   -0.2070 C.ar   38  PHE38      -0.0042
     32  CE1       29.3690   15.9320   -2.8230 C.ar   38  PHE38      -0.0003
     33  CE2       29.2160   17.1640   -0.7900 C.ar   38  PHE38      -0.0003
     34  CZ        29.6060   17.0870   -2.0980 C.ar   38  PHE38      -0.0000
     35  N         23.5430   16.1610  -13.9590 N.3    59  PHE59      -0.1227
     36  CA        24.1900   15.2230  -13.0300 C.3    59  PHE59       0.1736
     37  C         23.3210   14.8910  -11.8130 C.2    59  PHE59       0.2596
     38  O         23.8610   14.5250  -10.7270 O.2    59  PHE59      -0.2718
     39  CB        25.5420   15.7750  -12.4880 C.3    59  PHE59       0.0547
     40  CG        26.6100   15.9860  -13.5300 C.ar   59  PHE59      -0.0202
     41  CD1       27.1780   14.9030  -14.1920 C.ar   59  PHE59      -0.0042
     42  CD2       27.1080   17.2660  -13.7870 C.ar   59  PHE59      -0.0042
     43  CE1       28.1730   15.0970  -15.1410 C.ar   59  PHE59      -0.0003
     44  CE2       28.1060   17.4670  -14.7350 C.ar   59  PHE59      -0.0003
     45  CZ        28.6440   16.3810  -15.4050 C.ar   59  PHE59      -0.0000
     46  N         22.0050   15.0450  -11.9370 N.am   60  SER60      -0.1938
     47  CA        21.1450   14.8180  -10.7870 C.3    60  SER60       0.2055
     48  C         21.3260   13.4140  -10.3100 C.2    60  SER60       0.2643
     49  O         21.3290   12.5070  -11.1350 O.2    60  SER60      -0.2714
     50  CB        19.6610   14.9960  -11.1390 C.3    60  SER60       0.2130
     51  OG        18.9260   14.7800   -9.9300 O.3    60  SER60      -0.2179
     52  N         21.4180   13.2220   -9.0050 N.am   61  TRP61      -0.1973
     53  CA        21.5600   11.8770   -8.4310 C.3    61  TRP61       0.1640
     54  C         20.2160   11.1610   -8.2960 C.2    61  TRP61       0.2290
     55  O         20.1950    9.9790   -8.0050 O.2    61  TRP61      -0.2864
     56  CB        22.1580   11.9390   -7.0270 C.3    61  TRP61       0.0576
     57  CG        23.5570   12.4360   -6.9340 C.ar   61  TRP61       0.0006
     58  CD1       24.6350   11.9680   -7.6540 C.ar   61  TRP61       0.0946
     59  CD2       24.0780   13.4080   -6.0160 C.ar   61  TRP61       0.0152
     60  NE1       25.7930   12.6310   -7.2530 N.ar   61  TRP61      -0.2442
     61  CE2       25.4760   13.5050   -6.2470 C.ar   61  TRP61       0.0810
     62  CE3       23.5190   14.1930   -5.0220 C.ar   61  TRP61       0.0012
     63  CZ2       26.2760   14.3960   -5.5340 C.ar   61  TRP61       0.0191
     64  CZ3       24.2780   15.0370   -4.3340 C.ar   61  TRP61       0.0001
     65  CH2       25.6670   15.1430   -4.5810 C.ar   61  TRP61       0.0015
     66  N         17.7050   19.8400   -9.2070 N.3    67  TRP67      -0.1241
     67  CA        18.2050   20.2510   -7.9210 C.3    67  TRP67       0.1605
     68  C         18.5010   21.7320   -7.8720 C.2    67  TRP67       0.2264
     69  O         18.8570   22.3930   -8.8790 O.2    67  TRP67      -0.2867
     70  CB        19.4580   19.4200   -7.4950 C.3    67  TRP67       0.0550
     71  CG        20.5360   19.4250   -8.5150 C.ar   67  TRP67       0.0003
     72  CD1       20.7460   18.4780   -9.4570 C.ar   67  TRP67       0.0946
     73  CD2       21.4960   20.4610   -8.7540 C.ar   67  TRP67       0.0152
     74  NE1       21.7750   18.8570  -10.3000 N.ar   67  TRP67      -0.2442
     75  CE2       22.2630   20.0660   -9.8840 C.ar   67  TRP67       0.0810
     76  CE3       21.8070   21.6790   -8.1140 C.ar   67  TRP67       0.0012
     77  CZ2       23.2930   20.8470  -10.4010 C.ar   67  TRP67       0.0191
     78  CZ3       22.8240   22.4570   -8.6390 C.ar   67  TRP67       0.0001
     79  CH2       23.5720   22.0230   -9.7680 C.ar   67  TRP67       0.0015
     80  N         20.7870   24.2010   -5.0420 N.3    69  ILE69      -0.1245
     81  CA        21.6550   24.2120   -3.8630 C.3    69  ILE69       0.1561
     82  C         20.9000   24.8240   -2.6990 C.2    69  ILE69       0.2260
     83  O         20.2520   25.8810   -2.8700 O.2    69  ILE69      -0.2867
     84  CB        22.9100   25.0190   -4.1800 C.3    69  ILE69       0.0252
     85  CG1       23.7570   24.2000   -5.1770 C.3    69  ILE69       0.0019
     86  CG2       23.7120   25.3350   -2.8980 C.3    69  ILE69       0.0019
     87  CD1       25.0350   24.9030   -5.5860 C.3    69  ILE69       0.0001
     88  N         26.8770   25.0970    3.1920 N.3    78  HIS78      -0.1241
     89  CA        26.1960   24.2490    2.2050 C.3    78  HIS78       0.1621
     90  C         25.6640   23.0020    2.8550 C.2    78  HIS78       0.2264
     91  O         26.4590   22.1670    3.2910 O.2    78  HIS78      -0.2867
     92  CB        27.1360   23.8970    1.0280 C.3    78  HIS78       0.0745
     93  CG        26.4800   23.0530   -0.0030 C.ar   78  HIS78       0.0817
     94  ND1       27.1580   22.1330   -0.7680 N.ar   78  HIS78      -0.2268
     95  CD2       25.1730   22.9290   -0.3370 C.ar   78  HIS78       0.1154
     96  CE1       26.3040   21.5120   -1.5640 C.ar   78  HIS78       0.1986
     97  NE2       25.0890   21.9670   -1.3120 N.ar   78  HIS78      -0.2212
     98  N         20.6850   19.9560   -0.9600 N.3    81  TRP81      -0.1241
     99  CA        19.9550   20.3120   -2.1910 C.3    81  TRP81       0.1605
    100  C         18.4520   20.1280   -1.9910 C.2    81  TRP81       0.2264
    101  O         17.9970   19.2260   -1.2710 O.2    81  TRP81      -0.2867
    102  CB        20.4440   19.4440   -3.3960 C.3    81  TRP81       0.0550
    103  CG        21.9450   19.4660   -3.6040 C.ar   81  TRP81       0.0003
    104  CD1       22.6430   20.3020   -4.4310 C.ar   81  TRP81       0.0946
    105  CD2       22.9220   18.6930   -2.9160 C.ar   81  TRP81       0.0152
    106  NE1       23.9660   20.0710   -4.3140 N.ar   81  TRP81      -0.2442
    107  CE2       24.1690   19.1190   -3.3580 C.ar   81  TRP81       0.0810
    108  CE3       22.8590   17.6740   -1.9500 C.ar   81  TRP81       0.0012
    109  CZ2       25.3690   18.5430   -2.8960 C.ar   81  TRP81       0.0191
    110  CZ3       24.0430   17.1410   -1.4820 C.ar   81  TRP81       0.0001
    111  CH2       25.2610   17.5910   -1.9270 C.ar   81  TRP81       0.0015
    112  N         15.1830   19.1770   -4.2460 N.3    83  TYR83      -0.1241
    113  CA        14.8490   18.4490   -5.4410 C.3    83  TYR83       0.1605
    114  C         13.4160   18.7730   -5.7970 C.2    83  TYR83       0.2264
    115  O         12.5480   18.8120   -4.9050 O.2    83  TYR83      -0.2867
    116  CB        15.0480   16.9000   -5.2630 C.3    83  TYR83       0.0534
    117  CG        16.5330   16.5700   -5.2240 C.ar   83  TYR83      -0.0201
    118  CD1       17.2730   16.4640   -6.3840 C.ar   83  TYR83      -0.0009
    119  CD2       17.2230   16.5470   -3.9970 C.ar   83  TYR83      -0.0009
    120  CE1       18.6250   16.1930   -6.3510 C.ar   83  TYR83       0.0417
    121  CE2       18.5820   16.2980   -3.9460 C.ar   83  TYR83       0.0417
    122  CZ        19.2830   16.0910   -5.0960 C.ar   83  TYR83       0.1957
    123  OH        20.6610   15.9090   -5.0350 O.3    83  TYR83      -0.2866
    124  N         26.9950   17.5390    7.9840 N.3    99  ARG99      -0.1245
    125  CA        26.8210   18.9790    8.1640 C.3    99  ARG99       0.1563
    126  C         25.6670   19.3880    9.1130 C.2    99  ARG99       0.2260
    127  O         25.3960   20.5880    9.3090 O.2    99  ARG99      -0.2867
    128  CB        26.6630   19.5980    6.7970 C.3    99  ARG99       0.0307
    129  CG        27.9640   19.3840    6.0390 C.3    99  ARG99       0.0489
    130  CD        28.0470   20.1270    4.7610 C.3    99  ARG99       0.2205
    131  NE        29.2140   19.6470    4.0200 N.pl3  99  ARG99      -0.0865
    132  CZ        29.5930   20.0990    2.8380 C.cat  99  ARG99       0.5346
    133  NH1       28.9310   21.0880    2.2460 N.pl3  99  ARG99       0.1354
    134  NH2       30.6420   19.5520    2.2530 N.pl3  99  ARG99       0.1354
@<TRIPOS>BOND
     1    45    43   ar
     2    45    44   ar
     3    43    41   ar
     4    44    42   ar
     5    41    40   ar
     6    35    36    1
     7    42    40   ar
     8    40    39    1
     9    36    39    1
    10    36    37    1
    11    46    37   am
    12    46    47    1
    13    37    38    2
    14    13    14    1
    15    13    10    1
    16    14    15    1
    17    50    47    1
    18    50    51    1
    19    49    48    2
    20    12    11    2
    21    47    48    1
    22    10    11    1
    23    10     9    1
    24    77    75   ar
    25    77    79   ar
    26    48    52   am
    27    74    75   ar
    28    74    72   ar
    29    15     9    1
    30    75    73   ar
    31    79    78   ar
    32     9     3   am
    33    72    71   ar
    34    66    67    1
    35    52    53    1
    36    69    68    2
    37    73    71   ar
    38    73    76   ar
    39    78    76   ar
    40     3     4    2
    41     3     2    1
    42    71    70    1
    43    53    54    1
    44    53    56    1
    45    54    55    2
    46    67    68    1
    47    67    70    1
    48    58    60   ar
    49    58    57   ar
    50     2     5    1
    51     2     1    1
    52    60    61   ar
    53    56    57    1
    54    57    59   ar
    55     5     6    1
    56     7     6    2
    57   118   120   ar
    58   118   117   ar
    59   120   122   ar
    60     6     8   am
    61    61    59   ar
    62    61    63   ar
    63    59    62   ar
    64   114   113    1
    65   114   115    2
    66    87    85    1
    67    63    65   ar
    68   113   116    1
    69   113   112    1
    70   116   117    1
    71   117   119   ar
    72    85    84    1
    73   122   123    1
    74   122   121   ar
    75    80    81    1
    76    62    64   ar
    77    16    17    1
    78    23    22    1
    79    65    64   ar
    80   104   106   ar
    81   104   103   ar
    82   106   107   ar
    83    84    81    1
    84    84    86    1
    85   119   121   ar
    86    19    18    2
    87    81    82    1
    88   103   102    1
    89   103   105   ar
    90    21    22    1
    91    21    20    1
    92   102    99    1
    93    17    18    1
    94    17    20    1
    95   107   105   ar
    96   107   109   ar
    97   105   108   ar
    98   109   111   ar
    99    83    82    2
   100    32    30   ar
   101    32    34   ar
   102    30    29   ar
   103    99   100    1
   104    99    98    1
   105    34    33   ar
   106   100   101    2
   107   108   110   ar
   108   111   110   ar
   109    96    97   ar
   110    96    94   ar
   111    97    95   ar
   112    29    28    1
   113    29    31   ar
   114    33    31   ar
   115    94    93   ar
   116    24    25    1
   117    95    93   ar
   118    28    25    1
   119    93    92    1
   120    27    26    2
   121    25    26    1
   122    92    89    1
   123    89    90    1
   124    89    88    1
   125   133   132    1
   126   134   132    1
   127   132   131    2
   128    90    91    2
   129   131   130    1
   130   130   129    1
   131   129   128    1
   132   128   125    1
   133   124   125    1
   134   125   126    1
   135   126   127    2
