@<TRIPOS>MOLECULE
tmp/5oheF00.pdb
 198 189 0 0 0
SMALL
GASTEIGER

@<TRIPOS>ATOM
      1  N         44.8370    3.2420  -41.7850 N.3    39  PHE39      -0.1227
      2  CA        43.5420    3.6010  -42.3270 C.3    39  PHE39       0.1736
      3  C         42.9960    4.8490  -41.6220 C.2    39  PHE39       0.2595
      4  O         42.5840    5.7940  -42.2910 O.2    39  PHE39      -0.2718
      5  CB        42.5940    2.4010  -42.1710 C.3    39  PHE39       0.0547
      6  CG        41.2540    2.5650  -42.7590 C.ar   39  PHE39      -0.0202
      7  CD1       41.0210    2.1730  -44.0800 C.ar   39  PHE39      -0.0042
      8  CD2       40.2180    3.0350  -42.0120 C.ar   39  PHE39      -0.0042
      9  CE1       39.8030    2.2870  -44.6200 C.ar   39  PHE39      -0.0003
     10  CE2       38.9780    3.1490  -42.5330 C.ar   39  PHE39      -0.0003
     11  CZ        38.7580    2.7840  -43.8630 C.ar   39  PHE39      -0.0000
     12  N         42.9830    4.8490  -40.2820 N.am   40  TYR40      -0.1976
     13  CA        42.4810    5.9900  -39.5320 C.3    40  TYR40       0.1639
     14  C         43.4140    7.1760  -39.4870 C.2    40  TYR40       0.2290
     15  O         42.9040    8.2890  -39.4570 O.2    40  TYR40      -0.2864
     16  CB        41.9540    5.5740  -38.1140 C.3    40  TYR40       0.0560
     17  CG        40.8100    4.6150  -38.2580 C.ar   40  TYR40      -0.0198
     18  CD1       39.5640    5.0320  -38.7170 C.ar   40  TYR40      -0.0009
     19  CD2       41.0220    3.2630  -38.1170 C.ar   40  TYR40      -0.0009
     20  CE1       38.5390    4.1340  -38.8950 C.ar   40  TYR40       0.0417
     21  CE2       40.0150    2.3510  -38.3130 C.ar   40  TYR40       0.0417
     22  CZ        38.7850    2.7910  -38.7010 C.ar   40  TYR40       0.1957
     23  OH        37.8370    1.8430  -38.9550 O.3    40  TYR40      -0.2866
     24  N         42.6600    9.1150  -42.6130 N.3    43  ILE43      -0.1245
     25  CA        41.4400    9.8910  -42.4580 C.3    43  ILE43       0.1561
     26  C         41.7010   11.1690  -41.6160 C.2    43  ILE43       0.2260
     27  O         41.3750   12.3100  -42.0520 O.2    43  ILE43      -0.2867
     28  CB        40.2800    9.0810  -41.8350 C.3    43  ILE43       0.0252
     29  CG1       39.7730    8.0420  -42.8140 C.3    43  ILE43       0.0019
     30  CG2       39.1360    9.9990  -41.4520 C.3    43  ILE43       0.0019
     31  CD1       38.8630    6.9970  -42.2040 C.3    43  ILE43       0.0001
     32  N         38.0010   14.3740  -45.1900 N.3    49  ALA49      -0.1245
     33  CA        37.4390   13.1520  -44.6180 C.3    49  ALA49       0.1562
     34  C         37.3460   13.2200  -43.0880 C.2    49  ALA49       0.2260
     35  O         36.4100   12.6770  -42.5150 O.2    49  ALA49      -0.2867
     36  CB        38.2600   11.9540  -45.0560 C.3    49  ALA49       0.0290
     37  N         34.1810   13.7330  -41.0370 N.3    52  ALA52      -0.1231
     38  CA        33.1940   12.6590  -40.8570 C.3    52  ALA52       0.1694
     39  C         33.3180   11.9560  -39.5250 C.2    52  ALA52       0.2591
     40  O         32.3640   11.2950  -39.0920 O.2    52  ALA52      -0.2718
     41  CB        33.3310   11.6290  -41.9650 C.3    52  ALA52       0.0304
     42  N         34.4940   12.0830  -38.8990 N.am   53  LEU53      -0.1980
     43  CA        34.8100   11.4600  -37.6310 C.3    53  LEU53       0.1596
     44  C         34.5270   12.3650  -36.4290 C.2    53  LEU53       0.2287
     45  O         35.4450   12.8800  -35.8020 O.2    53  LEU53      -0.2864
     46  CB        36.2880   11.0410  -37.6000 C.3    53  LEU53       0.0297
     47  CG        36.6740    9.8080  -38.4040 C.3    53  LEU53       0.0022
     48  CD1       38.1400    9.5270  -38.1580 C.3    53  LEU53       0.0001
     49  CD2       35.8570    8.5860  -38.0450 C.3    53  LEU53       0.0001
     50  N         35.6690    6.8980  -30.4010 N.3    59  GLN59      -0.1245
     51  CA        35.0970    6.4820  -31.6650 C.3    59  GLN59       0.1566
     52  C         36.0940    5.7890  -32.5690 C.2    59  GLN59       0.2260
     53  O         35.7720    4.7550  -33.1370 O.2    59  GLN59      -0.2867
     54  CB        34.4650    7.6570  -32.4090 C.3    59  GLN59       0.0367
     55  CG        33.9360    7.2880  -33.8020 C.3    59  GLN59       0.0905
     56  CD        33.4530    8.5230  -34.5760 C.2    59  GLN59       0.2608
     57  OE1       34.1340    9.5780  -34.6000 O.2    59  GLN59      -0.2717
     58  NE2       32.2720    8.4190  -35.1660 N.am   59  GLN59      -0.0878
     59  N         35.9860    1.9460  -33.9440 N.3    63  LEU63      -0.1245
     60  CA        36.1030    1.7030  -35.3750 C.3    63  LEU63       0.1561
     61  C         37.2840    0.7660  -35.6390 C.2    63  LEU63       0.2260
     62  O         37.1940   -0.1150  -36.5090 O.2    63  LEU63      -0.2867
     63  CB        36.2450    3.0170  -36.1270 C.3    63  LEU63       0.0270
     64  CG        34.9740    3.8930  -36.2210 C.3    63  LEU63       0.0019
     65  CD1       35.2000    5.1510  -37.0160 C.3    63  LEU63       0.0001
     66  CD2       33.8050    3.1000  -36.8110 C.3    63  LEU63       0.0001
     67  N         35.9790   -2.7770  -35.1640 N.3    66  THR66      -0.1203
     68  CA        35.1640   -3.2130  -36.3010 C.3    66  THR66       0.1994
     69  C         36.0140   -3.4440  -37.5910 C.2    66  THR66       0.2617
     70  O         35.6850   -4.3240  -38.3660 O.2    66  THR66      -0.2717
     71  CB        33.9330   -2.2900  -36.5460 C.3    66  THR66       0.1784
     72  OG1       34.2820   -0.9190  -36.3710 O.3    66  THR66      -0.2211
     73  CG2       32.8530   -2.5710  -35.5250 C.3    66  THR66       0.0376
     74  N         37.0710   -2.6590  -37.7910 N.am   67  MET67      -0.1979
     75  CA        37.9360   -2.7700  -38.9760 C.3    67  MET67       0.1605
     76  C         38.8240   -4.0130  -38.9440 C.2    67  MET67       0.2287
     77  O         39.0800   -4.5900  -39.9840 O.2    67  MET67      -0.2864
     78  CB        38.8480   -1.5510  -39.1320 C.3    67  MET67       0.0413
     79  CG        39.5320   -1.5050  -40.4900 C.3    67  MET67       0.0598
     80  SD        38.3950   -1.5390  -41.9060 S.3    67  MET67      -0.1393
     81  CE        37.7300    0.1010  -41.8250 C.3    67  MET67       0.0692
     82  N         36.5330   -6.6160  -39.8660 N.3    70  TRP70      -0.1241
     83  CA        36.2910   -6.4970  -41.3150 C.3    70  TRP70       0.1605
     84  C         37.3300   -7.2050  -42.1550 C.2    70  TRP70       0.2264
     85  O         36.9650   -7.9860  -43.0700 O.2    70  TRP70      -0.2867
     86  CB        36.1860   -5.0180  -41.7250 C.3    70  TRP70       0.0550
     87  CG        35.7340   -4.8100  -43.1560 C.ar   70  TRP70       0.0003
     88  CD1       34.4290   -4.7230  -43.6130 C.ar   70  TRP70       0.0946
     89  CD2       36.5720   -4.6300  -44.2880 C.ar   70  TRP70       0.0152
     90  NE1       34.4380   -4.4780  -44.9760 N.ar   70  TRP70      -0.2442
     91  CE2       35.7230   -4.4440  -45.4160 C.ar   70  TRP70       0.0810
     92  CE3       37.9640   -4.5850  -44.4650 C.ar   70  TRP70       0.0012
     93  CZ2       36.2240   -4.2410  -46.7090 C.ar   70  TRP70       0.0191
     94  CZ3       38.4740   -4.3870  -45.7500 C.ar   70  TRP70       0.0001
     95  CH2       37.5880   -4.2220  -46.8650 C.ar   70  TRP70       0.0015
     96  N         26.8990   -2.5550  -44.1640 N.3    90  ILE90      -0.1245
     97  CA        28.0520   -1.6520  -43.9550 C.3    90  ILE90       0.1561
     98  C         28.0360   -0.4350  -44.8970 C.2    90  ILE90       0.2260
     99  O         28.2880    0.7060  -44.4830 O.2    90  ILE90      -0.2867
    100  CB        29.3710   -2.4350  -44.0420 C.3    90  ILE90       0.0252
    101  CG1       29.4890   -3.3950  -42.8300 C.3    90  ILE90       0.0019
    102  CG2       30.5570   -1.4800  -44.0950 C.3    90  ILE90       0.0019
    103  CD1       30.5060   -4.5020  -42.9770 C.3    90  ILE90       0.0001
    104  N         25.5310    2.3060  -43.7660 N.3    93  VAL93      -0.1231
    105  CA        25.9580    3.1300  -42.6290 C.3    93  VAL93       0.1692
    106  C         26.5820    4.4210  -43.1430 C.2    93  VAL93       0.2592
    107  O         26.3410    5.5120  -42.6000 O.2    93  VAL93      -0.2718
    108  CB        26.9700    2.3660  -41.7120 C.3    93  VAL93       0.0266
    109  CG1       27.6410    3.2850  -40.7190 C.3    93  VAL93       0.0020
    110  CG2       26.2670    1.2400  -40.9960 C.3    93  VAL93       0.0020
    111  N         27.3820    4.3060  -44.1900 N.am   94  HIS94      -0.1976
    112  CA        28.1170    5.4460  -44.7120 C.3    94  HIS94       0.1656
    113  C         27.1910    6.4020  -45.4670 C.2    94  HIS94       0.2291
    114  O         27.3910    7.6130  -45.4220 O.2    94  HIS94      -0.2864
    115  CB        29.3040    4.9520  -45.5440 C.3    94  HIS94       0.0771
    116  CG        30.2640    4.1480  -44.7330 C.ar   94  HIS94       0.0820
    117  ND1       30.1450    2.7830  -44.6020 N.ar   94  HIS94      -0.2267
    118  CD2       31.2940    4.5200  -43.9410 C.ar   94  HIS94       0.1154
    119  CE1       31.0960    2.3420  -43.7960 C.ar   94  HIS94       0.1986
    120  NE2       31.8150    3.3720  -43.3920 N.ar   94  HIS94      -0.2212
    121  N         23.8030    6.8100  -44.6360 N.3    96  ARG96      -0.1231
    122  CA        23.0650    7.4800  -43.5310 C.3    96  ARG96       0.1694
    123  C         23.8170    8.6330  -42.8510 C.2    96  ARG96       0.2591
    124  O         23.1810    9.6540  -42.4940 O.2    96  ARG96      -0.2718
    125  CB        22.6410    6.4510  -42.4790 C.3    96  ARG96       0.0321
    126  CG        21.8750    7.0070  -41.2610 C.3    96  ARG96       0.0489
    127  CD        22.5530    6.6640  -39.9320 C.3    96  ARG96       0.2205
    128  NE        22.7470    5.2080  -39.8190 N.pl3  96  ARG96      -0.0865
    129  CZ        23.7610    4.5950  -39.1880 C.cat  96  ARG96       0.5346
    130  NH1       24.7250    5.2770  -38.5580 N.pl3  96  ARG96       0.1354
    131  NH2       23.8120    3.2650  -39.1970 N.pl3  96  ARG96       0.1354
    132  N         25.1360    8.4790  -42.6390 N.am   97  ILE97      -0.1980
    133  CA        25.9630    9.5730  -42.0460 C.3    97  ILE97       0.1595
    134  C         26.3360   10.6940  -43.0400 C.2    97  ILE97       0.2287
    135  O         26.8960   11.7130  -42.6350 O.2    97  ILE97      -0.2864
    136  CB        27.2520    9.0620  -41.3360 C.3    97  ILE97       0.0276
    137  CG1       28.2070    8.3560  -42.3160 C.3    97  ILE97       0.0022
    138  CG2       26.8970    8.1530  -40.1570 C.3    97  ILE97       0.0022
    139  CD1       29.5490    7.9520  -41.7250 C.3    97  ILE97       0.0001
    140  N         28.5040   10.5390  -45.6570 N.3    99  LEU99      -0.1245
    141  CA        29.8960   10.5070  -46.0980 C.3    99  LEU99       0.1561
    142  C         29.9060   10.6380  -47.6360 C.2    99  LEU99       0.2260
    143  O         29.2420    9.8530  -48.3050 O.2    99  LEU99      -0.2867
    144  CB        30.5380    9.1820  -45.6980 C.3    99  LEU99       0.0270
    145  CG        32.0060    8.9650  -46.0940 C.3    99  LEU99       0.0019
    146  CD1       32.9470    9.8200  -45.2450 C.3    99  LEU99       0.0001
    147  CD2       32.3680    7.4860  -45.9530 C.3    99  LEU99       0.0001
    148  N         35.2270    9.1820  -50.8550 N.3   103  TYR103     -0.1227
    149  CA        36.1320    8.7730  -49.7710 C.3   103  TYR103      0.1736
    150  C         36.2120    7.2700  -49.5800 C.2   103  TYR103      0.2595
    151  O         37.1840    6.8090  -49.0430 O.2   103  TYR103     -0.2718
    152  CB        35.7340    9.4460  -48.4430 C.3   103  TYR103      0.0548
    153  CG        35.8380   10.9800  -48.4190 C.ar  103  TYR103     -0.0200
    154  CD1       36.9120   11.6470  -48.9780 C.ar  103  TYR103     -0.0009
    155  CD2       34.8860   11.7490  -47.7690 C.ar  103  TYR103     -0.0009
    156  CE1       37.0070   13.0400  -48.9420 C.ar  103  TYR103      0.0417
    157  CE2       34.9800   13.1510  -47.7220 C.ar  103  TYR103      0.0417
    158  CZ        36.0450   13.7770  -48.3170 C.ar  103  TYR103      0.1957
    159  OH        36.1620   15.1620  -48.2820 O.3   103  TYR103     -0.2866
    160  N         35.1810    6.5130  -49.9890 N.am  104  MET104     -0.1979
    161  CA        35.2430    5.0670  -49.9640 C.3   104  MET104      0.1605
    162  C         36.3850    4.5510  -50.8130 C.2   104  MET104      0.2287
    163  O         37.0010    3.5430  -50.4640 O.2   104  MET104     -0.2864
    164  CB        33.9190    4.4520  -50.4110 C.3   104  MET104      0.0413
    165  CG        32.7450    4.8240  -49.5460 C.3   104  MET104      0.0598
    166  SD        32.8060    4.3070  -47.7990 S.3   104  MET104     -0.1393
    167  CE        32.0910    2.7190  -48.1140 C.3   104  MET104      0.0692
    168  N         39.7880    5.3960  -49.0490 N.3   107  ALA107     -0.1231
    169  CA        39.8960    4.4560  -47.9010 C.3   107  ALA107      0.1694
    170  C         40.2600    3.0420  -48.3700 C.2   107  ALA107      0.2591
    171  O         41.2430    2.4820  -47.8880 O.2   107  ALA107     -0.2718
    172  CB        38.5830    4.4420  -47.1440 C.3   107  ALA107      0.0304
    173  N         39.5640    2.5320  -49.3960 N.am  108  MET108     -0.1979
    174  CA        39.8510    1.2420  -49.9630 C.3   108  MET108      0.1605
    175  C         41.2560    1.1210  -50.5280 C.2   108  MET108      0.2287
    176  O         41.9070    0.0860  -50.3180 O.2   108  MET108     -0.2864
    177  CB        38.7930    0.7660  -50.9690 C.3   108  MET108      0.0413
    178  CG        38.8370   -0.7360  -51.2560 C.3   108  MET108      0.0598
    179  SD        38.4140   -1.7350  -49.7710 S.3   108  MET108     -0.1393
    180  CE        36.6470   -1.9310  -49.9470 C.3   108  MET108      0.0692
    181  N         43.9830    0.2950  -47.6800 N.3   111  HIS111     -0.1241
    182  CA        44.0370   -1.1560  -47.5140 C.3   111  HIS111      0.1621
    183  C         44.6270   -1.9380  -48.6750 C.2   111  HIS111      0.2264
    184  O         45.4290   -2.8870  -48.5050 O.2   111  HIS111     -0.2867
    185  CB        42.6220   -1.7230  -47.2700 C.3   111  HIS111      0.0745
    186  CG        42.0690   -1.4840  -45.8960 C.ar  111  HIS111      0.0817
    187  ND1       42.8480   -1.2620  -44.7870 N.ar  111  HIS111     -0.2268
    188  CD2       40.7920   -1.4900  -45.4610 C.ar  111  HIS111      0.1154
    189  CE1       42.0760   -1.1310  -43.7250 C.ar  111  HIS111      0.1986
    190  NE2       40.8210   -1.2790  -44.1010 N.ar  111  HIS111     -0.2212
    191  N         29.3290   -1.9700  -51.5730 N.3   148  MET148     -0.1245
    192  CA        29.1340   -0.7390  -50.8000 C.3   148  MET148      0.1570
    193  C         28.6270    0.4470  -51.6690 C.2   148  MET148      0.2261
    194  O         27.6860    1.1730  -51.2500 O.2   148  MET148     -0.2867
    195  CB        30.3920   -0.3680  -50.0030 C.3   148  MET148      0.0387
    196  CG        30.6880   -1.3530  -48.8600 C.3   148  MET148      0.0595
    197  SD        31.9600   -0.7580  -47.7210 S.3   148  MET148     -0.1393
    198  CE        33.4010   -0.7400  -48.7640 C.3   148  MET148      0.0692
@<TRIPOS>BOND
     1   193   194    2
     2   193   192    1
     3   191   192    1
     4   178   177    1
     5   178   179    1
     6   177   174    1
     7   148   149    1
     8   162   163    2
     9   162   161    1
    10   192   195    1
    11   175   176    2
    12   175   174    1
    13   164   161    1
    14   164   165    1
    15   195   196    1
    16   160   161    1
    17   160   150   am
    18   174   173    1
    19   180   179    1
    20   149   150    1
    21   149   152    1
    22   150   151    2
    23   165   166    1
    24   173   170   am
    25   168   169    1
    26   154   156   ar
    27   154   153   ar
    28   156   158   ar
    29   196   197    1
    30   198   197    1
    31   183   184    2
    32   183   182    1
    33   152   153    1
    34   153   155   ar
    35   170   169    1
    36   170   171    2
    37   158   159    1
    38   158   157   ar
    39   143   142    2
    40   167   166    1
    41   169   172    1
    42   155   157   ar
    43   181   182    1
    44   142   141    1
    45   182   185    1
    46   185   186    1
    47    95    93   ar
    48    95    94   ar
    49    93    91   ar
    50   141   144    1
    51   141   140    1
    52   145   147    1
    53   145   144    1
    54   145   146    1
    55   186   188   ar
    56   186   187   ar
    57    94    92   ar
    58   115   116    1
    59   115   112    1
    60   113   114    2
    61   113   112    1
    62   188   190   ar
    63    91    90   ar
    64    91    89   ar
    65    32    33    1
    66    36    33    1
    67    90    88   ar
    68    98    99    2
    69    98    97    1
    70   187   189   ar
    71   116   117   ar
    72   116   118   ar
    73   112   111    1
    74   121   122    1
    75     9     7   ar
    76     9    11   ar
    77    33    34    1
    78   117   119   ar
    79    92    89   ar
    80    89    87   ar
    81   111   106   am
    82    96    97    1
    83   190   189   ar
    84   102   100    1
    85     7     6   ar
    86   100    97    1
    87   100   101    1
    88   118   120   ar
    89    11    10   ar
    90   119   120   ar
    91   104   105    1
    92    88    87   ar
    93   122   123    1
    94   122   125    1
    95    87    86    1
    96   106   105    1
    97   106   107    2
    98    34    35    2
    99    85    84    2
   100   134   135    2
   101   134   133    1
   102   103   101    1
   103   123   132   am
   104   123   124    2
   105    29    31    1
   106    29    28    1
   107     6     5    1
   108     6     8   ar
   109   132   133    1
   110   105   108    1
   111    24    25    1
   112    10     8   ar
   113   125   126    1
   114    25    28    1
   115    25    26    1
   116     2     5    1
   117     2     1    1
   118     2     3    1
   119   137   139    1
   120   137   136    1
   121     4     3    2
   122    84    83    1
   123    27    26    2
   124   133   136    1
   125    41    38    1
   126    80    81    1
   127    80    79    1
   128    28    30    1
   129    86    83    1
   130   108   110    1
   131   108   109    1
   132     3    12   am
   133   136   138    1
   134    83    82    1
   135   126   127    1
   136    37    38    1
   137    38    39    1
   138    79    78    1
   139    12    13    1
   140    77    76    2
   141   127   128    1
   142   128   129    2
   143    13    14    1
   144    13    16    1
   145    39    40    2
   146    39    42   am
   147    14    15    2
   148   131   129    1
   149   129   130    1
   150    78    75    1
   151    75    76    1
   152    75    74    1
   153    23    22    1
   154    42    43    1
   155    20    18   ar
   156    20    22   ar
   157    18    17   ar
   158    22    21   ar
   159    47    48    1
   160    47    49    1
   161    47    46    1
   162    70    69    2
   163    21    19   ar
   164    17    19   ar
   165    17    16    1
   166    74    69   am
   167    43    46    1
   168    43    44    1
   169    69    68    1
   170    65    64    1
   171    66    64    1
   172    71    72    1
   173    71    68    1
   174    71    73    1
   175    62    61    2
   176    44    45    2
   177    68    67    1
   178    64    63    1
   179    63    60    1
   180    61    60    1
   181    60    59    1
   182    58    56   am
   183    57    56    2
   184    56    55    1
   185    55    54    1
   186    53    52    2
   187    52    51    1
   188    54    51    1
   189    51    50    1
