@<TRIPOS>MOLECULE
tmp/5ohhA04.pdb
 141 137 0 0 0
SMALL
GASTEIGER

@<TRIPOS>ATOM
      1  N          6.7020    5.0080   18.4340 N.3    17  PHE17      -0.1241
      2  CA         6.2630    3.9750   19.3800 C.3    17  PHE17       0.1605
      3  C          7.3160    2.8630   19.3740 C.2    17  PHE17       0.2264
      4  O          7.3190    1.8730   18.6020 O.2    17  PHE17      -0.2867
      5  CB         4.8930    3.4170   18.9360 C.3    17  PHE17       0.0534
      6  CG         3.9160    4.4690   18.6300 C.ar   17  PHE17      -0.0203
      7  CD1        3.0130    4.8610   19.5590 C.ar   17  PHE17      -0.0042
      8  CD2        3.9510    5.1460   17.4000 C.ar   17  PHE17      -0.0042
      9  CE1        2.0910    5.9120   19.3180 C.ar   17  PHE17      -0.0003
     10  CE2        3.0760    6.1850   17.1330 C.ar   17  PHE17      -0.0003
     11  CZ         2.1010    6.5760   18.0990 C.ar   17  PHE17      -0.0000
     12  N        -14.3920    1.9150   11.5530 N.3    64  ASN64      -0.1240
     13  CA       -14.6230    1.2620   12.8550 C.3    64  ASN64       0.1653
     14  C        -16.0750    1.1770   13.1630 C.2    64  ASN64       0.2266
     15  O        -16.8170    2.1990   13.0680 O.2    64  ASN64      -0.2867
     16  CB       -14.0520    2.0330   14.0140 C.3    64  ASN64       0.1155
     17  CG       -12.5690    2.1310   13.9850 C.2    64  ASN64       0.2627
     18  OD1      -11.8560    1.2930   13.4240 O.2    64  ASN64      -0.2716
     19  ND2      -12.0560    3.1250   14.7130 N.am   64  ASN64      -0.0877
     20  N        -18.4330    0.5430   16.1500 N.3    66  ASP66      -0.1239
     21  CA       -18.3320    0.6110   17.5960 C.3    66  ASP66       0.1674
     22  C        -19.5910   -0.0720   18.1270 C.2    66  ASP66       0.2266
     23  O        -20.7340    0.2270   17.6980 O.2    66  ASP66      -0.2867
     24  CB       -18.3810    2.0570   18.0830 C.3    66  ASP66       0.1410
     25  CG       -17.0830    2.8050   17.8360 C.2    66  ASP66       0.3668
     26  OD1      -16.0380    2.1440   17.6510 O.co2  66  ASP66      -0.2456
     27  OD2      -17.1070    4.0530   17.8300 O.co2  66  ASP66      -0.2456
     28  N        -16.0630   -4.9980   21.5820 N.3    88  ARG88      -0.1231
     29  CA       -15.9670   -3.5500   21.5060 C.3    88  ARG88       0.1694
     30  C        -16.0100   -2.9610   20.1070 C.2    88  ARG88       0.2591
     31  O        -16.6600   -1.9320   19.9250 O.2    88  ARG88      -0.2718
     32  CB       -14.6830   -3.1450   22.1930 C.3    88  ARG88       0.0321
     33  CG       -14.2300   -1.7010   22.0630 C.3    88  ARG88       0.0489
     34  CD       -14.4740   -0.9650   23.2690 C.3    88  ARG88       0.2205
     35  NE       -13.9720    0.3980   23.2040 N.pl3  88  ARG88      -0.0865
     36  CZ       -14.2940    1.3280   24.0910 C.cat  88  ARG88       0.5346
     37  NH1      -15.1120    1.0210   25.0880 N.pl3  88  ARG88       0.1354
     38  NH2      -13.8070    2.5560   23.9870 N.pl3  88  ARG88       0.1354
     39  N        -15.3040   -3.5220   19.1350 N.am   89  GLN89      -0.1979
     40  CA       -15.0690   -2.8040   17.8910 C.3    89  GLN89       0.1601
     41  C        -14.7260   -3.8200   16.8210 C.2    89  GLN89       0.2287
     42  O        -14.0720   -4.8300   17.0930 O.2    89  GLN89      -0.2864
     43  CB       -13.8920   -1.8080   18.0910 C.3    89  GLN89       0.0394
     44  CG       -13.6310   -0.7990   16.9680 C.3    89  GLN89       0.0908
     45  CD       -12.3990   -1.1620   16.2640 C.2    89  GLN89       0.2608
     46  OE1      -12.2100   -2.3220   15.9490 O.2    89  GLN89      -0.2717
     47  NE2      -11.5750   -0.2340   16.0090 N.am   89  GLN89      -0.0878
     48  N        -13.0250   -3.6920   12.6870 N.3    91  HIS91      -0.1241
     49  CA       -12.4470   -2.8870   11.6090 C.3    91  HIS91       0.1621
     50  C        -11.8010   -3.8640   10.6310 C.2    91  HIS91       0.2264
     51  O        -11.9000   -5.0610   10.8110 O.2    91  HIS91      -0.2867
     52  CB       -11.4460   -1.8720   12.1720 C.3    91  HIS91       0.0745
     53  CG       -10.2880   -2.5400   12.8160 C.ar   91  HIS91       0.0817
     54  ND1      -10.2700   -2.8140   14.1720 N.ar   91  HIS91      -0.2268
     55  CD2       -9.1020   -3.0030   12.3220 C.ar   91  HIS91       0.1154
     56  CE1       -9.1100   -3.3930   14.4790 C.ar   91  HIS91       0.1986
     57  NE2       -8.3670   -3.5160   13.3580 N.ar   91  HIS91      -0.2212
     58  N        -12.4760   -6.9280   18.0260 N.3   118  VAL118     -0.1245
     59  CA       -11.7250   -6.6000   19.2190 C.3   118  VAL118      0.1561
     60  C        -12.6330   -6.7340   20.4770 C.2   118  VAL118      0.2260
     61  O        -13.7320   -6.1910   20.5040 O.2   118  VAL118     -0.2867
     62  CB       -11.1620   -5.1440   19.1650 C.3   118  VAL118      0.0252
     63  CG1      -10.4140   -4.7960   20.4030 C.3   118  VAL118      0.0019
     64  CG2      -10.3090   -4.9000   17.8940 C.3   118  VAL118      0.0019
     65  N        -12.3170   -1.1850   28.8930 N.3   128  PHE128     -0.1227
     66  CA       -11.4130   -1.4310   27.7740 C.3   128  PHE128      0.1736
     67  C        -10.0570   -0.7190   27.9620 C.2   128  PHE128      0.2595
     68  O         -9.0600   -1.3010   27.7530 O.2   128  PHE128     -0.2718
     69  CB       -12.0900   -0.8890   26.5330 C.3   128  PHE128      0.0547
     70  CG       -11.1690   -0.9310   25.2850 C.ar  128  PHE128     -0.0202
     71  CD1      -10.8190   -2.1320   24.6680 C.ar  128  PHE128     -0.0042
     72  CD2      -10.5660    0.2610   24.8250 C.ar  128  PHE128     -0.0042
     73  CE1       -9.9780   -2.1310   23.5200 C.ar  128  PHE128     -0.0003
     74  CE2       -9.6940    0.2640   23.7460 C.ar  128  PHE128     -0.0003
     75  CZ        -9.3900   -0.9240   23.1200 C.ar  128  PHE128     -0.0000
     76  N        -10.0660    0.5420   28.4340 N.am  129  VAL129     -0.1980
     77  CA        -8.8220    1.2630   28.5980 C.3   129  VAL129      0.1595
     78  C         -7.8350    0.5430   29.5380 C.2   129  VAL129      0.2287
     79  O         -6.6450    0.3810   29.2670 O.2   129  VAL129     -0.2864
     80  CB        -9.3390    2.6650   29.0640 C.3   129  VAL129      0.0276
     81  CG1       -8.4820    3.2900   30.1590 C.3   129  VAL129      0.0022
     82  CG2       -9.5940    3.5260   27.8100 C.3   129  VAL129      0.0022
     83  N         -6.5540   -2.7450   27.9430 N.3   132  ALA132     -0.1231
     84  CA        -5.7340   -2.6530   26.7110 C.3   132  ALA132      0.1694
     85  C         -4.2250   -2.5760   27.0620 C.2   132  ALA132      0.2588
     86  O         -3.3980   -2.8130   26.1820 O.2   132  ALA132     -0.2718
     87  CB        -6.1490   -1.4410   25.9620 C.3   132  ALA132      0.0304
     88  N         -3.8550   -2.3700   28.3200 N.am  133  HIS133     -0.2029
     89  CA        -2.4570   -2.3460   28.7070 C.3   133  HIS133      0.1342
     90  C         -2.0310   -3.5350   29.4960 C.3   133  HIS133      0.2040
     91  O         -1.0150   -3.4820   30.2900 O.3   133  HIS133     -0.2185
     92  CB        -2.3610   -1.1200   29.6580 C.3   133  HIS133      0.0718
     93  CG        -2.4070    0.1790   28.9100 C.ar  133  HIS133      0.0817
     94  ND1       -1.2880    0.6660   28.3420 N.ar  133  HIS133     -0.2268
     95  CD2       -3.4630    1.0600   28.5510 C.ar  133  HIS133      0.1154
     96  CE1       -1.5830    1.8350   27.6770 C.ar  133  HIS133      0.1986
     97  NE2       -2.8890    2.0880   27.8350 N.ar  133  HIS133     -0.2212
     98  N         -1.6240   -5.0590   19.4030 N.3   195  LEU195     -0.1231
     99  CA        -2.3410   -4.2520   18.4510 C.3   195  LEU195      0.1693
    100  C         -1.4550   -4.1490   17.1670 C.2   195  LEU195      0.2593
    101  O         -0.2220   -4.0970   17.2510 O.2   195  LEU195     -0.2718
    102  CB        -2.5520   -2.7910   18.9220 C.3   195  LEU195      0.0284
    103  CG        -3.2680   -2.7050   20.2840 C.3   195  LEU195      0.0019
    104  CD1       -3.3780   -1.2090   20.7010 C.3   195  LEU195      0.0001
    105  CD2       -4.5870   -3.3910   20.3850 C.3   195  LEU195      0.0001
    106  N         -2.1120   -4.0200   15.9980 N.am  196  THR196     -0.1939
    107  CA        -1.2890   -3.8970   14.7510 C.3   196  THR196      0.2028
    108  C         -1.2730   -2.4750   14.2680 C.2   196  THR196      0.2642
    109  O         -0.7560   -2.1970   13.1720 O.2   196  THR196     -0.2714
    110  CB        -1.7430   -4.8590   13.6310 C.3   196  THR196      0.1808
    111  OG1       -3.0250   -4.4450   13.1140 O.3   196  THR196     -0.2208
    112  CG2       -1.7700   -6.3000   14.0760 C.3   196  THR196      0.0379
    113  N         -1.7720   -1.5310   15.1010 N.am  197  VAL197     -0.1963
    114  CA        -1.6180   -0.0970   14.8910 C.3   197  VAL197      0.1712
    115  C         -1.0370    0.5120   16.1250 C.2   197  VAL197      0.2458
    116  O         -1.2260    0.0220   17.2210 O.2   197  VAL197     -0.2730
    117  CB        -2.9200    0.6220   14.5500 C.3   197  VAL197      0.0289
    118  CG1       -3.4300    0.1830   13.1730 C.3   197  VAL197      0.0023
    119  CG2       -4.0080    0.3350   15.6110 C.3   197  VAL197      0.0023
    120  N         -0.3440    1.6380   15.9980 N.am  198  PRO198     -0.2716
    121  CA        -0.0270    2.4190   17.2390 C.3   198  PRO198      0.1521
    122  C         -1.2780    2.6090   18.0920 C.2   198  PRO198      0.2440
    123  O         -2.3640    2.8800   17.6390 O.2   198  PRO198     -0.2731
    124  CB         0.4260    3.7740   16.6400 C.3   198  PRO198      0.0310
    125  CG         1.0460    3.3680   15.3110 C.3   198  PRO198      0.0237
    126  CD         0.1250    2.3130   14.7210 C.3   198  PRO198      0.0939
    127  N         -1.1270    2.3900   19.4480 N.am  199  PRO199     -0.2727
    128  CA         0.1540    2.2740   20.1650 C.3   199  PRO199      0.1402
    129  C          0.8520    0.9330   20.3210 C.2   199  PRO199      0.2269
    130  O          1.8440    0.7280   21.0250 O.2   199  PRO199     -0.2865
    131  CB        -0.2400    2.7640   21.5850 C.3   199  PRO199      0.0296
    132  CG        -1.6900    2.3150   21.6930 C.3   199  PRO199      0.0237
    133  CD        -2.2930    2.5970   20.3200 C.3   199  PRO199      0.0939
    134  N          0.3000   -1.9390   21.5340 N.3   201  LEU201     -0.1245
    135  CA         0.3910   -2.5370   22.8790 C.3   201  LEU201      0.1561
    136  C          0.3830   -4.0640   22.8240 C.2   201  LEU201      0.2260
    137  O         -0.4410   -4.6640   22.0620 O.2   201  LEU201     -0.2867
    138  CB        -0.7400   -2.0750   23.7650 C.3   201  LEU201      0.0270
    139  CG        -0.7500   -0.5520   24.0010 C.3   201  LEU201      0.0019
    140  CD1       -2.0120   -0.0950   24.7070 C.3   201  LEU201      0.0001
    141  CD2        0.5640   -0.1130   24.7070 C.3   201  LEU201      0.0001
@<TRIPOS>BOND
     1    50    51    2
     2    50    49    1
     3    12    13    1
     4    49    52    1
     5    49    48    1
     6    52    53    1
     7    55    53   ar
     8    55    57   ar
     9    53    54   ar
    10    13    14    1
    11    13    16    1
    12    15    14    2
    13   111   110    1
    14   109   108    2
    15   118   117    1
    16    57    56   ar
    17    18    17    2
    18   110   112    1
    19   110   107    1
    20    17    16    1
    21    17    19   am
    22    54    56   ar
    23   108   107    1
    24   108   113   am
    25   117   114    1
    26   117   119    1
    27   126   125    1
    28   126   120    1
    29   107   106    1
    30   114   113    1
    31   114   115    1
    32   125   124    1
    33    46    45    2
    34   106   100   am
    35   120   115   am
    36   120   121    1
    37    47    45   am
    38   115   116    2
    39    20    21    1
    40    45    44    1
    41   124   121    1
    42    41    42    2
    43    41    40    1
    44    44    43    1
    45    10     8   ar
    46    10    11   ar
    47   100   101    2
    48   100    99    1
    49   121   122    1
    50     8     6   ar
    51    21    24    1
    52    21    22    1
    53   123   122    2
    54    26    25   ar
    55    23    22    2
    56    27    25   ar
    57    25    24    1
    58    40    43    1
    59    40    39    1
    60    64    62    1
    61    58    59    1
    62   122   127   am
    63    11     9   ar
    64     1     2    1
    65    99   102    1
    66    99    98    1
    67     4     3    2
    68     6     5    1
    69     6     7   ar
    70   102   103    1
    71     5     2    1
    72    39    30   am
    73    62    59    1
    74    62    63    1
    75    59    60    1
    76     9     7   ar
    77     3     2    1
    78   127   128    1
    79   127   133    1
    80    31    30    2
    81    30    29    1
    82   128   129    1
    83   128   131    1
    84   103   105    1
    85   103   104    1
    86   133   132    1
    87   129   130    2
    88    60    61    2
    89    29    28    1
    90    29    32    1
    91   134   135    1
    92   131   132    1
    93   137   136    2
    94    33    32    1
    95    33    34    1
    96   136   135    1
    97   135   138    1
    98    75    73   ar
    99    75    74   ar
   100    35    34    1
   101    35    36    2
   102    73    71   ar
   103    74    72   ar
   104   138   139    1
   105    38    36    1
   106   139   141    1
   107   139   140    1
   108    36    37    1
   109    71    70   ar
   110    72    70   ar
   111    70    69    1
   112    87    84    1
   113    86    85    2
   114    69    66    1
   115    84    85    1
   116    84    83    1
   117    85    88   am
   118    96    97   ar
   119    96    94   ar
   120    68    67    2
   121    66    67    1
   122    66    65    1
   123    82    80    1
   124    97    95   ar
   125    67    76   am
   126    88    89    1
   127    94    93   ar
   128    76    77    1
   129    95    93   ar
   130    77    80    1
   131    77    78    1
   132    89    90    1
   133    89    92    1
   134    93    92    1
   135    80    81    1
   136    79    78    2
   137    90    91    1
