@<TRIPOS>MOLECULE
tmp/5ohiA07.pdb
 268 263 0 0 0
SMALL
GASTEIGER

@<TRIPOS>ATOM
      1  N          2.7910  -29.9010   47.9940 N.3   117  ILE117     -0.1245
      2  CA         4.1920  -29.7240   47.6240 C.3   117  ILE117      0.1561
      3  C          5.0010  -29.9960   48.8900 C.2   117  ILE117      0.2260
      4  O          4.8660  -29.2760   49.8790 O.2   117  ILE117     -0.2867
      5  CB         4.5010  -28.3250   47.0160 C.3   117  ILE117      0.0252
      6  CG1        3.5730  -28.0260   45.8030 C.3   117  ILE117      0.0019
      7  CG2        6.0060  -28.2410   46.6180 C.3   117  ILE117      0.0019
      8  CD1        3.2080  -26.5690   45.6130 C.3   117  ILE117      0.0001
      9  N          8.4940  -29.9520   50.1240 N.3   119  SER119     -0.1217
     10  CA         9.8330  -29.4650   49.7790 C.3   119  SER119      0.1889
     11  C         10.8740  -29.8220   50.8370 C.2   119  SER119      0.2288
     12  O         10.6240  -29.6890   52.0360 O.2   119  SER119     -0.2866
     13  CB         9.8160  -27.9710   49.4520 C.3   119  SER119      0.2089
     14  OG         9.4650  -27.1880   50.5790 O.3   119  SER119     -0.2183
     15  N         14.9300  -29.3260   51.8810 N.3   121  ASP121     -0.1239
     16  CA        16.1150  -28.4980   51.6930 C.3   121  ASP121      0.1674
     17  C         17.3820  -29.3270   51.5840 C.2   121  ASP121      0.2266
     18  O         17.5940  -30.2270   52.4020 O.2   121  ASP121     -0.2867
     19  CB        16.2270  -27.4780   52.8430 C.3   121  ASP121      0.1410
     20  CG        16.9220  -26.1960   52.4320 C.2   121  ASP121      0.3668
     21  OD1       17.9160  -26.2730   51.6950 O.co2 121  ASP121     -0.2456
     22  OD2       16.3970  -25.1200   52.7430 O.co2 121  ASP121     -0.2456
     23  N         21.3970  -21.9380   45.7580 N.3   158  LYS158     -0.1231
     24  CA        21.0750  -21.4820   47.0930 C.3   158  LYS158      0.1693
     25  C         19.5780  -21.6310   47.3380 C.2   158  LYS158      0.2593
     26  O         18.7840  -21.7100   46.4020 O.2   158  LYS158     -0.2718
     27  CB        21.5200  -20.0200   47.2670 C.3   158  LYS158      0.0285
     28  CG        23.0320  -19.8210   47.1990 C.3   158  LYS158      0.0035
     29  CD        23.7260  -20.2930   48.4470 C.3   158  LYS158      0.0206
     30  CE        25.1380  -19.7740   48.4950 C.3   158  LYS158      0.1093
     31  NZ        25.7420  -19.9870   49.8190 N.3   158  LYS158     -0.1314
     32  N         19.2090  -21.6550   48.6150 N.am  159  THR159     -0.1939
     33  CA        17.8520  -21.8650   49.0970 C.3   159  THR159      0.2028
     34  C         16.7660  -20.9810   48.4910 C.2   159  THR159      0.2642
     35  O         15.8710  -21.4990   47.8190 O.2   159  THR159     -0.2714
     36  CB        17.8670  -21.6880   50.6240 C.3   159  THR159      0.1808
     37  OG1       19.0560  -22.2700   51.1540 O.3   159  THR159     -0.2208
     38  CG2       16.6190  -22.2370   51.2920 C.3   159  THR159      0.0379
     39  N         16.8020  -19.6690   48.8030 N.am  160  PHE160     -0.1973
     40  CA        15.7790  -18.6870   48.4390 C.3   160  PHE160      0.1639
     41  C         15.6860  -18.4890   46.9320 C.2   160  PHE160      0.2290
     42  O         14.5640  -18.5420   46.4160 O.2   160  PHE160     -0.2864
     43  CB        15.9560  -17.3710   49.2090 C.3   160  PHE160      0.0560
     44  CG        15.3600  -17.4120   50.5950 C.ar  160  PHE160     -0.0200
     45  CD1       15.7930  -18.3480   51.5310 C.ar  160  PHE160     -0.0042
     46  CD2       14.3820  -16.4960   50.9740 C.ar  160  PHE160     -0.0042
     47  CE1       15.2280  -18.3960   52.8140 C.ar  160  PHE160     -0.0003
     48  CE2       13.8310  -16.5280   52.2650 C.ar  160  PHE160     -0.0003
     49  CZ        14.2600  -17.4760   53.1770 C.ar  160  PHE160     -0.0000
     50  N         13.8350  -21.8740   45.8820 N.3   163  LEU163     -0.1231
     51  CA        12.4600  -22.0230   46.3480 C.3   163  LEU163      0.1693
     52  C         11.5540  -21.0350   45.6270 C.2   163  LEU163      0.2592
     53  O         10.4560  -21.4020   45.2480 O.2   163  LEU163     -0.2718
     54  CB        12.3640  -21.8330   47.8730 C.3   163  LEU163      0.0284
     55  CG        13.0260  -22.9280   48.7280 C.3   163  LEU163      0.0019
     56  CD1       12.9830  -22.5430   50.2050 C.3   163  LEU163      0.0001
     57  CD2       12.3600  -24.3070   48.4990 C.3   163  LEU163      0.0001
     58  N         12.0290  -19.8010   45.4040 N.am  164  TYR164     -0.1976
     59  CA        11.2150  -18.8040   44.7310 C.3   164  TYR164      0.1639
     60  C         11.0910  -19.0860   43.2340 C.2   164  TYR164      0.2290
     61  O         10.0230  -18.8320   42.6840 O.2   164  TYR164     -0.2864
     62  CB        11.6620  -17.3750   45.0400 C.3   164  TYR164      0.0560
     63  CG        10.5500  -16.3610   44.8470 C.ar  164  TYR164     -0.0198
     64  CD1        9.2970  -16.5440   45.4370 C.ar  164  TYR164     -0.0009
     65  CD2       10.7540  -15.2100   44.0930 C.ar  164  TYR164     -0.0009
     66  CE1        8.2720  -15.6090   45.2710 C.ar  164  TYR164      0.0417
     67  CE2        9.7450  -14.2580   43.9350 C.ar  164  TYR164      0.0417
     68  CZ         8.5000  -14.4650   44.5180 C.ar  164  TYR164      0.1957
     69  OH         7.4880  -13.5440   44.3310 O.3   164  TYR164     -0.2866
     70  N         11.0240  -22.2240   42.0640 N.3   166  LEU166     -0.1231
     71  CA        10.0170  -23.2930   42.0760 C.3   166  LEU166      0.1693
     72  C          8.6000  -22.7250   42.0830 C.2   166  LEU166      0.2591
     73  O          7.7490  -23.1930   41.3250 O.2   166  LEU166     -0.2718
     74  CB        10.2040  -24.2450   43.2810 C.3   166  LEU166      0.0284
     75  CG        11.2580  -25.3280   43.0910 C.3   166  LEU166      0.0019
     76  CD1       11.6610  -25.9320   44.4310 C.3   166  LEU166      0.0001
     77  CD2       10.7860  -26.4120   42.1070 C.3   166  LEU166      0.0001
     78  N          8.3740  -21.6680   42.8900 N.am  167  ALA167     -0.1980
     79  CA         7.0750  -21.0120   43.0500 C.3   167  ALA167      0.1597
     80  C          6.6220  -20.1360   41.8670 C.2   167  ALA167      0.2287
     81  O          5.4260  -19.8680   41.7320 O.2   167  ALA167     -0.2864
     82  CB         7.0900  -20.1720   44.3260 C.3   167  ALA167      0.0319
     83  N         20.7840  -15.5860   48.6820 N.3   180  ASN180     -0.1240
     84  CA        20.2560  -15.6480   50.0630 C.3   180  ASN180      0.1653
     85  C         20.5170  -14.2790   50.7090 C.2   180  ASN180      0.2266
     86  O         19.8310  -13.8550   51.6400 O.2   180  ASN180     -0.2867
     87  CB        20.9330  -16.7650   50.8490 C.3   180  ASN180      0.1155
     88  CG        20.3370  -18.1290   50.5860 C.2   180  ASN180      0.2627
     89  OD1       19.2790  -18.2760   49.9700 O.2   180  ASN180     -0.2716
     90  ND2       20.9550  -19.1490   51.1400 N.am  180  ASN180     -0.0877
     91  N         18.8650  -13.2860   55.1760 N.3   193  LEU193     -0.1231
     92  CA        17.9930  -14.3890   55.5750 C.3   193  LEU193      0.1693
     93  C         17.5400  -14.3030   57.0180 C.2   193  LEU193      0.2591
     94  O         16.4800  -14.8390   57.3460 O.2   193  LEU193     -0.2718
     95  CB        18.6130  -15.7490   55.2700 C.3   193  LEU193      0.0284
     96  CG        18.6180  -16.1580   53.8040 C.3   193  LEU193      0.0019
     97  CD1       18.6450  -17.6430   53.6840 C.3   193  LEU193      0.0001
     98  CD2       17.4150  -15.5900   53.0430 C.3   193  LEU193      0.0001
     99  N         18.3170  -13.6110   57.8740 N.am  194  ARG194     -0.1980
    100  CA        17.9320  -13.4370   59.2650 C.3   194  ARG194      0.1597
    101  C         17.7620  -11.9540   59.6080 C.2   194  ARG194      0.2287
    102  O         18.4950  -11.3800   60.4210 O.2   194  ARG194     -0.2864
    103  CB        18.8440  -14.2150   60.2330 C.3   194  ARG194      0.0334
    104  CG        18.2840  -15.6160   60.5330 C.3   194  ARG194      0.0492
    105  CD        16.7660  -15.5590   60.6800 C.3   194  ARG194      0.2205
    106  NE        16.1270  -16.8480   60.9290 N.pl3 194  ARG194     -0.0865
    107  CZ        14.8100  -17.0350   60.9130 C.cat 194  ARG194      0.5346
    108  NH1       14.3010  -18.2330   61.1630 N.pl3 194  ARG194      0.1354
    109  NH2       13.9910  -16.0250   60.6370 N.pl3 194  ARG194      0.1354
    110  N         10.3850   -9.2240   46.2670 N.3   204  TRP204     -0.1241
    111  CA         9.7500  -10.3590   45.6250 C.3   204  TRP204      0.1605
    112  C          8.9740  -10.0260   44.3500 C.2   204  TRP204      0.2264
    113  O          7.8510   -9.5310   44.4160 O.2   204  TRP204     -0.2867
    114  CB         8.8640  -11.0880   46.6550 C.3   204  TRP204      0.0550
    115  CG         9.5800  -11.3980   47.9390 C.ar  204  TRP204      0.0003
    116  CD1        9.7670  -10.5560   48.9960 C.ar  204  TRP204      0.0946
    117  CD2       10.2300  -12.6270   48.2840 C.ar  204  TRP204      0.0152
    118  NE1       10.4860  -11.1900   49.9820 N.ar  204  TRP204     -0.2442
    119  CE2       10.7870  -12.4610   49.5720 C.ar  204  TRP204      0.0810
    120  CE3       10.3470  -13.8790   47.6540 C.ar  204  TRP204      0.0012
    121  CZ2       11.4740  -13.4870   50.2310 C.ar  204  TRP204      0.0191
    122  CZ3       11.0360  -14.8980   48.3040 C.ar  204  TRP204      0.0001
    123  CH2       11.5760  -14.7040   49.5850 C.ar  204  TRP204      0.0015
    124  N          0.9430  -19.3510   45.0300 N.3   210  TRP210     -0.1241
    125  CA        -0.1390  -19.0000   45.9600 C.3   210  TRP210      0.1605
    126  C         -0.8920  -17.7230   45.5340 C.2   210  TRP210      0.2264
    127  O         -2.0890  -17.6350   45.7860 O.2   210  TRP210     -0.2867
    128  CB         0.3570  -18.9250   47.4210 C.3   210  TRP210      0.0550
    129  CG         1.4240  -17.8930   47.6610 C.ar  210  TRP210      0.0003
    130  CD1        1.2380  -16.5930   48.0160 C.ar  210  TRP210      0.0946
    131  CD2        2.8440  -18.0880   47.5730 C.ar  210  TRP210      0.0152
    132  NE1        2.4540  -15.9610   48.1520 N.ar  210  TRP210     -0.2442
    133  CE2        3.4570  -16.8570   47.9000 C.ar  210  TRP210      0.0810
    134  CE3        3.6580  -19.1870   47.2610 C.ar  210  TRP210      0.0012
    135  CZ2        4.8530  -16.6980   47.9530 C.ar  210  TRP210      0.0191
    136  CZ3        5.0430  -19.0340   47.3160 C.ar  210  TRP210      0.0001
    137  CH2        5.6260  -17.7980   47.6490 C.ar  210  TRP210      0.0015
    138  N          2.8450  -21.1540   52.5210 N.3   223  PHE223     -0.1227
    139  CA         4.0750  -21.5370   51.8310 C.3   223  PHE223      0.1736
    140  C          5.2630  -21.1300   52.6910 C.2   223  PHE223      0.2595
    141  O          6.4090  -21.2990   52.2830 O.2   223  PHE223     -0.2718
    142  CB         4.1520  -20.9350   50.4330 C.3   223  PHE223      0.0547
    143  CG         3.5030  -21.8030   49.3790 C.ar  223  PHE223     -0.0202
    144  CD1        2.1170  -21.9240   49.3110 C.ar  223  PHE223     -0.0042
    145  CD2        4.2740  -22.4720   48.4330 C.ar  223  PHE223     -0.0042
    146  CE1        1.5160  -22.7050   48.3160 C.ar  223  PHE223     -0.0003
    147  CE2        3.6720  -23.2480   47.4390 C.ar  223  PHE223     -0.0003
    148  CZ         2.2980  -23.3590   47.3900 C.ar  223  PHE223     -0.0000
    149  N          4.9830  -20.5980   53.8900 N.am  224  PHE224     -0.1962
    150  CA         6.0210  -20.2300   54.8440 C.3   224  PHE224      0.1771
    151  C          5.6880  -20.9090   56.1520 C.2   224  PHE224      0.2619
    152  O          4.5500  -20.8280   56.6260 O.2   224  PHE224     -0.2715
    153  CB         6.1420  -18.6970   55.0330 C.3   224  PHE224      0.0574
    154  CG         7.3070  -18.2960   55.9250 C.ar  224  PHE224     -0.0200
    155  CD1        7.1720  -18.2750   57.3120 C.ar  224  PHE224     -0.0042
    156  CD2        8.5420  -17.9640   55.3780 C.ar  224  PHE224     -0.0042
    157  CE1        8.2570  -17.9450   58.1350 C.ar  224  PHE224     -0.0003
    158  CE2        9.6220  -17.6220   56.2020 C.ar  224  PHE224     -0.0003
    159  CZ         9.4720  -17.6180   57.5730 C.ar  224  PHE224     -0.0000
    160  N          6.6640  -21.5960   56.7280 N.am  225  TRP225     -0.1974
    161  CA         6.4680  -22.2370   58.0190 C.3   225  TRP225      0.1640
    162  C          7.4720  -21.6510   58.9800 C.2   225  TRP225      0.2290
    163  O          8.6460  -21.5360   58.6250 O.2   225  TRP225     -0.2864
    164  CB         6.6360  -23.7600   57.9270 C.3   225  TRP225      0.0576
    165  CG         5.5010  -24.4490   57.2350 C.ar  225  TRP225      0.0006
    166  CD1        5.4870  -24.9050   55.9510 C.ar  225  TRP225      0.0946
    167  CD2        4.2050  -24.7410   57.7830 C.ar  225  TRP225      0.0152
    168  NE1        4.2720  -25.4890   55.6710 N.ar  225  TRP225     -0.2442
    169  CE2        3.4700  -25.4130   56.7800 C.ar  225  TRP225      0.0810
    170  CE3        3.5880  -24.5010   59.0240 C.ar  225  TRP225      0.0012
    171  CZ2        2.1590  -25.8640   56.9850 C.ar  225  TRP225      0.0191
    172  CZ3        2.2870  -24.9390   59.2230 C.ar  225  TRP225      0.0001
    173  CH2        1.5780  -25.5910   58.2050 C.ar  225  TRP225      0.0015
    174  N         10.0920  -21.5010   61.9520 N.3   227  VAL227     -0.1245
    175  CA        11.1150  -22.4320   62.4570 C.3   227  VAL227      0.1561
    176  C         10.6680  -23.0950   63.7540 C.2   227  VAL227      0.2260
    177  O         10.9030  -24.2880   63.9380 O.2   227  VAL227     -0.2867
    178  CB        12.5380  -21.8120   62.6080 C.3   227  VAL227      0.0252
    179  CG1       13.1920  -21.5740   61.2550 C.3   227  VAL227      0.0019
    180  CG2       12.5330  -20.5340   63.4580 C.3   227  VAL227      0.0019
    181  N          1.7430  -26.6000   51.0000 N.3   254  ALA254     -0.1231
    182  CA         3.1870  -26.7580   50.9940 C.3   254  ALA254      0.1694
    183  C          3.6670  -27.1710   52.3680 C.2   254  ALA254      0.2592
    184  O          3.2160  -26.6270   53.3860 O.2   254  ALA254     -0.2718
    185  CB         3.8740  -25.4700   50.5750 C.3   254  ALA254      0.0304
    186  N          4.5660  -28.1640   52.3840 N.am  255  PHE255     -0.1962
    187  CA         5.2970  -28.6190   53.5520 C.3   255  PHE255      0.1771
    188  C          6.7490  -28.2760   53.2450 C.2   255  PHE255      0.2619
    189  O          7.1660  -28.3400   52.0880 O.2   255  PHE255     -0.2715
    190  CB         5.1580  -30.1410   53.8140 C.3   255  PHE255      0.0574
    191  CG         6.0820  -30.6140   54.9280 C.ar  255  PHE255     -0.0200
    192  CD1        5.7250  -30.4600   56.2650 C.ar  255  PHE255     -0.0042
    193  CD2        7.3530  -31.1060   54.6400 C.ar  255  PHE255     -0.0042
    194  CE1        6.6020  -30.8400   57.2910 C.ar  255  PHE255     -0.0003
    195  CE2        8.2460  -31.4420   55.6650 C.ar  255  PHE255     -0.0003
    196  CZ         7.8590  -31.3280   56.9800 C.ar  255  PHE255     -0.0000
    197  N          7.5200  -27.9310   54.2720 N.am  256  TYR256     -0.1974
    198  CA         8.9400  -27.6640   54.0880 C.3   256  TYR256      0.1639
    199  C          9.7300  -28.3000   55.2270 C.2   256  TYR256      0.2290
    200  O          9.2790  -28.3180   56.3790 O.2   256  TYR256     -0.2864
    201  CB         9.1880  -26.1450   54.0140 C.3   256  TYR256      0.0560
    202  CG        10.6320  -25.7230   54.1750 C.ar  256  TYR256     -0.0198
    203  CD1       11.5120  -25.7370   53.0920 C.ar  256  TYR256     -0.0009
    204  CD2       11.1170  -25.2870   55.4040 C.ar  256  TYR256     -0.0009
    205  CE1       12.8440  -25.3430   53.2340 C.ar  256  TYR256      0.0417
    206  CE2       12.4440  -24.8890   55.5580 C.ar  256  TYR256      0.0417
    207  CZ        13.3060  -24.9250   54.4720 C.ar  256  TYR256      0.1957
    208  OH        14.6090  -24.5130   54.6250 O.3   256  TYR256     -0.2866
    209  N         13.8100  -28.2990   56.7500 N.3   258  GLU258     -0.1245
    210  CA        15.1350  -27.6770   56.7990 C.3   258  GLU258      0.1567
    211  C         16.2080  -28.7720   56.6220 C.2   258  GLU258      0.2260
    212  O         17.3860  -28.4670   56.4280 O.2   258  GLU258     -0.2867
    213  CB        15.3280  -26.9290   58.1430 C.3   258  GLU258      0.0388
    214  CG        14.3460  -25.7850   58.4090 C.3   258  GLU258      0.1160
    215  CD        12.9350  -26.1400   58.8680 C.2   258  GLU258      0.3649
    216  OE1       12.6630  -27.3370   59.1070 O.co2 258  GLU258     -0.2457
    217  OE2       12.0980  -25.2160   58.9910 O.co2 258  GLU258     -0.2457
    218  N         19.4190  -30.5580   54.5190 N.3   261  ASP261     -0.1239
    219  CA        20.3720  -29.4440   54.3860 C.3   261  ASP261      0.1674
    220  C         21.2000  -29.1850   55.6410 C.2   261  ASP261      0.2266
    221  O         22.4340  -29.1400   55.5630 O.2   261  ASP261     -0.2867
    222  CB        19.6540  -28.1490   53.9790 C.3   261  ASP261      0.1410
    223  CG        20.5820  -26.9780   53.7340 C.2   261  ASP261      0.3668
    224  OD1       21.1570  -26.9000   52.6310 O.co2 261  ASP261     -0.2456
    225  OD2       20.6950  -26.1180   54.6270 O.co2 261  ASP261     -0.2456
    226  N         25.2620  -29.5860   55.8230 N.3   265  HIS265     -0.1241
    227  CA        26.2640  -28.5460   56.1040 C.3   265  HIS265      0.1621
    228  C         27.2540  -28.9880   57.1850 C.2   265  HIS265      0.2264
    229  O         28.4630  -28.7620   57.0540 O.2   265  HIS265     -0.2867
    230  CB        25.5890  -27.2240   56.5220 C.3   265  HIS265      0.0745
    231  CG        25.0280  -26.4510   55.3740 C.ar  265  HIS265      0.0817
    232  ND1       25.8500  -25.8060   54.4610 N.ar  265  HIS265     -0.2268
    233  CD2       23.7380  -26.2270   55.0370 C.ar  265  HIS265      0.1154
    234  CE1       25.0290  -25.2280   53.5930 C.ar  265  HIS265      0.1986
    235  NE2       23.7510  -25.4430   53.9080 N.ar  265  HIS265     -0.2212
    236  N          9.9200  -32.6100   46.2600 N.3   306  VAL306     -0.1245
    237  CA        10.9050  -31.8320   45.5120 C.3   306  VAL306      0.1561
    238  C         11.9620  -31.1550   46.3900 C.2   306  VAL306      0.2260
    239  O         11.6500  -30.7120   47.4910 O.2   306  VAL306     -0.2867
    240  CB        10.1120  -30.8100   44.6340 C.3   306  VAL306      0.0252
    241  CG1        9.4230  -29.7170   45.4680 C.3   306  VAL306      0.0019
    242  CG2       10.9590  -30.2160   43.5310 C.3   306  VAL306      0.0019
    243  N         28.4660  -27.8260   51.6720 N.3   415  ASP415     -0.1225
    244  CA        27.9290  -26.5740   51.1510 C.3   415  ASP415      0.1805
    245  C         27.3710  -26.7360   49.7290 C.2   415  ASP415      0.2597
    246  O         27.5640  -27.7670   49.0780 O.2   415  ASP415     -0.2718
    247  CB        28.9010  -25.3770   51.2710 C.3   415  ASP415      0.1424
    248  CG        28.2010  -24.0330   51.5220 C.2   415  ASP415      0.3668
    249  OD1       26.9280  -23.9920   51.5030 O.co2 415  ASP415     -0.2456
    250  OD2       28.9050  -23.0310   51.7310 O.co2 415  ASP415     -0.2456
    251  N         26.6870  -25.6990   49.2540 N.am  416  HIS416     -0.1975
    252  CA        26.0490  -25.6650   47.9440 C.3   416  HIS416      0.1656
    253  C         26.0440  -24.1940   47.4800 C.2   416  HIS416      0.2291
    254  O         26.2580  -23.2960   48.2970 O.2   416  HIS416     -0.2864
    255  CB        24.5940  -26.2180   48.0670 C.3   416  HIS416      0.0771
    256  CG        23.7810  -25.5260   49.1350 C.ar  416  HIS416      0.0820
    257  ND1       23.0990  -24.3570   48.8670 N.ar  416  HIS416     -0.2267
    258  CD2       23.6520  -25.8130   50.4570 C.ar  416  HIS416      0.1154
    259  CE1       22.5740  -23.9670   50.0210 C.ar  416  HIS416      0.1986
    260  NE2       22.8600  -24.8220   51.0000 N.ar  416  HIS416     -0.2212
    261  N          2.3230  -27.2990   37.9680 N.3   454  MET454     -0.1245
    262  CA         1.5270  -27.0570   39.1840 C.3   454  MET454      0.1570
    263  C          0.2840  -26.2420   38.8610 C.2   454  MET454      0.2261
    264  O         -0.7920  -26.5370   39.3820 O.2   454  MET454     -0.2867
    265  CB         2.3900  -26.4210   40.2760 C.3   454  MET454      0.0387
    266  CG         3.5050  -27.3530   40.7120 C.3   454  MET454      0.0595
    267  SD         4.4350  -26.7940   42.1290 S.3   454  MET454     -0.1393
    268  CE         5.3250  -25.4270   41.4260 C.3   454  MET454      0.0692
@<TRIPOS>BOND
     1   261   262    1
     2   263   262    1
     3   263   264    2
     4   262   265    1
     5   265   266    1
     6   266   267    1
     7    73    72    2
     8   268   267    1
     9    81    80    2
    10    80    79    1
    11    70    71    1
    12    71    72    1
    13    71    74    1
    14    72    78   am
    15    77    75    1
    16    61    60    2
    17    78    79    1
    18    79    82    1
    19    75    74    1
    20    75    76    1
    21    60    59    1
    22   242   240    1
    23    67    65   ar
    24    67    68   ar
    25    65    63   ar
    26    69    68    1
    27   112   113    2
    28   112   111    1
    29    68    66   ar
    30   240   241    1
    31   240   237    1
    32    59    62    1
    33    59    58    1
    34    63    62    1
    35    63    64   ar
    36   124   125    1
    37    53    52    2
    38    66    64   ar
    39    58    52   am
    40   237   236    1
    41   237   238    1
    42   126   127    2
    43   126   125    1
    44     8     6    1
    45   111   110    1
    46   111   114    1
    47    52    51    1
    48    23    24    1
    49     6     5    1
    50    50    51    1
    51   125   128    1
    52    51    54    1
    53   238   239    2
    54    26    25    2
    55    42    41    2
    56     7     5    1
    57   114   115    1
    58    41    40    1
    59     5     2    1
    60    24    27    1
    61    24    25    1
    62    28    27    1
    63    28    29    1
    64   134   136   ar
    65   134   131   ar
    66   136   137   ar
    67    25    32   am
    68   148   147   ar
    69   148   146   ar
    70   128   129    1
    71   147   145   ar
    72   253   252    1
    73   253   254    2
    74   131   129   ar
    75   131   133   ar
    76     2     1    1
    77     2     3    1
    78   137   135   ar
    79   120   117   ar
    80   120   122   ar
    81   129   130   ar
    82    35    34    2
    83    54    55    1
    84   133   135   ar
    85   133   132   ar
    86   115   117   ar
    87   115   116   ar
    88   252   255    1
    89   252   251    1
    90   130   132   ar
    91   255   256    1
    92   117   119   ar
    93   122   123   ar
    94   146   144   ar
    95   145   143   ar
    96    40    39    1
    97    40    43    1
    98    29    30    1
    99    34    39   am
   100    34    33    1
   101    30    31    1
   102    57    55    1
   103    32    33    1
   104    83    84    1
   105    55    56    1
   106   257   256   ar
   107   257   259   ar
   108     3     4    2
   109   116   118   ar
   110   246   245    2
   111    33    36    1
   112   256   258   ar
   113    43    44    1
   114   251   245   am
   115   144   143   ar
   116   143   142    1
   117    13    10    1
   118    13    14    1
   119   119   118   ar
   120   119   121   ar
   121   123   121   ar
   122   245   244    1
   123    10     9    1
   124    10    11    1
   125    89    88    2
   126   259   260   ar
   127    84    85    1
   128    84    87    1
   129   142   139    1
   130   258   260   ar
   131   185   182    1
   132    88    87    1
   133    88    90   am
   134    44    46   ar
   135    44    45   ar
   136    36    37    1
   137    36    38    1
   138    85    86    2
   139    11    12    2
   140    46    48   ar
   141   182   181    1
   142   182   183    1
   143   244   247    1
   144   244   243    1
   145   247   248    1
   146   249   248   ar
   147   248   250   ar
   148    45    47   ar
   149    17    16    1
   150    17    18    2
   151    16    15    1
   152    16    19    1
   153    21    20   ar
   154   139   138    1
   155   139   140    1
   156   189   188    2
   157    48    49   ar
   158   141   140    2
   159   183   186   am
   160   183   184    2
   161   186   187    1
   162    20    22   ar
   163    20    19    1
   164   224   223   ar
   165   140   149   am
   166    47    49   ar
   167    98    96    1
   168   203   205   ar
   169   203   202   ar
   170   205   207   ar
   171   188   187    1
   172   188   197   am
   173   187   190    1
   174   234   235   ar
   175   234   232   ar
   176    97    96    1
   177   223   222    1
   178   223   225   ar
   179    96    95    1
   180   190   191    1
   181   149   150    1
   182   235   233   ar
   183   222   219    1
   184   201   198    1
   185   201   202    1
   186   198   197    1
   187   198   199    1
   188   202   204   ar
   189   219   218    1
   190   219   220    1
   191   232   231   ar
   192   207   208    1
   193   207   206   ar
   194   193   191   ar
   195   193   195   ar
   196   150   153    1
   197   150   151    1
   198   191   192   ar
   199   153   154    1
   200   233   231   ar
   201    91    92    1
   202   199   200    2
   203    95    92    1
   204   231   230    1
   205   156   154   ar
   206   156   158   ar
   207   204   206   ar
   208   221   220    2
   209    92    93    1
   210   195   196   ar
   211   168   166   ar
   212   168   169   ar
   213   226   227    1
   214   154   155   ar
   215   166   165   ar
   216   227   230    1
   217   227   228    1
   218   151   152    2
   219   151   160   am
   220   158   159   ar
   221   192   194   ar
   222   212   211    2
   223   211   210    1
   224   160   161    1
   225   209   210    1
   226   169   171   ar
   227   169   167   ar
   228   210   213    1
   229   196   194   ar
   230   171   173   ar
   231    93    94    2
   232    93    99   am
   233   229   228    2
   234   165   167   ar
   235   165   164    1
   236   155   157   ar
   237   159   157   ar
   238   167   170   ar
   239    99   100    1
   240   164   161    1
   241   161   162    1
   242   213   214    1
   243   173   172   ar
   244   214   215    1
   245   163   162    2
   246   215   217   ar
   247   215   216   ar
   248   170   172   ar
   249   100   101    1
   250   100   103    1
   251   101   102    2
   252   103   104    1
   253   104   105    1
   254   109   107    1
   255   105   106    1
   256   107   106    2
   257   107   108    1
   258   179   178    1
   259   174   175    1
   260   175   178    1
   261   175   176    1
   262   178   180    1
   263   176   177    2
