@<TRIPOS>MOLECULE
tmp/5ohsA02.pdb
 79 74 0 0 0
SMALL
GASTEIGER

@<TRIPOS>ATOM
      1  N          9.2380   15.9260   40.1070 N.3    42  ARG42      -0.1245
      2  CA         8.2240   15.9410   39.0620 C.3    42  ARG42       0.1563
      3  C          7.9760   14.5820   38.3890 C.2    42  ARG42       0.2260
      4  O          7.9230   14.4590   37.1840 O.2    42  ARG42      -0.2867
      5  CB         8.5770   17.0250   38.0480 C.3    42  ARG42       0.0307
      6  CG         8.6640   18.3710   38.7690 C.3    42  ARG42       0.0489
      7  CD         9.0840   19.4820   37.8930 C.3    42  ARG42       0.2205
      8  NE         9.0290   20.7430   38.6560 N.pl3  42  ARG42      -0.0865
      9  CZ         9.3330   21.9470   38.1470 C.cat  42  ARG42       0.5346
     10  NH1        9.6670   22.0500   36.8660 N.pl3  42  ARG42       0.1354
     11  NH2        9.1690   23.0370   38.8790 N.pl3  42  ARG42       0.1354
     12  N         17.3490   16.8800   29.1540 N.3   150  SER150     -0.1217
     13  CA        16.2510   16.5830   30.0490 C.3   150  SER150      0.1889
     14  C         16.7860   16.3130   31.4670 C.2   150  SER150      0.2288
     15  O         16.1610   16.7740   32.4640 O.2   150  SER150     -0.2866
     16  CB        15.4370   15.3990   29.5200 C.3   150  SER150      0.2089
     17  OG        14.9380   15.7130   28.2110 O.3   150  SER150     -0.2183
     18  N         18.1420   19.8350   32.8540 N.3   153  SER153     -0.1202
     19  CA        17.1380   20.8290   33.1870 C.3   153  SER153      0.2020
     20  C         16.0730   20.3460   34.1700 C.2   153  SER153      0.2619
     21  O         15.6150   21.1340   34.9270 O.2   153  SER153     -0.2717
     22  CB        16.4920   21.4460   31.9420 C.3   153  SER153      0.2103
     23  OG        15.8140   20.4360   31.3020 O.3   153  SER153     -0.2182
     24  N         15.7430   19.0680   34.2250 N.am  154  GLY154     -0.1956
     25  CA        14.6940   18.6000   35.1690 C.3   154  GLY154      0.1869
     26  C         14.7750   17.1660   35.6720 C.2   154  GLY154      0.2309
     27  O         13.7670   16.5800   36.0480 O.2   154  GLY154     -0.2863
     28  N         15.0020   14.4730   34.1540 N.3   156  ALA156     -0.1245
     29  CA        13.8620   13.9150   33.4520 C.3   156  ALA156      0.1562
     30  C         14.1830   13.0380   32.2500 C.2   156  ALA156      0.2260
     31  O         13.2800   12.6710   31.4830 O.2   156  ALA156     -0.2867
     32  CB        12.9400   15.0860   33.0290 C.3   156  ALA156      0.0290
     33  N          6.2310   26.7250   31.4140 N.3   279  SER279     -0.1202
     34  CA         7.4210   26.6120   30.5650 C.3   279  SER279      0.2020
     35  C          7.4380   25.3200   29.7500 C.2   279  SER279      0.2618
     36  O          8.0820   25.2880   28.7360 O.2   279  SER279     -0.2717
     37  CB         8.7090   26.7650   31.3310 C.3   279  SER279      0.2103
     38  OG         8.8180   25.6890   32.1590 O.3   279  SER279     -0.2182
     39  N          6.7280   24.2740   30.1740 N.am  280  PHE280     -0.1975
     40  CA         6.7030   23.0250   29.4220 C.3   280  PHE280      0.1639
     41  C          5.8720   23.1660   28.1460 C.2   280  PHE280      0.2290
     42  O          6.2330   22.6150   27.1000 O.2   280  PHE280     -0.2864
     43  CB         6.1590   21.9140   30.2820 C.3   280  PHE280      0.0560
     44  CG         6.1950   20.5440   29.6750 C.ar  280  PHE280     -0.0200
     45  CD1        7.3650   19.8080   29.6780 C.ar  280  PHE280     -0.0042
     46  CD2        5.0350   19.9890   29.1150 C.ar  280  PHE280     -0.0042
     47  CE1        7.3900   18.5160   29.1690 C.ar  280  PHE280     -0.0003
     48  CE2        5.0410   18.7010   28.5730 C.ar  280  PHE280     -0.0003
     49  CZ         6.2240   17.9450   28.6140 C.ar  280  PHE280     -0.0000
     50  N         10.6190   19.1320   22.9160 N.3   494  LEU494     -0.1231
     51  CA        11.4950   19.9900   23.7340 C.3   494  LEU494      0.1693
     52  C         12.8470   20.1090   23.0210 C.2   494  LEU494      0.2592
     53  O         13.2110   19.2810   22.2030 O.2   494  LEU494     -0.2718
     54  CB        11.7240   19.3080   25.1070 C.3   494  LEU494      0.0284
     55  CG        10.5540   19.1120   26.0660 C.3   494  LEU494      0.0019
     56  CD1       10.9800   18.2620   27.2260 C.3   494  LEU494      0.0001
     57  CD2        9.9950   20.4680   26.5750 C.3   494  LEU494      0.0001
     58  N         13.5590   21.1660   23.3360 N.am  495  PHE495     -0.1976
     59  CA        14.9570   21.3600   22.9380 C.3   495  PHE495      0.1639
     60  C         15.1050   21.3480   21.4200 C.2   495  PHE495      0.2290
     61  O         16.0480   20.8190   20.9110 O.2   495  PHE495     -0.2864
     62  CB        15.8400   20.3010   23.5870 C.3   495  PHE495      0.0560
     63  CG        15.6680   20.2230   25.0790 C.ar  495  PHE495     -0.0200
     64  CD1       15.9070   21.3320   25.8640 C.ar  495  PHE495     -0.0042
     65  CD2       15.2140   19.0470   25.6910 C.ar  495  PHE495     -0.0042
     66  CE1       15.7650   21.2770   27.2370 C.ar  495  PHE495     -0.0003
     67  CE2       15.0580   18.9840   27.0710 C.ar  495  PHE495     -0.0003
     68  CZ        15.3480   20.1140   27.8400 C.ar  495  PHE495     -0.0000
     69  N          3.3090   21.3340   22.7990 N.3   524  ARG524     -0.1245
     70  CA         3.5300   22.6410   22.1680 C.3   524  ARG524      0.1563
     71  C          2.8840   22.6970   20.8020 C.2   524  ARG524      0.2260
     72  O          3.5570   22.6470   19.7780 O.2   524  ARG524     -0.2867
     73  CB         4.9880   23.0030   22.0740 C.3   524  ARG524      0.0307
     74  CG         5.6070   23.2700   23.4370 C.3   524  ARG524      0.0489
     75  CD         7.1150   23.2690   23.3850 C.3   524  ARG524      0.2205
     76  NE         7.6440   23.5430   24.7260 N.pl3 524  ARG524     -0.0865
     77  CZ         8.9160   23.7140   25.0240 C.cat 524  ARG524      0.5346
     78  NH1        9.8450   23.6230   24.0520 N.pl3 524  ARG524      0.1354
     79  NH2        9.2850   23.9830   26.2690 N.pl3 524  ARG524      0.1354
@<TRIPOS>BOND
     1    72    71    2
     2    71    70    1
     3    61    60    2
     4    60    59    1
     5    73    70    1
     6    73    74    1
     7    70    69    1
     8    53    52    2
     9    50    51    1
    10    59    58    1
    11    59    62    1
    12    52    58   am
    13    52    51    1
    14    75    74    1
    15    75    76    1
    16    62    63    1
    17    51    54    1
    18    78    77    1
    19    76    77    2
    20    77    79    1
    21    63    65   ar
    22    63    64   ar
    23    54    55    1
    24    65    67   ar
    25    64    66   ar
    26    55    57    1
    27    55    56    1
    28    67    68   ar
    29    42    41    2
    30    66    68   ar
    31    41    40    1
    32    17    16    1
    33    48    49   ar
    34    48    46   ar
    35    49    47   ar
    36    36    35    2
    37    46    44   ar
    38    12    13    1
    39    47    45   ar
    40    40    39    1
    41    40    43    1
    42    16    13    1
    43    44    45   ar
    44    44    43    1
    45    35    39   am
    46    35    34    1
    47    13    14    1
    48    34    37    1
    49    34    33    1
    50    23    22    1
    51    37    38    1
    52    14    15    2
    53    31    30    2
    54    22    19    1
    55    30    29    1
    56    18    19    1
    57    32    29    1
    58    19    20    1
    59    29    28    1
    60    20    24   am
    61    20    21    2
    62    24    25    1
    63    25    26    1
    64    26    27    2
    65    10     9    1
    66     4     3    2
    67     7     8    1
    68     7     6    1
    69     5     6    1
    70     5     2    1
    71     9     8    2
    72     9    11    1
    73     3     2    1
    74     2     1    1
