@<TRIPOS>MOLECULE
tmp/5ohsF02.pdb
 216 209 0 0 0
SMALL
GASTEIGER

@<TRIPOS>ATOM
      1  N        106.5120  -95.6520   90.2060 N.3    42  ARG42      -0.1245
      2  CA       107.2750  -95.3320   91.4270 C.3    42  ARG42       0.1563
      3  C        108.5570  -96.1310   91.5980 C.2    42  ARG42       0.2260
      4  O        108.8410  -96.6670   92.6600 O.2    42  ARG42      -0.2867
      5  CB       106.3360  -95.4430   92.6110 C.3    42  ARG42       0.0307
      6  CG       105.1060  -94.5580   92.4100 C.3    42  ARG42       0.0489
      7  CD       104.0670  -94.6840   93.4480 C.3    42  ARG42       0.2205
      8  NE       103.0070  -93.7120   93.2190 N.pl3  42  ARG42      -0.0865
      9  CZ       101.9470  -93.5360   94.0230 C.cat  42  ARG42       0.5346
     10  NH1      101.8350  -94.2450   95.1230 N.pl3  42  ARG42       0.1354
     11  NH2      101.0830  -92.5440   93.7850 N.pl3  42  ARG42       0.1354
     12  N        109.4270  -98.9310   90.2140 N.3    44  ASN44      -0.1240
     13  CA       109.2370 -100.3560   89.8610 C.3    44  ASN44       0.1653
     14  C        108.9750 -100.3980   88.3470 C.2    44  ASN44       0.2266
     15  O        108.3190  -99.5260   87.8050 O.2    44  ASN44      -0.2867
     16  CB       108.0620 -100.9470   90.6330 C.3    44  ASN44       0.1155
     17  CG       108.1820 -100.6970   92.1400 C.2    44  ASN44       0.2627
     18  OD1      108.9520 -101.3930   92.8170 O.2    44  ASN44      -0.2716
     19  ND2      107.4090  -99.7270   92.6780 N.am   44  ASN44      -0.0877
     20  N        113.8710 -100.0340   91.9820 N.3   135  GLU135     -0.1245
     21  CA       113.5260 -100.5280   93.3030 C.3   135  GLU135      0.1567
     22  C        113.6610 -102.0770   93.3060 C.2   135  GLU135      0.2260
     23  O        113.2470 -102.7560   92.3660 O.2   135  GLU135     -0.2867
     24  CB       112.1000 -100.1740   93.6690 C.3   135  GLU135      0.0388
     25  CG       111.9230  -98.6980   93.8890 C.3   135  GLU135      0.1160
     26  CD       112.7160  -98.2660   95.1420 C.2   135  GLU135      0.3649
     27  OE1      113.0610  -99.0230   96.1770 O.co2 135  GLU135     -0.2457
     28  OE2      112.9900  -97.1220   95.1650 O.co2 135  GLU135     -0.2457
     29  N        115.1330  -89.2020  113.1840 N.3   245  LYS245     -0.1245
     30  CA       114.3770  -88.3350  112.3020 C.3   245  LYS245      0.1561
     31  C        113.2410  -87.6580  113.0490 C.2   245  LYS245      0.2260
     32  O        112.1260  -87.5120  112.5540 O.2   245  LYS245     -0.2867
     33  CB       113.8940  -89.0390  111.0530 C.3   245  LYS245      0.0271
     34  CG       113.0550  -90.3490  111.2020 C.3   245  LYS245      0.0035
     35  CD       112.9660  -91.1290  109.9210 C.3   245  LYS245      0.0206
     36  CE       111.9030  -90.6290  108.9690 C.3   245  LYS245      0.1093
     37  NZ       111.8320  -91.3980  107.7160 N.3   245  LYS245     -0.1314
     38  N        118.1890  -87.6020  108.6940 N.3   270  GLU270     -0.1245
     39  CA       117.7350  -87.4570  107.2930 C.3   270  GLU270      0.1567
     40  C        116.6470  -86.3850  107.1410 C.2   270  GLU270      0.2260
     41  O        116.4700  -85.8410  106.0360 O.2   270  GLU270     -0.2867
     42  CB       117.2750  -88.8170  106.7260 C.3   270  GLU270      0.0388
     43  CG       116.0800  -89.4920  107.4070 C.3   270  GLU270      0.1160
     44  CD       115.5090  -90.6860  106.6210 C.2   270  GLU270      0.3649
     45  OE1      116.1250  -91.1860  105.6720 O.co2 270  GLU270     -0.2457
     46  OE2      114.3820  -91.0890  106.9650 O.co2 270  GLU270     -0.2457
     47  N        102.6950  -93.6940  102.6440 N.3   280  PHE280     -0.1241
     48  CA       103.8050  -94.6220  102.9240 C.3   280  PHE280      0.1605
     49  C        104.3590  -94.4390  104.3260 C.2   280  PHE280      0.2264
     50  O        104.7000  -95.3900  104.9970 O.2   280  PHE280     -0.2867
     51  CB       104.8870  -94.4410  101.8960 C.3   280  PHE280      0.0534
     52  CG       106.0230  -95.3990  101.9760 C.ar  280  PHE280     -0.0203
     53  CD1      105.9240  -96.6310  101.4080 C.ar  280  PHE280     -0.0042
     54  CD2      107.2470  -95.0220  102.5930 C.ar  280  PHE280     -0.0042
     55  CE1      107.0190  -97.5180  101.4220 C.ar  280  PHE280     -0.0003
     56  CE2      108.3200  -95.8940  102.6460 C.ar  280  PHE280     -0.0003
     57  CZ       108.1860  -97.1660  102.0790 C.ar  280  PHE280     -0.0000
     58  N        106.3850  -91.3690  107.1570 N.3   282  ALA282     -0.1231
     59  CA       107.1330  -90.1280  107.4080 C.3   282  ALA282      0.1694
     60  C        108.3040  -90.0360  106.4410 C.2   282  ALA282      0.2592
     61  O        109.3990  -90.3110  106.7820 O.2   282  ALA282     -0.2718
     62  CB       107.5890  -90.1170  108.8800 C.3   282  ALA282      0.0304
     63  N        108.0140  -89.6270  105.2100 N.am  283  ARG283     -0.1966
     64  CA       109.0150  -89.4110  104.2070 C.3   283  ARG283      0.1729
     65  C        109.6080  -87.9770  104.3610 C.2   283  ARG283      0.2616
     66  O        109.2280  -87.2320  105.2610 O.2   283  ARG283     -0.2715
     67  CB       108.4290  -89.5980  102.8010 C.3   283  ARG283      0.0348
     68  CG       107.7860  -90.9740  102.6040 C.3   283  ARG283      0.0492
     69  CD       107.4690  -91.3140  101.1720 C.3   283  ARG283      0.2205
     70  NE       108.6710  -91.5790  100.4350 N.pl3 283  ARG283     -0.0865
     71  CZ       108.7390  -91.7080   99.1160 C.cat 283  ARG283      0.5346
     72  NH1      107.6350  -91.7900   98.3870 N.pl3 283  ARG283      0.1354
     73  NH2      109.9540  -91.8990   98.5500 N.pl3 283  ARG283      0.1354
     74  N        110.5890  -87.6740  103.5190 N.am  284  LEU284     -0.1977
     75  CA       111.2980  -86.4370  103.6100 C.3   284  LEU284      0.1596
     76  C        110.8190  -85.4030  102.6070 C.2   284  LEU284      0.2287
     77  O        110.2030  -85.7360  101.5870 O.2   284  LEU284     -0.2864
     78  CB       112.8060  -86.6690  103.4380 C.3   284  LEU284      0.0297
     79  CG       113.3760  -87.7930  104.2810 C.3   284  LEU284      0.0022
     80  CD1      114.8250  -88.0510  103.9590 C.3   284  LEU284      0.0001
     81  CD2      113.1990  -87.5960  105.7870 C.3   284  LEU284      0.0001
     82  N        111.9020  -83.0530   99.8370 N.3   286  TRP286     -0.1241
     83  CA       113.0340  -83.1700   98.9090 C.3   286  TRP286      0.1605
     84  C        113.4860  -81.8080   98.3340 C.2   286  TRP286      0.2264
     85  O        113.2940  -81.4560   97.1200 O.2   286  TRP286     -0.2867
     86  CB       112.7240  -84.1660   97.7670 C.3   286  TRP286      0.0550
     87  CG       112.5920  -85.5980   98.2190 C.ar  286  TRP286      0.0003
     88  CD1      112.5950  -86.0930   99.5110 C.ar  286  TRP286      0.0946
     89  CD2      112.4130  -86.7160   97.3670 C.ar  286  TRP286      0.0152
     90  NE1      112.4760  -87.4530   99.4780 N.ar  286  TRP286     -0.2442
     91  CE2      112.3790  -87.8560   98.1680 C.ar  286  TRP286      0.0810
     92  CE3      112.3900  -86.8650   95.9790 C.ar  286  TRP286      0.0012
     93  CZ2      112.2300  -89.1490   97.6150 C.ar  286  TRP286      0.0191
     94  CZ3      112.2800  -88.1080   95.4410 C.ar  286  TRP286      0.0001
     95  CH2      112.2040  -89.2580   96.2620 C.ar  286  TRP286      0.0015
     96  N        121.1790  -86.0430  104.3000 N.3   315  TYR315     -0.1241
     97  CA       120.4750  -86.8180  103.2560 C.3   315  TYR315      0.1605
     98  C        120.3380  -85.9530  102.0390 C.2   315  TYR315      0.2264
     99  O        119.9920  -84.7660  102.1550 O.2   315  TYR315     -0.2867
    100  CB       119.0330  -87.2010  103.7460 C.3   315  TYR315      0.0534
    101  CG       118.2370  -87.9430  102.7000 C.ar  315  TYR315     -0.0201
    102  CD1      117.5980  -87.2540  101.6820 C.ar  315  TYR315     -0.0009
    103  CD2      118.1380  -89.3450  102.6900 C.ar  315  TYR315     -0.0009
    104  CE1      116.8990  -87.8920  100.6890 C.ar  315  TYR315      0.0417
    105  CE2      117.4050  -90.0090  101.6810 C.ar  315  TYR315      0.0417
    106  CZ       116.7840  -89.2790  100.6860 C.ar  315  TYR315      0.1957
    107  OH       116.0710  -89.8940   99.6630 O.3   315  TYR315     -0.2866
    108  N        106.7620  -89.6860   92.6570 N.3   349  PHE349     -0.1227
    109  CA       107.5180  -90.5000   93.6210 C.3   349  PHE349      0.1736
    110  C        106.6850  -91.0830   94.7480 C.2   349  PHE349      0.2596
    111  O        107.2330  -91.7510   95.6250 O.2   349  PHE349     -0.2718
    112  CB       108.6770  -89.7220   94.1860 C.3   349  PHE349      0.0547
    113  CG       109.8050  -89.5950   93.2270 C.ar  349  PHE349     -0.0202
    114  CD1      109.8480  -88.5700   92.3320 C.ar  349  PHE349     -0.0042
    115  CD2      110.8310  -90.5160   93.2440 C.ar  349  PHE349     -0.0042
    116  CE1      110.9180  -88.4630   91.4170 C.ar  349  PHE349     -0.0003
    117  CE2      111.8870  -90.3910   92.3690 C.ar  349  PHE349     -0.0003
    118  CZ       111.9320  -89.4000   91.4360 C.ar  349  PHE349     -0.0000
    119  N        105.3670  -90.8800   94.6850 N.am  350  GLY350     -0.1957
    120  CA       104.4050  -91.4720   95.5830 C.3   350  GLY350      0.1869
    121  C        103.7380  -90.3670   96.3620 C.2   350  GLY350      0.2309
    122  O        104.1100  -90.0460   97.5020 O.2   350  GLY350     -0.2863
    123  N        123.5080  -89.8330  103.5360 N.3   386  MET386     -0.1245
    124  CA       122.9290  -90.7960  102.6470 C.3   386  MET386      0.1570
    125  C        122.7500  -90.0960  101.2760 C.2   386  MET386      0.2261
    126  O        122.0990  -89.0560  101.1830 O.2   386  MET386     -0.2867
    127  CB       121.5550  -91.2740  103.2050 C.3   386  MET386      0.0387
    128  CG       120.8160  -92.2530  102.2890 C.3   386  MET386      0.0595
    129  SD       119.2470  -92.8400  103.0140 S.3   386  MET386     -0.1393
    130  CE       119.8980  -94.0690  104.1140 C.3   386  MET386      0.0692
    131  N        121.0050  -90.8450   98.2160 N.3   388  ASP388     -0.1225
    132  CA       119.9650  -91.7920   97.9210 C.3   388  ASP388      0.1805
    133  C        119.5380  -91.7430   96.4360 C.2   388  ASP388      0.2597
    134  O        119.9150  -90.8350   95.7090 O.2   388  ASP388     -0.2718
    135  CB       118.7630  -91.5060   98.8230 C.3   388  ASP388      0.1424
    136  CG       117.7910  -92.6420   98.9340 C.2   388  ASP388      0.3668
    137  OD1      118.0790  -93.7680   98.4610 O.co2 388  ASP388     -0.2456
    138  OD2      116.7170  -92.4000   99.5200 O.co2 388  ASP388     -0.2456
    139  N        118.7570  -92.7460   96.0510 N.am  389  PHE389     -0.1976
    140  CA       118.1840  -92.8780   94.7410 C.3   389  PHE389      0.1639
    141  C        119.2380  -92.9660   93.5950 C.2   389  PHE389      0.2290
    142  O        120.3930  -93.3460   93.8580 O.2   389  PHE389     -0.2864
    143  CB       117.0880  -91.8130   94.5080 C.3   389  PHE389      0.0560
    144  CG       115.8340  -92.0490   95.2830 C.ar  389  PHE389     -0.0200
    145  CD1      115.7420  -91.6630   96.5590 C.ar  389  PHE389     -0.0042
    146  CD2      114.7650  -92.7530   94.7160 C.ar  389  PHE389     -0.0042
    147  CE1      114.5680  -91.8880   97.3100 C.ar  389  PHE389     -0.0003
    148  CE2      113.6150  -93.0050   95.4380 C.ar  389  PHE389     -0.0003
    149  CZ       113.5160  -92.5870   96.7490 C.ar  389  PHE389     -0.0000
    150  N        115.6490  -94.3550   89.2900 N.3   392  TYR392     -0.1241
    151  CA       114.3440  -93.9900   88.7850 C.3   392  TYR392      0.1605
    152  C        114.2740  -93.2700   87.4490 C.2   392  TYR392      0.2264
    153  O        113.2120  -92.6600   87.1470 O.2   392  TYR392     -0.2867
    154  CB       113.5790  -93.0490   89.7070 C.3   392  TYR392      0.0534
    155  CG       112.8290  -93.6470   90.8260 C.ar  392  TYR392     -0.0201
    156  CD1      113.5110  -94.4250   91.7570 C.ar  392  TYR392     -0.0009
    157  CD2      111.4870  -93.3400   91.0770 C.ar  392  TYR392     -0.0009
    158  CE1      112.8570  -94.9970   92.8620 C.ar  392  TYR392      0.0417
    159  CE2      110.8110  -93.8330   92.2110 C.ar  392  TYR392      0.0417
    160  CZ       111.4680  -94.6670   93.0960 C.ar  392  TYR392      0.1957
    161  OH       110.9660  -95.2270   94.2610 O.3   392  TYR392     -0.2866
    162  N        122.7880  -96.6210   97.7920 N.3   438  ARG438     -0.1245
    163  CA       122.1750  -97.8850   97.5860 C.3   438  ARG438      0.1563
    164  C        122.1070  -98.2640   96.1310 C.2   438  ARG438      0.2260
    165  O        122.0070  -99.4720   95.8290 O.2   438  ARG438     -0.2867
    166  CB       120.7830  -97.9350   98.2320 C.3   438  ARG438      0.0307
    167  CG       119.7130  -97.0730   97.5900 C.3   438  ARG438      0.0489
    168  CD       118.3570  -97.3770   98.1890 C.3   438  ARG438      0.2205
    169  NE       117.3780  -96.3450   97.8360 N.pl3 438  ARG438     -0.0865
    170  CZ       116.2820  -96.4630   97.1260 C.cat 438  ARG438      0.5346
    171  NH1      115.8590  -97.6110   96.6970 N.pl3 438  ARG438      0.1354
    172  NH2      115.6120  -95.3950   96.8250 N.pl3 438  ARG438      0.1354
    173  N        125.3120  -98.9890  100.9820 N.3   452  TRP452     -0.1241
    174  CA       124.3910  -99.6390  101.8880 C.3   452  TRP452      0.1605
    175  C        123.3920 -100.5000  101.1290 C.2   452  TRP452      0.2264
    176  O        123.0840 -100.2620   99.9540 O.2   452  TRP452     -0.2867
    177  CB       123.7240  -98.6920  102.8980 C.3   452  TRP452      0.0550
    178  CG       122.3040  -98.2380  102.6780 C.ar  452  TRP452      0.0003
    179  CD1      121.1650  -98.7330  103.2840 C.ar  452  TRP452      0.0946
    180  CD2      121.8900  -97.1490  101.8780 C.ar  452  TRP452      0.0152
    181  NE1      120.0540  -98.0300  102.8800 N.ar  452  TRP452     -0.2442
    182  CE2      120.4750  -97.0390  102.0160 C.ar  452  TRP452      0.0810
    183  CE3      122.5810  -96.1920  101.1040 C.ar  452  TRP452      0.0012
    184  CZ2      119.7380  -96.0490  101.3670 C.ar  452  TRP452      0.0191
    185  CZ3      121.8220  -95.2010  100.4290 C.ar  452  TRP452      0.0001
    186  CH2      120.4220  -95.1550  100.5540 C.ar  452  TRP452      0.0015
    187  N        116.6630 -100.8130  101.1770 N.3   455  ASN455     -0.1240
    188  CA       115.5350 -101.0790  102.0970 C.3   455  ASN455      0.1653
    189  C        115.2560 -102.5890  102.2200 C.2   455  ASN455      0.2266
    190  O        114.7990 -103.1990  101.2850 O.2   455  ASN455     -0.2867
    191  CB       114.2490 -100.4030  101.5930 C.3   455  ASN455      0.1155
    192  CG       114.3780  -98.9040  101.4940 C.2   455  ASN455      0.2627
    193  OD1      115.2200  -98.2910  102.1710 O.2   455  ASN455     -0.2716
    194  ND2      113.5590  -98.3110  100.6280 N.am  455  ASN455     -0.0877
    195  N        114.2560 -101.4280  107.2440 N.3   491  TYR491     -0.1241
    196  CA       113.5930 -100.1820  106.9100 C.3   491  TYR491      0.1605
    197  C        112.0770 -100.3120  106.7600 C.2   491  TYR491      0.2264
    198  O        111.3040  -99.5540  107.4110 O.2   491  TYR491     -0.2867
    199  CB       114.1980  -99.5950  105.6190 C.3   491  TYR491      0.0534
    200  CG       113.4660  -98.3320  105.1880 C.ar  491  TYR491     -0.0201
    201  CD1      113.8020  -97.0850  105.7090 C.ar  491  TYR491     -0.0009
    202  CD2      112.4340  -98.3980  104.2810 C.ar  491  TYR491     -0.0009
    203  CE1      113.1090  -95.9520  105.3870 C.ar  491  TYR491      0.0417
    204  CE2      111.7300  -97.2740  103.9160 C.ar  491  TYR491      0.0417
    205  CZ       112.0570  -96.0330  104.4650 C.ar  491  TYR491      0.1957
    206  OH       111.3330  -94.8710  104.1250 O.3   491  TYR491     -0.2866
    207  N        118.3900  -96.4800  111.8110 N.3   520  HIS520     -0.1241
    208  CA       117.4500  -95.8020  110.9480 C.3   520  HIS520      0.1621
    209  C        116.0890  -96.0220  111.6110 C.2   520  HIS520      0.2264
    210  O        115.7270  -97.1660  111.9460 O.2   520  HIS520     -0.2867
    211  CB       117.4650  -96.4890  109.5610 C.3   520  HIS520      0.0745
    212  CG       116.8590  -95.6820  108.4390 C.ar  520  HIS520      0.0817
    213  ND1      115.8560  -94.7490  108.6280 N.ar  520  HIS520     -0.2268
    214  CD2      117.0880  -95.7360  107.0920 C.ar  520  HIS520      0.1154
    215  CE1      115.5090  -94.2500  107.4470 C.ar  520  HIS520      0.1986
    216  NE2      116.2720  -94.8000  106.4920 N.ar  520  HIS520     -0.2212
@<TRIPOS>BOND
     1   153   152    2
     2   152   151    1
     3    15    14    2
     4    14    13    1
     5   151   150    1
     6   151   154    1
     7   154   155    1
     8    13    12    1
     9    13    16    1
    10     1     2    1
    11    16    17    1
    12   155   157   ar
    13   155   156   ar
    14   157   159   ar
    15   116   118   ar
    16   116   114   ar
    17     2     3    1
    18     2     5    1
    19   118   117   ar
    20     3     4    2
    21   156   158   ar
    22    20    21    1
    23    17    19   am
    24    17    18    2
    25   159   160   ar
    26   114   113   ar
    27    23    22    2
    28   117   115   ar
    29     6     5    1
    30     6     7    1
    31   108   109    1
    32   158   160   ar
    33   160   161    1
    34     8     7    1
    35     8     9    2
    36   113   115   ar
    37   113   112    1
    38    21    22    1
    39    21    24    1
    40   141   142    2
    41   141   140    1
    42   109   112    1
    43   109   110    1
    44    24    25    1
    45    11     9    1
    46    25    26    1
    47     9    10    1
    48   143   140    1
    49   143   144    1
    50   119   110   am
    51   119   120    1
    52   146   144   ar
    53   146   148   ar
    54   140   139    1
    55   110   111    2
    56    26    28   ar
    57    26    27   ar
    58   144   145   ar
    59   148   149   ar
    60    94    92   ar
    61    94    95   ar
    62   120   121    1
    63   134   133    2
    64   165   164    2
    65    92    89   ar
    66   139   133   am
    67   164   163    1
    68    95    93   ar
    69   121   122    2
    70   133   132    1
    71   145   147   ar
    72   171   170    1
    73   149   147   ar
    74   172   170    1
    75    85    84    2
    76   170   169    2
    77    89    91   ar
    78    89    87   ar
    79   163   162    1
    80   163   166    1
    81   167   168    1
    82   167   166    1
    83    93    91   ar
    84    86    87    1
    85    86    83    1
    86   169   168    1
    87   132   131    1
    88   132   135    1
    89    91    90   ar
    90    87    88   ar
    91    84    83    1
    92    72    71    1
    93   137   136   ar
    94    73    71    1
    95   135   136    1
    96    83    82    1
    97   136   138   ar
    98    71    70    2
    99    90    88   ar
   100   107   106    1
   101   176   175    2
   102   185   186   ar
   103   185   183   ar
   104    70    69    1
   105   186   184   ar
   106   194   192   am
   107   106   104   ar
   108   106   105   ar
   109   104   102   ar
   110   173   174    1
   111   183   180   ar
   112   175   174    1
   113    69    68    1
   114   187   188    1
   115   126   125    2
   116   125   124    1
   117   190   189    2
   118   184   182   ar
   119    53    55   ar
   120    53    52   ar
   121    55    57   ar
   122   192   191    1
   123   192   193    2
   124    77    76    2
   125   191   188    1
   126   105   103   ar
   127   102   101   ar
   128   180   182   ar
   129   180   178   ar
   130   174   177    1
   131    51    52    1
   132    51    48    1
   133    52    54   ar
   134   182   181   ar
   135    98    99    2
   136    98    97    1
   137    57    56   ar
   138   188   189    1
   139   128   129    1
   140   128   127    1
   141    54    56   ar
   142    68    67    1
   143    76    75    1
   144    47    48    1
   145   124   127    1
   146   124   123    1
   147   178   177    1
   148   178   179   ar
   149   103   101   ar
   150   101   100    1
   151    67    64    1
   152   181   179   ar
   153    48    49    1
   154   129   130    1
   155    97   100    1
   156    97    96    1
   157    78    75    1
   158    78    79    1
   159    74    75    1
   160    74    65   am
   161   204   202   ar
   162   204   205   ar
   163    80    79    1
   164   206   205    1
   165    64    65    1
   166    64    63    1
   167   202   200   ar
   168    79    81    1
   169    49    50    2
   170    65    66    2
   171   205   203   ar
   172   200   199    1
   173   200   201   ar
   174    63    60   am
   175   203   201   ar
   176   199   196    1
   177    45    44   ar
   178    41    40    2
   179    60    61    2
   180    60    59    1
   181   216   214   ar
   182   216   215   ar
   183    44    46   ar
   184    44    43    1
   185    42    39    1
   186    42    43    1
   187   197   196    1
   188   197   198    2
   189   196   195    1
   190   214   212   ar
   191    40    39    1
   192    58    59    1
   193    39    38    1
   194    59    62    1
   195   215   213   ar
   196    37    36    1
   197   212   213   ar
   198   212   211    1
   199    36    35    1
   200   211   208    1
   201    35    34    1
   202   208   209    1
   203   208   207    1
   204    33    34    1
   205    33    30    1
   206   209   210    2
   207    30    31    1
   208    30    29    1
   209    32    31    2
