@<TRIPOS>MOLECULE
tmp/5ohsA01.pdb
 90 87 0 0 0
SMALL
GASTEIGER

@<TRIPOS>ATOM
      1  N         18.3760  -21.1840   31.9480 N.3   107  GLU107     -0.1245
      2  CA        19.1470  -21.8380   30.9150 C.3   107  GLU107      0.1567
      3  C         19.8610  -20.7710   30.0940 C.2   107  GLU107      0.2260
      4  O         19.4520  -19.6030   29.9840 O.2   107  GLU107     -0.2867
      5  CB        18.2380  -22.6940   30.0580 C.3   107  GLU107      0.0388
      6  CG        17.7820  -23.8960   30.8580 C.3   107  GLU107      0.1160
      7  CD        16.7760  -24.7860   30.0770 C.2   107  GLU107      0.3649
      8  OE1       16.2500  -24.4750   29.0390 O.co2 107  GLU107     -0.2457
      9  OE2       16.3870  -25.8270   30.5420 O.co2 107  GLU107     -0.2457
     10  N         20.2580  -20.3650   26.7890 N.3   109  ASP109     -0.1225
     11  CA        19.6110  -19.7780   25.6560 C.3   109  ASP109      0.1805
     12  C         18.1470  -19.2580   25.9940 C.2   109  ASP109      0.2598
     13  O         17.3790  -18.9450   25.1000 O.2   109  ASP109     -0.2718
     14  CB        19.6010  -20.7570   24.5050 C.3   109  ASP109      0.1424
     15  CG        18.8680  -22.0300   24.8110 C.2   109  ASP109      0.3668
     16  OD1       18.7270  -22.3500   26.0700 O.co2 109  ASP109     -0.2456
     17  OD2       18.4320  -22.6750   23.7470 O.co2 109  ASP109     -0.2456
     18  N         17.8060  -19.1670   27.2740 N.am  110  GLU110     -0.1965
     19  CA        16.4750  -18.7550   27.6910 C.3   110  GLU110      0.1733
     20  C         16.1850  -17.2330   27.4630 C.2   110  GLU110      0.2616
     21  O         17.0620  -16.3820   27.6270 O.2   110  GLU110     -0.2715
     22  CB        16.3050  -19.0580   29.1820 C.3   110  GLU110      0.0429
     23  CG        14.9360  -18.7900   29.7930 C.3   110  GLU110      0.1163
     24  CD        14.9110  -19.1020   31.2690 C.2   110  GLU110      0.3649
     25  OE1       15.9040  -19.7230   31.7500 O.co2 110  GLU110     -0.2457
     26  OE2       13.9250  -18.7220   31.9450 O.co2 110  GLU110     -0.2457
     27  N         14.9630  -16.9420   27.0260 N.am  111  HIS111     -0.1973
     28  CA        14.4410  -15.5930   26.8650 C.3   111  HIS111      0.1656
     29  C         13.4230  -15.3530   27.9380 C.2   111  HIS111      0.2291
     30  O         12.7700  -16.2830   28.4470 O.2   111  HIS111     -0.2864
     31  CB        13.7600  -15.4600   25.4740 C.3   111  HIS111      0.0771
     32  CG        14.6710  -15.8230   24.3430 C.ar  111  HIS111      0.0820
     33  ND1       15.5630  -14.9190   23.7730 N.ar  111  HIS111     -0.2267
     34  CD2       14.9430  -17.0270   23.7790 C.ar  111  HIS111      0.1154
     35  CE1       16.2080  -15.5340   22.8020 C.ar  111  HIS111      0.1986
     36  NE2       15.8800  -16.8100   22.7950 N.ar  111  HIS111     -0.2212
     37  N         10.8230  -18.4300   28.2500 N.3   173  SER173     -0.1202
     38  CA        10.8010  -19.3140   27.0600 C.3   173  SER173      0.2020
     39  C         10.7780  -20.7930   27.4380 C.2   173  SER173      0.2619
     40  O         10.5180  -21.6250   26.6000 O.2   173  SER173     -0.2717
     41  CB        11.9870  -19.0330   26.1190 C.3   173  SER173      0.2103
     42  OG        13.2450  -19.2070   26.7550 O.3   173  SER173     -0.2182
     43  N         11.0280  -21.1160   28.7100 N.am  174  ARG174     -0.1965
     44  CA        10.8530  -22.4820   29.2130 C.3   174  ARG174      0.1729
     45  C          9.3830  -22.8210   29.4660 C.2   174  ARG174      0.2616
     46  O          9.1110  -23.8520   30.0650 O.2   174  ARG174     -0.2715
     47  CB        11.6330  -22.6720   30.5160 C.3   174  ARG174      0.0348
     48  CG        13.1660  -22.4960   30.3440 C.3   174  ARG174      0.0492
     49  CD        13.8960  -22.4830   31.6890 C.3   174  ARG174      0.2205
     50  NE        13.8050  -23.7520   32.3330 N.pl3 174  ARG174     -0.0865
     51  CZ        13.8000  -23.9850   33.6360 C.cat 174  ARG174      0.5346
     52  NH1       13.8670  -23.0100   34.5410 N.pl3 174  ARG174      0.1354
     53  NH2       13.7170  -25.2430   34.0490 N.pl3 174  ARG174      0.1354
     54  N          8.4400  -21.9440   29.0850 N.am  175  LYS175     -0.1977
     55  CA         6.9920  -22.2180   29.2090 C.3   175  LYS175      0.1596
     56  C          6.4620  -22.2480   30.6470 C.2   175  LYS175      0.2287
     57  O          5.7120  -23.1010   31.0190 O.2   175  LYS175     -0.2864
     58  CB         6.5620  -23.4400   28.4290 C.3   175  LYS175      0.0298
     59  CG         6.5890  -23.1200   26.9610 C.3   175  LYS175      0.0038
     60  CD         6.2130  -24.2990   26.0980 C.3   175  LYS175      0.0206
     61  CE         6.0780  -23.7300   24.6880 C.3   175  LYS175      0.1093
     62  NZ         5.6750  -24.8520   23.8110 N.3   175  LYS175     -0.1314
     63  N          6.4520  -20.9530   17.6510 N.3   578  GLU578     -0.1245
     64  CA         7.1860  -21.3790   18.8220 C.3   578  GLU578      0.1567
     65  C          8.4120  -22.1660   18.4850 C.2   578  GLU578      0.2260
     66  O          9.3350  -22.2010   19.3080 O.2   578  GLU578     -0.2867
     67  CB         6.3430  -22.2690   19.7420 C.3   578  GLU578      0.0388
     68  CG         5.1370  -21.5610   20.3490 C.3   578  GLU578      0.1160
     69  CD         4.5330  -22.4270   21.4510 C.2   578  GLU578      0.3649
     70  OE1        4.8540  -23.6100   21.5600 O.co2 578  GLU578     -0.2457
     71  OE2        3.7400  -21.9130   22.2430 O.co2 578  GLU578     -0.2457
     72  N         13.2350  -20.5010   17.2810 N.3   581  PRO581     -0.2116
     73  CA        13.9350  -19.7800   18.3350 C.3   581  PRO581      0.1372
     74  C         14.5810  -18.4640   17.8880 C.2   581  PRO581      0.2244
     75  O         14.6270  -17.5440   18.6440 O.2   581  PRO581     -0.2868
     76  CB        14.9700  -20.7620   18.8880 C.3   581  PRO581      0.0268
     77  CG        14.7270  -22.0290   18.2350 C.3   581  PRO581      0.0207
     78  CD        13.9100  -21.8000   16.9840 C.3   581  PRO581      0.0892
     79  N         12.6870  -15.1530   18.7800 N.3   584  TYR584     -0.1241
     80  CA        12.2340  -14.9000   20.1750 C.3   584  TYR584      0.1605
     81  C         12.5490  -13.5260   20.7620 C.2   584  TYR584      0.2264
     82  O         11.8710  -13.1100   21.6610 O.2   584  TYR584     -0.2867
     83  CB        12.7640  -16.0440   21.0110 C.3   584  TYR584      0.0534
     84  CG        11.9390  -17.3020   21.0410 C.ar  584  TYR584     -0.0201
     85  CD1       11.2650  -17.8320   19.9040 C.ar  584  TYR584     -0.0009
     86  CD2       11.6610  -17.9120   22.2400 C.ar  584  TYR584     -0.0009
     87  CE1       10.5660  -19.0470   19.9920 C.ar  584  TYR584      0.0417
     88  CE2       10.8540  -19.0800   22.3260 C.ar  584  TYR584      0.0417
     89  CZ        10.3940  -19.6300   21.1760 C.ar  584  TYR584      0.1957
     90  OH         9.7020  -20.8230   21.3510 O.3   584  TYR584     -0.2866
@<TRIPOS>BOND
     1    78    72    1
     2    78    77    1
     3    72    73    1
     4    63    64    1
     5    74    73    1
     6    74    75    2
     7    77    76    1
     8    73    76    1
     9    65    64    1
    10    65    66    2
    11    79    80    1
    12    64    67    1
    13    67    68    1
    14    85    87   ar
    15    85    84   ar
    16    87    89   ar
    17    80    81    1
    18    80    83    1
    19    68    69    1
    20    81    82    2
    21    83    84    1
    22    84    86   ar
    23    89    90    1
    24    89    88   ar
    25    69    70   ar
    26    69    71   ar
    27    86    88   ar
    28    36    35   ar
    29    36    34   ar
    30    35    33   ar
    31    17    15   ar
    32    33    32   ar
    33    34    32   ar
    34    62    61    1
    35    32    31    1
    36    14    15    1
    37    14    11    1
    38    61    60    1
    39    15    16   ar
    40    13    12    2
    41    31    28    1
    42    11    12    1
    43    11    10    1
    44    12    18   am
    45    60    59    1
    46    41    42    1
    47    41    38    1
    48    40    39    2
    49    28    27    1
    50    28    29    1
    51    59    58    1
    52    27    20   am
    53    38    39    1
    54    38    37    1
    55    18    19    1
    56    39    43   am
    57    20    21    2
    58    20    19    1
    59    19    22    1
    60    29    30    2
    61    58    55    1
    62    43    44    1
    63     8     7   ar
    64    54    55    1
    65    54    45   am
    66    22    23    1
    67    55    56    1
    68    44    45    1
    69    44    47    1
    70    45    46    2
    71    23    24    1
    72     4     3    2
    73     5     6    1
    74     5     2    1
    75     7     9   ar
    76     7     6    1
    77     3     2    1
    78    48    47    1
    79    48    49    1
    80    56    57    2
    81     2     1    1
    82    24    25   ar
    83    24    26   ar
    84    49    50    1
    85    50    51    2
    86    51    53    1
    87    51    52    1
