@<TRIPOS>MOLECULE
tmp/5ohtB00.pdb
 163 159 0 0 0
SMALL
GASTEIGER

@<TRIPOS>ATOM
      1  N        -10.6770  -53.4460   46.9940 N.3   276  GLN276     -0.1245
      2  CA       -10.8260  -53.0940   45.5620 C.3   276  GLN276      0.1566
      3  C        -12.2920  -53.1750   45.0610 C.2   276  GLN276      0.2260
      4  O        -12.6510  -52.4900   44.0820 O.2   276  GLN276     -0.2867
      5  CB        -9.8920  -53.9260   44.6940 C.3   276  GLN276      0.0367
      6  CG       -10.1120  -55.4440   44.6830 C.3   276  GLN276      0.0905
      7  CD        -9.3020  -56.1380   43.5890 C.2   276  GLN276      0.2608
      8  OE1       -8.3510  -55.5590   43.0490 O.2   276  GLN276     -0.2717
      9  NE2       -9.6460  -57.3870   43.2830 N.am  276  GLN276     -0.0878
     10  N        -11.7790  -65.7210   34.7380 N.3   286  PHE286     -0.1241
     11  CA       -10.4790  -65.4170   35.3590 C.3   286  PHE286      0.1605
     12  C        -10.5660  -65.5630   36.8990 C.2   286  PHE286      0.2264
     13  O         -9.6370  -66.0430   37.5560 O.2   286  PHE286     -0.2867
     14  CB       -10.0260  -63.9940   34.9370 C.3   286  PHE286      0.0534
     15  CG        -8.6380  -63.6310   35.4220 C.ar  286  PHE286     -0.0203
     16  CD1       -7.5240  -64.3490   35.0000 C.ar  286  PHE286     -0.0042
     17  CD2       -8.4540  -62.5530   36.2700 C.ar  286  PHE286     -0.0042
     18  CE1       -6.2480  -64.0020   35.4210 C.ar  286  PHE286     -0.0003
     19  CE2       -7.1870  -62.1970   36.7080 C.ar  286  PHE286     -0.0003
     20  CZ        -6.0830  -62.9300   36.2980 C.ar  286  PHE286     -0.0000
     21  N        -12.5130  -63.5490   40.4870 N.3   288  LYS288     -0.1231
     22  CA       -13.2310  -62.4020   40.9920 C.3   288  LYS288      0.1693
     23  C        -12.5570  -61.0590   40.6580 C.2   288  LYS288      0.2592
     24  O        -11.4370  -60.7690   41.1070 O.2   288  LYS288     -0.2718
     25  CB       -13.4240  -62.6010   42.4980 C.3   288  LYS288      0.0285
     26  CG       -14.0560  -61.4640   43.2550 C.3   288  LYS288      0.0035
     27  CD       -14.7770  -62.0340   44.4780 C.3   288  LYS288      0.0206
     28  CE       -14.4810  -61.2430   45.7310 C.3   288  LYS288      0.1093
     29  NZ       -15.4010  -61.6410   46.8450 N.3   288  LYS288     -0.1314
     30  N        -13.2720  -60.2540   39.8790 N.am  289  ARG289     -0.1966
     31  CA       -12.7970  -58.9500   39.4070 C.3   289  ARG289      0.1729
     32  C        -13.6480  -57.7820   39.9190 C.2   289  ARG289      0.2616
     33  O        -14.6870  -57.9580   40.5800 O.2   289  ARG289     -0.2715
     34  CB       -12.6960  -58.9550   37.8560 C.3   289  ARG289      0.0348
     35  CG       -11.9160  -60.1640   37.3240 C.3   289  ARG289      0.0492
     36  CD       -11.4460  -60.0660   35.8560 C.3   289  ARG289      0.2205
     37  NE       -10.6880  -58.8310   35.5650 N.pl3 289  ARG289     -0.0865
     38  CZ       -10.3910  -58.3770   34.3370 C.cat 289  ARG289      0.5346
     39  NH1      -10.7330  -59.0650   33.2400 N.pl3 289  ARG289      0.1354
     40  NH2       -9.7360  -57.2110   34.1940 N.pl3 289  ARG289      0.1354
     41  N        -13.2020  -56.5600   39.6510 N.am  290  VAL290     -0.1977
     42  CA       -13.8880  -55.3860   40.1200 C.3   290  VAL290      0.1596
     43  C        -14.9370  -54.9590   39.0700 C.2   290  VAL290      0.2287
     44  O        -14.7510  -55.2100   37.8830 O.2   290  VAL290     -0.2864
     45  CB       -12.8770  -54.2450   40.3980 C.3   290  VAL290      0.0276
     46  CG1      -13.6000  -52.9740   40.8040 C.3   290  VAL290      0.0022
     47  CG2      -11.8470  -54.7310   41.4540 C.3   290  VAL290      0.0022
     48  N        -16.1740  -52.0680   37.0270 N.3   292  TRP292     -0.1241
     49  CA       -15.5090  -50.8260   36.6220 C.3   292  TRP292      0.1605
     50  C        -16.5020  -49.6720   36.4460 C.2   292  TRP292      0.2264
     51  O        -16.7620  -49.2080   35.3060 O.2   292  TRP292     -0.2867
     52  CB       -14.6550  -51.0500   35.3600 C.3   292  TRP292      0.0550
     53  CG       -13.4650  -52.0540   35.5130 C.ar  292  TRP292      0.0003
     54  CD1      -13.1500  -52.8330   36.6050 C.ar  292  TRP292      0.0946
     55  CD2      -12.4710  -52.3630   34.5150 C.ar  292  TRP292      0.0152
     56  NE1      -12.0170  -53.6020   36.3450 N.ar  292  TRP292     -0.2442
     57  CE2      -11.5850  -53.3200   35.0740 C.ar  292  TRP292      0.0810
     58  CE3      -12.2400  -51.9190   33.2020 C.ar  292  TRP292      0.0012
     59  CZ2      -10.5000  -53.8300   34.3590 C.ar  292  TRP292      0.0191
     60  CZ3      -11.1460  -52.4500   32.4910 C.ar  292  TRP292      0.0001
     61  CH2      -10.3210  -53.3990   33.0690 C.ar  292  TRP292      0.0015
     62  N         -9.9780  -48.3270   44.7310 N.3   321  TYR321     -0.1241
     63  CA        -9.4810  -48.8190   43.4290 C.3   321  TYR321      0.1605
     64  C        -10.0980  -47.9600   42.3250 C.2   321  TYR321      0.2264
     65  O        -11.3290  -47.7530   42.3200 O.2   321  TYR321     -0.2867
     66  CB        -9.8450  -50.3230   43.2270 C.3   321  TYR321      0.0534
     67  CG        -9.4240  -50.8670   41.8570 C.ar  321  TYR321     -0.0201
     68  CD1      -10.2050  -50.6130   40.7100 C.ar  321  TYR321     -0.0009
     69  CD2       -8.2340  -51.5680   41.6830 C.ar  321  TYR321     -0.0009
     70  CE1       -9.7930  -51.0360   39.4480 C.ar  321  TYR321      0.0417
     71  CE2       -7.8230  -52.0110   40.4120 C.ar  321  TYR321      0.0417
     72  CZ        -8.6070  -51.7260   39.2940 C.ar  321  TYR321      0.1957
     73  OH        -8.2260  -52.1180   38.0380 O.3   321  TYR321     -0.2866
     74  N         -5.4120  -48.0140   44.8060 N.3   391  MET391     -0.1196
     75  CA        -4.7350  -48.5550   43.6040 C.3   391  MET391      0.1786
     76  C         -5.1980  -47.7590   42.3910 C.2   391  MET391      0.2306
     77  O         -6.4210  -47.6390   42.1600 O.2   391  MET391     -0.2863
     78  CB        -5.0850  -50.0410   43.4300 C.2   391  MET391      0.0070
     79  CG        -4.3960  -50.7340   42.2700 C.2   391  MET391      0.0282
     80  SD        -4.6650  -52.4840   42.0930 S.3   391  MET391     -0.1125
     81  CE        -3.4940  -53.2540   43.2140 C.3   391  MET391      0.0742
     82  N         -4.7550  -48.2320   38.7260 N.3   393  ASP393     -0.1225
     83  CA        -4.3270  -49.3920   37.9490 C.3   393  ASP393      0.1805
     84  C         -4.3020  -49.1520   36.4450 C.2   393  ASP393      0.2597
     85  O         -4.8260  -48.1550   35.9600 O.2   393  ASP393     -0.2718
     86  CB        -5.3230  -50.5190   38.3010 C.3   393  ASP393      0.1424
     87  CG        -4.8390  -51.9090   37.9440 C.2   393  ASP393      0.3668
     88  OD1       -3.6470  -52.1300   37.5900 O.co2 393  ASP393     -0.2456
     89  OD2       -5.6660  -52.8260   38.0330 O.co2 393  ASP393     -0.2456
     90  N         -3.7200  -50.1070   35.7040 N.am  394  PHE394     -0.1976
     91  CA        -3.7060  -50.1290   34.2320 C.3   394  PHE394      0.1639
     92  C         -3.0220  -48.8930   33.6190 C.2   394  PHE394      0.2290
     93  O         -2.2090  -48.2480   34.2680 O.2   394  PHE394     -0.2864
     94  CB        -5.1410  -50.3790   33.6500 C.3   394  PHE394      0.0560
     95  CG        -5.6520  -51.7620   33.8650 C.ar  394  PHE394     -0.0200
     96  CD1       -5.3600  -52.7930   32.9660 C.ar  394  PHE394     -0.0042
     97  CD2       -6.4980  -52.0400   34.9510 C.ar  394  PHE394     -0.0042
     98  CE1       -5.8740  -54.0840   33.1600 C.ar  394  PHE394     -0.0003
     99  CE2       -7.0250  -53.3300   35.1380 C.ar  394  PHE394     -0.0003
    100  CZ        -6.7090  -54.3510   34.2470 C.ar  394  PHE394     -0.0000
    101  N          0.9880  -49.3130   38.6850 N.3   443  ARG443     -0.1245
    102  CA         1.8480  -50.3870   38.1390 C.3   443  ARG443      0.1563
    103  C          2.4810  -49.9860   36.8130 C.2   443  ARG443      0.2260
    104  O          3.6000  -50.4210   36.5100 O.2   443  ARG443     -0.2867
    105  CB         1.1430  -51.7730   38.0280 C.3   443  ARG443      0.0307
    106  CG         0.1160  -51.8510   36.8960 C.3   443  ARG443      0.0489
    107  CD        -0.5650  -53.2380   36.7240 C.3   443  ARG443      0.2205
    108  NE        -1.2840  -53.2990   35.4280 N.pl3 443  ARG443     -0.0865
    109  CZ        -2.0020  -54.3510   34.9990 C.cat 443  ARG443      0.5346
    110  NH1       -2.1110  -55.4310   35.7580 N.pl3 443  ARG443      0.1354
    111  NH2       -2.5560  -54.3480   33.7860 N.pl3 443  ARG443      0.1354
    112  N          3.9930  -50.0660   42.5360 N.3   457  TRP457     -0.1241
    113  CA         4.0420  -51.4590   42.9550 C.3   457  TRP457      0.1605
    114  C          4.3930  -52.2990   41.6960 C.2   457  TRP457      0.2264
    115  O          4.2080  -51.8390   40.5510 O.2   457  TRP457     -0.2867
    116  CB         2.7630  -51.8820   43.7180 C.3   457  TRP457      0.0550
    117  CG         1.7050  -52.7150   42.9360 C.ar  457  TRP457      0.0003
    118  CD1        1.5830  -54.0560   42.9620 C.ar  457  TRP457      0.0946
    119  CD2        0.6090  -52.2300   42.0970 C.ar  457  TRP457      0.0152
    120  NE1        0.5270  -54.4560   42.1750 N.ar  457  TRP457     -0.2442
    121  CE2       -0.0750  -53.3780   41.5990 C.ar  457  TRP457      0.0810
    122  CE3        0.1690  -50.9730   41.7080 C.ar  457  TRP457      0.0012
    123  CZ2       -1.1920  -53.2960   40.7720 C.ar  457  TRP457      0.0191
    124  CZ3       -0.9630  -50.8780   40.8370 C.ar  457  TRP457      0.0001
    125  CH2       -1.6110  -52.0460   40.3730 C.ar  457  TRP457      0.0015
    126  N          1.4930  -57.5930   38.6420 N.3   460  ASP460     -0.1239
    127  CA         1.0750  -59.0200   38.8480 C.3   460  ASP460      0.1674
    128  C          2.2040  -60.0190   38.6890 C.2   460  ASP460      0.2266
    129  O          2.6430  -60.2980   37.5480 O.2   460  ASP460     -0.2867
    130  CB        -0.0680  -59.4610   37.8700 C.3   460  ASP460      0.1410
    131  CG        -1.2610  -58.5380   37.8520 C.2   460  ASP460      0.3668
    132  OD1       -1.3130  -57.5040   38.5550 O.co2 460  ASP460     -0.2456
    133  OD2       -2.1700  -58.8680   37.0730 O.co2 460  ASP460     -0.2456
    134  N          2.7960  -56.8330   45.9440 N.3   492  ASP492     -0.1239
    135  CA         1.6760  -57.5910   46.5750 C.3   492  ASP492      0.1674
    136  C          2.3070  -58.6560   47.4720 C.2   492  ASP492      0.2266
    137  O          3.0150  -59.5420   46.9840 O.2   492  ASP492     -0.2867
    138  CB         0.8570  -58.3630   45.5190 C.3   492  ASP492      0.1410
    139  CG         0.1600  -57.4980   44.5210 C.2   492  ASP492      0.3668
    140  OD1       -0.4270  -56.4540   44.8870 O.co2 492  ASP492     -0.2456
    141  OD2        0.1660  -57.9200   43.3120 O.co2 492  ASP492     -0.2456
    142  N         -0.0440  -62.3370   42.9530 N.3   496  TYR496     -0.1241
    143  CA        -1.4170  -62.1370   42.4720 C.3   496  TYR496      0.1605
    144  C         -2.0070  -63.2660   41.5820 C.2   496  TYR496      0.2264
    145  O         -3.0760  -63.8300   41.9020 O.2   496  TYR496     -0.2867
    146  CB        -1.5120  -60.8460   41.6880 C.3   496  TYR496      0.0534
    147  CG        -2.8930  -60.5910   41.0900 C.ar  496  TYR496     -0.0201
    148  CD1       -3.9520  -60.2640   41.8880 C.ar  496  TYR496     -0.0009
    149  CD2       -3.1460  -60.7950   39.7150 C.ar  496  TYR496     -0.0009
    150  CE1       -5.2070  -60.0640   41.3640 C.ar  496  TYR496      0.0417
    151  CE2       -4.4030  -60.5850   39.1730 C.ar  496  TYR496      0.0417
    152  CZ        -5.4380  -60.2350   40.0050 C.ar  496  TYR496      0.1957
    153  OH        -6.7090  -60.0050   39.5040 O.3   496  TYR496     -0.2866
    154  N         -2.6060  -58.9500   49.2140 N.3   525  HIS525     -0.1241
    155  CA        -3.5210  -59.1220   48.0520 C.3   525  HIS525      0.1621
    156  C         -4.1950  -60.5000   48.1800 C.2   525  HIS525      0.2264
    157  O         -3.5130  -61.4840   48.4360 O.2   525  HIS525     -0.2867
    158  CB        -2.8020  -59.0160   46.6580 C.3   525  HIS525      0.0745
    159  CG        -3.7030  -58.5590   45.5270 C.ar  525  HIS525      0.0817
    160  ND1       -5.0050  -58.9810   45.4020 N.ar  525  HIS525     -0.2268
    161  CD2       -3.5120  -57.6620   44.5140 C.ar  525  HIS525      0.1154
    162  CE1       -5.5900  -58.3440   44.3930 C.ar  525  HIS525      0.1986
    163  NE2       -4.6990  -57.5450   43.8260 N.ar  525  HIS525     -0.2212
@<TRIPOS>BOND
     1    60    61   ar
     2    60    58   ar
     3    96    98   ar
     4    96    95   ar
     5    61    59   ar
     6    98   100   ar
     7    58    55   ar
     8    39    38    1
     9    92    91    1
    10    92    93    2
    11    94    95    1
    12    94    91    1
    13   111   109    1
    14    95    97   ar
    15    40    38    1
    16    91    90    1
    17   100    99   ar
    18    38    37    2
    19    59    57   ar
    20    55    57   ar
    21    55    53   ar
    22    10    11    1
    23    14    11    1
    24    14    15    1
    25    97    99   ar
    26   109   108    2
    27   109   110    1
    28    16    18   ar
    29    16    15   ar
    30    57    56   ar
    31    51    50    2
    32    11    12    1
    33    52    53    1
    34    52    49    1
    35    18    20   ar
    36    15    17   ar
    37   108   107    1
    38    53    54   ar
    39    37    36    1
    40    90    84   am
    41    36    35    1
    42    85    84    2
    43    17    19   ar
    44    20    19   ar
    45    56    54   ar
    46    84    83    1
    47    50    49    1
    48   104   103    2
    49    49    48    1
    50   107   106    1
    51   103   102    1
    52   106   105    1
    53    12    13    2
    54   133   131   ar
    55    35    34    1
    56   129   128    2
    57    88    87   ar
    58   131   130    1
    59   131   132   ar
    60    34    31    1
    61   130   127    1
    62    44    43    2
    63    87    89   ar
    64    87    86    1
    65    83    86    1
    66    83    82    1
    67   105   102    1
    68    73    72    1
    69   102   101    1
    70   126   127    1
    71   128   127    1
    72    43    42    1
    73   151   149   ar
    74   151   152   ar
    75    72    70   ar
    76    72    71   ar
    77    31    30    1
    78    31    32    1
    79    70    68   ar
    80   153   152    1
    81    41    32   am
    82    41    42    1
    83   149   147   ar
    84    30    23   am
    85    32    33    2
    86   152   150   ar
    87    42    45    1
    88   125   123   ar
    89   125   124   ar
    90    45    46    1
    91    45    47    1
    92    71    69   ar
    93    21    22    1
    94   115   114    2
    95    23    22    1
    96    23    24    2
    97    68    67   ar
    98   123   121   ar
    99   124   122   ar
   100    22    25    1
   101   147   146    1
   102   147   148   ar
   103   150   148   ar
   104   144   145    2
   105   144   143    1
   106   121   119   ar
   107   121   120   ar
   108    69    67   ar
   109   146   143    1
   110   114   113    1
   111   122   119   ar
   112    67    66    1
   113    80    79    1
   114    80    81    1
   115   119   117   ar
   116    77    76    2
   117   120   118   ar
   118    79    78    2
   119    65    64    2
   120    64    63    1
   121    76    75    1
   122   143   142    1
   123    25    26    1
   124   112   113    1
   125   117   118   ar
   126   117   116    1
   127   113   116    1
   128     8     7    2
   129    66    63    1
   130    26    27    1
   131     9     7   am
   132   141   139   ar
   133    63    62    1
   134    78    75    1
   135     7     6    1
   136    75    74    1
   137   163   162   ar
   138   163   161   ar
   139     4     3    2
   140   162   160   ar
   141    27    28    1
   142   161   159   ar
   143   139   140   ar
   144   139   138    1
   145     6     5    1
   146     5     2    1
   147     3     2    1
   148   160   159   ar
   149   138   135    1
   150   159   158    1
   151     2     1    1
   152    28    29    1
   153   134   135    1
   154   135   136    1
   155   158   155    1
   156   137   136    2
   157   155   156    1
   158   155   154    1
   159   156   157    2
