@<TRIPOS>MOLECULE
tmp/5ohxA01.pdb
 170 163 0 0 0
SMALL
GASTEIGER

@<TRIPOS>ATOM
      1  N         10.9990  -36.6450  -18.9590 N.3    72  SER72      -0.1202
      2  CA         9.5740  -36.3720  -18.8600 C.3    72  SER72       0.2020
      3  C          9.2090  -36.0980  -17.4070 C.2    72  SER72       0.2619
      4  O         10.0510  -36.1650  -16.5090 O.2    72  SER72      -0.2717
      5  CB         8.7640  -37.5430  -19.4120 C.3    72  SER72       0.2103
      6  OG         8.9680  -38.7060  -18.6250 O.3    72  SER72      -0.2182
      7  N          7.9300  -35.7970  -17.1810 N.am   73  VAL73      -0.1965
      8  CA         7.4530  -35.6010  -15.8200 C.3    73  VAL73       0.1727
      9  C          7.2520  -36.9490  -15.1310 C.2    73  VAL73       0.2616
     10  O          7.3580  -37.0510  -13.8990 O.2    73  VAL73      -0.2715
     11  CB         6.1610  -34.7580  -15.8340 C.3    73  VAL73       0.0290
     12  CG1        5.0420  -35.4910  -16.5560 C.3    73  VAL73       0.0023
     13  CG2        5.7480  -34.3730  -14.4220 C.3    73  VAL73       0.0023
     14  N          7.0000  -38.0020  -15.9140 N.am   74  LYS74      -0.1977
     15  CA         6.6500  -39.3010  -15.3560 C.3    74  LYS74       0.1596
     16  C          7.7270  -39.8540  -14.4320 C.2    74  LYS74       0.2287
     17  O          7.4090  -40.6720  -13.5580 O.2    74  LYS74      -0.2864
     18  CB         6.3550  -40.2850  -16.4850 C.3    74  LYS74       0.0298
     19  CG         5.1070  -39.9420  -17.2860 C.3    74  LYS74       0.0038
     20  CD         3.8670  -39.9340  -16.4050 C.3    74  LYS74       0.0206
     21  CE         2.6140  -39.6810  -17.2240 C.3    74  LYS74       0.1093
     22  NZ         2.6880  -38.3740  -17.9270 N.3    74  LYS74      -0.1314
     23  N          3.6210  -44.7690  -22.8290 N.3   103  GLY103     -0.1210
     24  CA         4.0440  -43.3950  -22.6770 C.3   103  GLY103      0.1956
     25  C          5.3710  -43.2750  -21.9600 C.2   103  GLY103      0.2611
     26  O          6.2050  -44.1830  -21.9650 O.2   103  GLY103     -0.2717
     27  N          5.5670  -42.1140  -21.3350 N.am  104  ASN104     -0.1974
     28  CA         6.8290  -41.8320  -20.6670 C.3   104  ASN104      0.1688
     29  C          6.9700  -42.5730  -19.3450 C.2   104  ASN104      0.2292
     30  O          8.0960  -42.7420  -18.8600 O.2   104  ASN104     -0.2864
     31  CB         6.9650  -40.3300  -20.4380 C.3   104  ASN104      0.1181
     32  CG         6.8090  -39.5310  -21.7140 C.2   104  ASN104      0.2629
     33  OD1        7.7860  -39.2400  -22.4040 O.2   104  ASN104     -0.2716
     34  ND2        5.5730  -39.1720  -22.0370 N.am  104  ASN104     -0.0877
     35  N         -0.2530  -46.8720  -12.6420 N.3   177  GLN177     -0.1245
     36  CA        -0.2520  -45.4200  -12.5100 C.3   177  GLN177      0.1566
     37  C         -1.6580  -44.8290  -12.4460 C.2   177  GLN177      0.2260
     38  O         -1.8290  -43.7010  -11.9660 O.2   177  GLN177     -0.2867
     39  CB         0.5230  -44.8190  -13.6920 C.3   177  GLN177      0.0367
     40  CG        -0.2610  -44.7950  -14.9970 C.3   177  GLN177      0.0905
     41  CD         0.5930  -44.4030  -16.1860 C.2   177  GLN177      0.2608
     42  OE1        0.5490  -43.2640  -16.6520 O.2   177  GLN177     -0.2717
     43  NE2        1.3820  -45.3480  -16.6800 N.am  177  GLN177     -0.0878
     44  N          1.1510  -41.6430   -7.8850 N.3   183  ASN183     -0.1240
     45  CA         1.0980  -40.7560   -9.0460 C.3   183  ASN183      0.1653
     46  C          0.6550  -39.3420   -8.6770 C.2   183  ASN183      0.2266
     47  O          1.4300  -38.3960   -8.9000 O.2   183  ASN183     -0.2867
     48  CB         0.2240  -41.3980  -10.1290 C.3   183  ASN183      0.1155
     49  CG        -0.0150  -40.4830  -11.3110 C.2   183  ASN183      0.2627
     50  OD1        0.8130  -39.6330  -11.6380 O.2   183  ASN183     -0.2716
     51  ND2       -1.1580  -40.6550  -11.9620 N.am  183  ASN183     -0.0877
     52  N          3.2540  -35.2540   -7.2520 N.3   187  HIS187     -0.1241
     53  CA         3.0600  -33.8510   -7.5930 C.3   187  HIS187      0.1621
     54  C          2.4840  -33.0560   -6.4310 C.2   187  HIS187      0.2264
     55  O          2.7710  -31.8610   -6.3000 O.2   187  HIS187     -0.2867
     56  CB         2.1530  -33.7380   -8.8150 C.3   187  HIS187      0.0745
     57  CG         2.5910  -34.5930   -9.9610 C.ar  187  HIS187      0.0817
     58  ND1        3.7090  -34.3090  -10.7140 N.ar  187  HIS187     -0.2268
     59  CD2        2.0730  -35.7350  -10.4710 C.ar  187  HIS187      0.1154
     60  CE1        3.8560  -35.2340  -11.6460 C.ar  187  HIS187      0.1986
     61  NE2        2.8760  -36.1100  -11.5210 N.ar  187  HIS187     -0.2212
     62  N         -2.4240  -30.4430  -18.7160 N.3   209  GLY209     -0.1210
     63  CA        -3.2100  -31.4880  -19.3340 C.3   209  GLY209      0.1956
     64  C         -3.2600  -32.7250  -18.4560 C.2   209  GLY209      0.2612
     65  O         -2.3270  -33.0210  -17.7140 O.2   209  GLY209     -0.2717
     66  N         -4.3750  -33.4460  -18.5310 N.am  210  ALA210     -0.1965
     67  CA        -4.5400  -34.6800  -17.7710 C.3   210  ALA210      0.1728
     68  C         -4.6660  -35.8460  -18.7400 C.2   210  ALA210      0.2617
     69  O         -5.6660  -35.9510  -19.4570 O.2   210  ALA210     -0.2715
     70  CB        -5.7660  -34.5960  -16.8630 C.3   210  ALA210      0.0334
     71  N         -3.6320  -36.6830  -18.8210 N.am  211  GLY211     -0.1940
     72  CA        -3.8780  -38.0450  -19.2460 C.3   211  GLY211      0.2014
     73  C         -4.4810  -38.9040  -18.1510 C.2   211  GLY211      0.2640
     74  O         -5.5950  -39.4160  -18.2840 O.2   211  GLY211     -0.2714
     75  N         -3.7760  -39.0050  -17.0250 N.am  212  THR212     -0.1936
     76  CA        -4.2550  -39.7400  -15.8630 C.3   212  THR212      0.2028
     77  C         -4.8550  -38.8360  -14.8000 C.2   212  THR212      0.2643
     78  O         -5.4010  -39.3370  -13.8120 O.2   212  THR212     -0.2714
     79  CB        -3.1140  -40.5630  -15.2520 C.3   212  THR212      0.1808
     80  OG1       -2.1930  -39.6880  -14.5910 O.3   212  THR212     -0.2208
     81  CG2       -2.3730  -41.3230  -16.3360 C.3   212  THR212      0.0379
     82  N         -4.7910  -37.5210  -14.9890 N.am  213  GLY213     -0.1939
     83  CA        -5.1680  -36.5890  -13.9530 C.3   213  GLY213      0.2014
     84  C         -4.2160  -36.4960  -12.7820 C.2   213  GLY213      0.2639
     85  O         -4.4660  -35.6990  -11.8730 O.2   213  GLY213     -0.2714
     86  N         -3.1290  -37.2720  -12.7720 N.am  214  GLY214     -0.1939
     87  CA        -2.2410  -37.2700  -11.6180 C.3   214  GLY214      0.2014
     88  C         -1.6420  -35.9050  -11.3330 C.2   214  GLY214      0.2640
     89  O         -1.7250  -35.3960  -10.2100 O.2   214  GLY214     -0.2714
     90  N         -1.0290  -35.2940  -12.3480 N.am  215  THR215     -0.1936
     91  CA        -0.3960  -33.9890  -12.1770 C.3   215  THR215      0.2028
     92  C         -1.4050  -32.9460  -11.7120 C.2   215  THR215      0.2642
     93  O         -1.2340  -32.3130  -10.6610 O.2   215  THR215     -0.2714
     94  CB         0.2600  -33.5560  -13.4930 C.3   215  THR215      0.1808
     95  OG1        1.3510  -34.4330  -13.8020 O.3   215  THR215     -0.2208
     96  CG2        0.7720  -32.1310  -13.3980 C.3   215  THR215      0.0379
     97  N         -2.4870  -32.7790  -12.4740 N.am  216  ILE216     -0.1977
     98  CA        -3.4360  -31.7050  -12.2030 C.3   216  ILE216      0.1596
     99  C         -4.1400  -31.9140  -10.8680 C.2   216  ILE216      0.2287
    100  O         -4.5020  -30.9420  -10.1940 O.2   216  ILE216     -0.2864
    101  CB        -4.4360  -31.5840  -13.3730 C.3   216  ILE216      0.0276
    102  CG1       -5.1290  -30.2210  -13.3500 C.3   216  ILE216      0.0022
    103  CG2       -5.4440  -32.7310  -13.3620 C.3   216  ILE216      0.0022
    104  CD1       -4.2010  -29.0700  -13.6590 C.3   216  ILE216      0.0001
    105  N          0.1800  -36.9390  -27.9470 N.3   255  GLU255     -0.1231
    106  CA         0.3930  -38.0540  -27.0380 C.3   255  GLU255      0.1699
    107  C          0.4660  -37.5650  -25.5980 C.2   255  GLU255      0.2593
    108  O          1.0110  -36.4930  -25.3210 O.2   255  GLU255     -0.2718
    109  CB         1.6780  -38.8000  -27.4010 C.3   255  GLU255      0.0402
    110  CG         1.8310  -39.0780  -28.8900 C.3   255  GLU255      0.1161
    111  CD         3.1640  -39.7150  -29.2330 C.2   255  GLU255      0.3649
    112  OE1        3.8410  -40.2100  -28.3080 O.co2 255  GLU255     -0.2457
    113  OE2        3.5360  -39.7160  -30.4250 O.co2 255  GLU255     -0.2457
    114  N         -0.0850  -38.3620  -24.6830 N.am  256  GLY256     -0.1942
    115  CA         0.0800  -38.1640  -23.2590 C.3   256  GLY256      0.2014
    116  C         -1.1300  -37.6280  -22.5210 C.2   256  GLY256      0.2638
    117  O         -1.1850  -37.7570  -21.2920 O.2   256  GLY256     -0.2714
    118  N         -2.1060  -37.0480  -23.2130 N.am  257  ILE257     -0.1977
    119  CA        -3.2780  -36.4830  -22.5530 C.3   257  ILE257      0.1596
    120  C         -4.5370  -37.1690  -23.0660 C.2   257  ILE257      0.2287
    121  O         -4.6680  -37.4480  -24.2630 O.2   257  ILE257     -0.2864
    122  CB        -3.3650  -34.9540  -22.7470 C.3   257  ILE257      0.0276
    123  CG1       -3.2050  -34.5780  -24.2190 C.3   257  ILE257      0.0022
    124  CG2       -2.3110  -34.2510  -21.9040 C.3   257  ILE257      0.0022
    125  CD1       -3.3420  -33.0920  -24.4740 C.3   257  ILE257      0.0001
    126  N         -7.9340  -40.0720  -22.0850 N.3   259  TYR259     -0.1241
    127  CA        -8.1530  -41.5110  -22.0640 C.3   259  TYR259      0.1605
    128  C         -9.6240  -41.7850  -22.3360 C.2   259  TYR259      0.2264
    129  O        -10.4720  -40.8980  -22.2140 O.2   259  TYR259     -0.2867
    130  CB        -7.7440  -42.1390  -20.7250 C.3   259  TYR259      0.0534
    131  CG        -6.2780  -42.4910  -20.6190 C.ar  259  TYR259     -0.0201
    132  CD1       -5.3550  -41.5660  -20.1570 C.ar  259  TYR259     -0.0009
    133  CD2       -5.8190  -43.7510  -20.9730 C.ar  259  TYR259     -0.0009
    134  CE1       -4.0160  -41.8750  -20.0510 C.ar  259  TYR259      0.0417
    135  CE2       -4.4800  -44.0730  -20.8720 C.ar  259  TYR259      0.0417
    136  CZ        -3.5830  -43.1290  -20.4090 C.ar  259  TYR259      0.1957
    137  OH        -2.2460  -43.4370  -20.3020 O.3   259  TYR259     -0.2866
    138  N          1.8650  -32.1630  -25.8940 N.3   300  SER300     -0.1217
    139  CA         1.0240  -31.8500  -24.7420 C.3   300  SER300      0.1889
    140  C          1.3600  -30.4750  -24.1790 C.2   300  SER300      0.2288
    141  O          0.4740  -29.7480  -23.7100 O.2   300  SER300     -0.2866
    142  CB         1.1850  -32.9300  -23.6700 C.3   300  SER300      0.2089
    143  OG         2.5460  -33.0920  -23.3060 O.3   300  SER300     -0.2183
    144  N          4.9750  -31.1790  -20.0340 N.3   326  PRO326     -0.2102
    145  CA         5.2540  -32.5260  -19.5030 C.3   326  PRO326      0.1504
    146  C          6.5380  -33.1740  -19.9990 C.2   326  PRO326      0.2575
    147  O          7.2130  -33.8460  -19.2100 O.2   326  PRO326     -0.2718
    148  CB         4.0150  -33.3210  -19.9330 C.3   326  PRO326      0.0282
    149  CG         2.9480  -32.2820  -20.1070 C.3   326  PRO326      0.0208
    150  CD         3.6610  -31.1060  -20.6880 C.3   326  PRO326      0.0893
    151  N          6.9040  -33.0120  -21.2700 N.am  327  ASP327     -0.1974
    152  CA         8.0680  -33.7230  -21.7900 C.3   327  ASP327      0.1708
    153  C          8.6800  -32.9470  -22.9500 C.2   327  ASP327      0.2293
    154  O          8.1740  -31.9020  -23.3650 O.2   327  ASP327     -0.2864
    155  CB         7.7020  -35.1530  -22.2090 C.3   327  ASP327      0.1436
    156  CG         6.7600  -35.2000  -23.4000 C.2   327  ASP327      0.3671
    157  OD1        6.1310  -34.1680  -23.7200 O.co2 327  ASP327     -0.2456
    158  OD2        6.6340  -36.2860  -24.0070 O.co2 327  ASP327     -0.2456
    159  N          9.4320  -37.0080  -30.1080 N.3   332  TYR332     -0.1241
    160  CA         8.6760  -36.4690  -31.2280 C.3   332  TYR332      0.1605
    161  C          9.5460  -36.0290  -32.4020 C.2   332  TYR332      0.2264
    162  O          9.0240  -35.4250  -33.3430 O.2   332  TYR332     -0.2867
    163  CB         7.8060  -35.3160  -30.7420 C.3   332  TYR332      0.0534
    164  CG         7.0050  -35.6690  -29.5100 C.ar  332  TYR332     -0.0201
    165  CD1        5.8710  -36.4640  -29.5970 C.ar  332  TYR332     -0.0009
    166  CD2        7.3900  -35.2160  -28.2570 C.ar  332  TYR332     -0.0009
    167  CE1        5.1390  -36.7930  -28.4700 C.ar  332  TYR332      0.0417
    168  CE2        6.6650  -35.5400  -27.1260 C.ar  332  TYR332      0.0417
    169  CZ         5.5410  -36.3270  -27.2370 C.ar  332  TYR332      0.1957
    170  OH         4.8220  -36.6450  -26.1080 O.3   332  TYR332     -0.2866
@<TRIPOS>BOND
     1   162   161    2
     2   161   160    1
     3   160   163    1
     4   160   159    1
     5   163   164    1
     6   113   111   ar
     7   165   164   ar
     8   165   167   ar
     9   164   166   ar
    10   111   110    1
    11   111   112   ar
    12   110   109    1
    13   167   169   ar
    14   166   168   ar
    15   105   106    1
    16   109   106    1
    17   169   168   ar
    18   169   170    1
    19   106   107    1
    20   138   139    1
    21   107   108    2
    22   107   114   am
    23   139   140    1
    24   139   142    1
    25   114   115    1
    26   125   123    1
    27   121   120    2
    28   123   122    1
    29   140   141    2
    30   158   156   ar
    31   157   156   ar
    32   142   143    1
    33   156   155    1
    34   154   153    2
    35   115   116    1
    36   118   119    1
    37   118   116   am
    38   120   119    1
    39   153   152    1
    40    23    24    1
    41   122   119    1
    42   122   124    1
    43    24    25    1
    44   116   117    2
    45    33    32    2
    46   128   129    2
    47   128   127    1
    48   155   152    1
    49   126   127    1
    50   127   130    1
    51    34    32   am
    52    26    25    2
    53    25    27   am
    54   152   151    1
    55    32    31    1
    56    27    28    1
    57   151   146   am
    58   133   135   ar
    59   133   131   ar
    60   135   136   ar
    61   130   131    1
    62   150   149    1
    63   150   144    1
    64    28    31    1
    65    28    29    1
    66   131   132   ar
    67   136   137    1
    68   136   134   ar
    69   132   134   ar
    70   149   148    1
    71   144   145    1
    72   146   145    1
    73   146   147    2
    74   148   145    1
    75    69    68    2
    76     5     2    1
    77     5     6    1
    78    29    30    2
    79    63    62    1
    80    63    64    1
    81    72    71    1
    82    72    73    1
    83     1     2    1
    84     2     3    1
    85    71    68   am
    86    68    67    1
    87    66    64   am
    88    66    67    1
    89    64    65    2
    90    74    73    2
    91    73    75   am
    92    22    21    1
    93    67    70    1
    94     3     7   am
    95     3     4    2
    96    19    18    1
    97    19    20    1
    98    21    20    1
    99     7     8    1
   100    75    76    1
   101    43    41   am
   102    42    41    2
   103    12    11    1
   104    18    15    1
   105    81    79    1
   106    41    40    1
   107    14    15    1
   108    14     9   am
   109    76    79    1
   110    76    77    1
   111    11     8    1
   112    11    13    1
   113     8     9    1
   114    15    16    1
   115    79    80    1
   116     9    10    2
   117    40    39    1
   118    82    77   am
   119    82    83    1
   120    77    78    2
   121    16    17    2
   122    83    84    1
   123    95    94    1
   124    39    36    1
   125   104   102    1
   126    94    96    1
   127    94    91    1
   128   101   103    1
   129   101   102    1
   130   101    98    1
   131    84    86   am
   132    84    85    2
   133    86    87    1
   134    35    36    1
   135    36    37    1
   136    97    98    1
   137    97    92   am
   138    37    38    2
   139    90    91    1
   140    90    88   am
   141    98    99    1
   142    91    92    1
   143    51    49   am
   144    92    93    2
   145    60    61   ar
   146    60    58   ar
   147    50    49    2
   148    87    88    1
   149    61    59   ar
   150    88    89    2
   151    49    48    1
   152    99   100    2
   153    58    57   ar
   154    59    57   ar
   155    48    45    1
   156    57    56    1
   157    45    46    1
   158    45    44    1
   159    47    46    2
   160    56    53    1
   161    53    52    1
   162    53    54    1
   163    54    55    2
