@<TRIPOS>MOLECULE
tmp/5ohxA00.pdb
 182 182 0 0 0
SMALL
GASTEIGER

@<TRIPOS>ATOM
      1  N        -12.4080  -47.6310  -11.7630 N.3     4  ARG4       -0.1231
      2  CA       -13.2170  -47.7360  -10.5590 C.3     4  ARG4        0.1679
      3  C        -13.2480  -46.3910   -9.8300 C.2     4  ARG4        0.2434
      4  O        -12.3460  -45.5620   -9.9970 O.2     4  ARG4       -0.2733
      5  CB       -12.6590  -48.8180   -9.6340 C.3     4  ARG4        0.0321
      6  CG       -11.5400  -48.3300   -8.7390 C.3     4  ARG4        0.0489
      7  CD       -10.7380  -49.4730   -8.1560 C.3     4  ARG4        0.2205
      8  NE        -9.5720  -48.9810   -7.4280 N.pl3   4  ARG4       -0.0865
      9  CZ        -8.5480  -49.7400   -7.0510 C.cat   4  ARG4        0.5346
     10  NH1       -8.5380  -51.0350   -7.3360 N.pl3   4  ARG4        0.1354
     11  NH2       -7.5300  -49.2020   -6.3930 N.pl3   4  ARG4        0.1354
     12  N        -14.2850  -46.1330   -9.0340 N.am    5  PRO5       -0.2718
     13  CA       -14.3180  -44.8870   -8.2620 C.3     5  PRO5        0.1535
     14  C        -13.3020  -44.9060   -7.1310 C.2     5  PRO5        0.2599
     15  O        -12.9460  -45.9590   -6.5960 O.2     5  PRO5       -0.2715
     16  CB       -15.7520  -44.8380   -7.7240 C.3     5  PRO5        0.0310
     17  CG       -16.1800  -46.2570   -7.6780 C.3     5  PRO5        0.0237
     18  CD       -15.5190  -46.9190   -8.8590 C.3     5  PRO5        0.0939
     19  N        -12.8340  -43.7150   -6.7720 N.am    6  SER6       -0.1936
     20  CA       -11.8040  -43.5830   -5.7530 C.3     6  SER6        0.2055
     21  C        -12.4030  -43.6900   -4.3580 C.2     6  SER6        0.2643
     22  O        -13.4860  -43.1620   -4.0880 O.2     6  SER6       -0.2714
     23  CB       -11.0690  -42.2500   -5.9030 C.3     6  SER6        0.2130
     24  OG        -9.9720  -42.1690   -5.0080 O.3     6  SER6       -0.2179
     25  N        -11.6930  -44.3870   -3.4740 N.am    7  TYR7       -0.1959
     26  CA       -12.0660  -44.4860   -2.0690 C.3     7  TYR7        0.1771
     27  C        -11.3700  -43.4490   -1.1970 C.2     7  TYR7        0.2620
     28  O        -11.5600  -43.4620    0.0240 O.2     7  TYR7       -0.2715
     29  CB       -11.7550  -45.8870   -1.5270 C.3     7  TYR7        0.0574
     30  CG       -12.7660  -46.9550   -1.8900 C.ar    7  TYR7       -0.0198
     31  CD1      -13.6220  -46.8000   -2.9730 C.ar    7  TYR7       -0.0009
     32  CD2      -12.8690  -48.1160   -1.1350 C.ar    7  TYR7       -0.0009
     33  CE1      -14.5440  -47.7770   -3.3000 C.ar    7  TYR7        0.0417
     34  CE2      -13.7880  -49.0970   -1.4520 C.ar    7  TYR7        0.0417
     35  CZ       -14.6230  -48.9240   -2.5350 C.ar    7  TYR7        0.1957
     36  OH       -15.5380  -49.9010   -2.8510 O.3     7  TYR7       -0.2866
     37  N        -10.5680  -42.5640   -1.7870 N.am    8  CYS8       -0.1954
     38  CA        -9.8100  -41.5950   -1.0060 C.3     8  CYS8        0.1843
     39  C        -10.7470  -40.6680   -0.2430 C.2     8  CYS8        0.2626
     40  O        -11.6590  -40.0690   -0.8210 O.2     8  CYS8       -0.2714
     41  CB        -8.8900  -40.7860   -1.9200 C.3     8  CYS8        0.0997
     42  SG        -7.7540  -39.6820   -1.0480 S.3     8  CYS8       -0.0797
     43  N        -10.5170  -40.5530    1.0620 N.am    9  THR9       -0.1936
     44  CA       -11.3490  -39.7530    1.9500 C.3     9  THR9        0.2028
     45  C        -10.8230  -38.3340    2.1400 C.2     9  THR9        0.2642
     46  O        -11.3740  -37.5900    2.9590 O.2     9  THR9       -0.2714
     47  CB       -11.4860  -40.4430    3.3120 C.3     9  THR9        0.1808
     48  OG1      -10.2170  -40.4620    3.9770 O.3     9  THR9       -0.2208
     49  CG2      -11.9810  -41.8720    3.1360 C.3     9  THR9        0.0379
     50  N         -9.7630  -37.9560    1.4260 N.am   10  TRP10      -0.1973
     51  CA        -9.1820  -36.6250    1.5700 C.3    10  TRP10       0.1640
     52  C        -10.2190  -35.5340    1.3390 C.2    10  TRP10       0.2290
     53  O        -11.0470  -35.6170    0.4270 O.2    10  TRP10      -0.2864
     54  CB        -8.0240  -36.4400    0.5860 C.3    10  TRP10       0.0576
     55  CG        -7.4930  -35.0290    0.5360 C.ar   10  TRP10       0.0006
     56  CD1       -6.5150  -34.4930    1.3230 C.ar   10  TRP10       0.0946
     57  CD2       -7.9130  -33.9800   -0.3490 C.ar   10  TRP10       0.0152
     58  NE1       -6.3000  -33.1790    0.9850 N.ar   10  TRP10      -0.2442
     59  CE2       -7.1460  -32.8390   -0.0380 C.ar   10  TRP10       0.0810
     60  CE3       -8.8640  -33.8940   -1.3720 C.ar   10  TRP10       0.0012
     61  CZ2       -7.2990  -31.6280   -0.7140 C.ar   10  TRP10       0.0191
     62  CZ3       -9.0140  -32.6900   -2.0430 C.ar   10  TRP10       0.0001
     63  CH2       -8.2370  -31.5740   -1.7090 C.ar   10  TRP10       0.0015
     64  N         -7.0540  -31.3630    5.2060 N.3    14  ALA14      -0.1231
     65  CA        -7.1330  -32.4530    6.1690 C.3    14  ALA14       0.1694
     66  C         -5.7470  -32.7810    6.7150 C.2    14  ALA14       0.2593
     67  O         -4.7350  -32.6390    6.0240 O.2    14  ALA14      -0.2718
     68  CB        -7.7610  -33.6930    5.5340 C.3    14  ALA14       0.0304
     69  N         -5.7090  -33.2230    7.9740 N.am   15  THR15      -0.1939
     70  CA        -4.4400  -33.3740    8.7000 C.3    15  THR15       0.2028
     71  C         -3.8620  -34.7820    8.5780 C.2    15  THR15       0.2642
     72  O         -2.8650  -34.9950    7.8810 O.2    15  THR15      -0.2714
     73  CB        -4.6300  -32.9990   10.1720 C.3    15  THR15       0.1808
     74  OG1       -5.7340  -33.7320   10.7150 O.3    15  THR15      -0.2208
     75  CG2       -4.8910  -31.5080   10.3160 C.3    15  THR15       0.0379
     76  N         -4.4800  -35.7520    9.2480 N.am   16  ASN16      -0.1957
     77  CA        -3.8900  -37.0810    9.3640 C.3    16  ASN16       0.1819
     78  C         -4.1550  -37.8750    8.0910 C.2    16  ASN16       0.2622
     79  O         -5.3140  -38.0890    7.7180 O.2    16  ASN16      -0.2715
     80  CB        -4.4530  -37.8010   10.5890 C.3    16  ASN16       0.1195
     81  CG        -3.3960  -38.5820   11.3440 C.2    16  ASN16       0.2630
     82  OD1       -2.5770  -39.2790   10.7440 O.2    16  ASN16      -0.2716
     83  ND2       -3.4000  -38.4620   12.6680 N.am   16  ASN16      -0.0877
     84  N         -3.0840  -38.3190    7.4290 N.am   17  SER17      -0.1936
     85  CA        -3.1940  -39.0230    6.1620 C.3    17  SER17       0.2040
     86  C         -2.4610  -40.3560    6.2160 C.2    17  SER17       0.2485
     87  O         -1.3670  -40.4430    6.7850 O.2    17  SER17      -0.2729
     88  CB        -2.6170  -38.1760    5.0200 C.3    17  SER17       0.2129
     89  OG        -2.5300  -38.9280    3.8220 O.3    17  SER17      -0.2179
     90  N         -3.0280  -41.4060    5.6140 N.am   18  PRO18      -0.2715
     91  CA        -2.3300  -42.7010    5.5830 C.3    18  PRO18       0.1536
     92  C         -1.1210  -42.7250    4.6640 C.2    18  PRO18       0.2598
     93  O         -0.2250  -43.5530    4.8690 O.2    18  PRO18      -0.2715
     94  CB        -3.4170  -43.6680    5.0960 C.3    18  PRO18       0.0310
     95  CG        -4.3090  -42.8120    4.2570 C.3    18  PRO18       0.0237
     96  CD        -4.3250  -41.4580    4.9180 C.3    18  PRO18       0.0939
     97  N         -1.0700  -41.8530    3.6630 N.am   19  HIS19      -0.1974
     98  CA        -0.0370  -41.8960    2.6420 C.3    19  HIS19       0.1656
     99  C          1.2960  -41.3730    3.1700 C.2    19  HIS19       0.2291
    100  O          1.3630  -40.6220    4.1470 O.2    19  HIS19      -0.2864
    101  CB        -0.4610  -41.0810    1.4250 C.3    19  HIS19       0.0771
    102  CG        -1.8330  -41.4080    0.9270 C.ar   19  HIS19       0.0820
    103  ND1       -2.1490  -42.6240    0.3610 N.ar   19  HIS19      -0.2267
    104  CD2       -2.9720  -40.6770    0.9100 C.ar   19  HIS19       0.1154
    105  CE1       -3.4250  -42.6290    0.0190 C.ar   19  HIS19       0.1986
    106  NE2       -3.9470  -41.4590    0.3410 N.ar   19  HIS19      -0.2212
    107  N         -4.4150  -46.2360  -10.7440 N.3   179  THR179     -0.1218
    108  CA        -4.9650  -46.4020   -9.4020 C.3   179  THR179      0.1862
    109  C         -3.9880  -46.0630   -8.2810 C.2   179  THR179      0.2287
    110  O         -4.3810  -46.1040   -7.1110 O.2   179  THR179     -0.2866
    111  CB        -5.4630  -47.8380   -9.2020 C.3   179  THR179      0.1770
    112  OG1       -4.3610  -48.7480   -9.3150 O.3   179  THR179     -0.2211
    113  CG2       -6.5200  -48.1870  -10.2360 C.3   179  THR179      0.0375
    114  N         -1.8650  -44.1620   -5.6030 N.3   181  PRO181     -0.2116
    115  CA        -1.7590  -42.8420   -4.9570 C.3   181  PRO181      0.1372
    116  C         -0.4110  -42.1720   -5.1590 C.2   181  PRO181      0.2244
    117  O         -0.3250  -40.9430   -5.0480 O.2   181  PRO181     -0.2868
    118  CB        -2.0090  -43.1550   -3.4760 C.3   181  PRO181      0.0268
    119  CG        -2.7900  -44.4260   -3.4880 C.3   181  PRO181      0.0207
    120  CD        -2.2730  -45.2120   -4.6550 C.3   181  PRO181      0.0892
    121  N         -0.5370  -39.1150   -8.1080 N.3   184  PRO184     -0.2102
    122  CA        -0.8710  -37.7410   -7.7050 C.3   184  PRO184      0.1504
    123  C         -0.0730  -37.2580   -6.5070 C.2   184  PRO184      0.2575
    124  O          0.1440  -36.0470   -6.3700 O.2   184  PRO184     -0.2718
    125  CB        -2.3710  -37.8210   -7.3970 C.3   184  PRO184      0.0282
    126  CG        -2.5640  -39.2060   -6.9330 C.3   184  PRO184      0.0208
    127  CD        -1.6210  -40.0510   -7.7500 C.3   184  PRO184      0.0893
    128  N          0.3700  -38.1710   -5.6370 N.am  185  LEU185     -0.1980
    129  CA         1.0770  -37.7660   -4.4250 C.3   185  LEU185      0.1596
    130  C          2.4590  -37.2050   -4.7270 C.2   185  LEU185      0.2287
    131  O          2.9610  -36.3690   -3.9680 O.2   185  LEU185     -0.2864
    132  CB         1.2020  -38.9490   -3.4700 C.3   185  LEU185      0.0297
    133  CG         0.0270  -39.2180   -2.5400 C.3   185  LEU185      0.0022
    134  CD1        0.2060  -40.5870   -1.9230 C.3   185  LEU185      0.0001
    135  CD2       -0.0730  -38.1450   -1.4710 C.3   185  LEU185      0.0001
    136  N          1.6740  -33.6980   -5.5880 N.3   188  TYR188     -0.1241
    137  CA         1.1780  -33.0440   -4.3830 C.3   188  TYR188      0.1605
    138  C          2.3300  -32.6610   -3.4610 C.2   188  TYR188      0.2264
    139  O          2.3980  -31.5320   -2.9630 O.2   188  TYR188     -0.2867
    140  CB         0.1910  -33.9720   -3.6700 C.3   188  TYR188      0.0534
    141  CG        -0.3840  -33.4490   -2.3690 C.ar  188  TYR188     -0.0201
    142  CD1       -1.5270  -32.6600   -2.3600 C.ar  188  TYR188     -0.0009
    143  CD2        0.1960  -33.7750   -1.1470 C.ar  188  TYR188     -0.0009
    144  CE1       -2.0640  -32.1920   -1.1740 C.ar  188  TYR188      0.0417
    145  CE2       -0.3360  -33.3110    0.0450 C.ar  188  TYR188      0.0417
    146  CZ        -1.4650  -32.5200    0.0240 C.ar  188  TYR188      0.1957
    147  OH        -1.9990  -32.0550    1.2020 O.3   188  TYR188     -0.2866
    148  N         -4.3370  -33.1700  -10.4560 N.3   217  SER217     -0.1202
    149  CA        -5.0310  -33.4420   -9.1990 C.3   217  SER217      0.2020
    150  C         -4.1160  -33.2690   -7.9920 C.2   217  SER217      0.2619
    151  O         -4.5450  -32.7340   -6.9650 O.2   217  SER217     -0.2717
    152  CB        -5.6210  -34.8510   -9.2100 C.3   217  SER217      0.2103
    153  OG        -6.4190  -35.0540  -10.3630 O.3   217  SER217     -0.2182
    154  N         -2.8640  -33.7230   -8.0860 N.am  218  GLY218     -0.1956
    155  CA        -1.9370  -33.5040   -6.9860 C.3   218  GLY218      0.1869
    156  C         -1.6190  -32.0340   -6.7880 C.2   218  GLY218      0.2309
    157  O         -1.7460  -31.4960   -5.6780 O.2   218  GLY218     -0.2863
    158  N         -4.7360  -30.2650   -5.4790 N.3   221  ARG221     -0.1245
    159  CA        -5.0130  -30.4430   -4.0570 C.3   221  ARG221      0.1563
    160  C         -4.0530  -29.6230   -3.2030 C.2   221  ARG221      0.2260
    161  O         -4.4830  -28.8700   -2.3180 O.2   221  ARG221     -0.2867
    162  CB        -4.9380  -31.9240   -3.6830 C.3   221  ARG221      0.0307
    163  CG        -6.0890  -32.7570   -4.2220 C.3   221  ARG221      0.0489
    164  CD        -6.1120  -34.1560   -3.6200 C.3   221  ARG221      0.2205
    165  NE        -7.2890  -34.9080   -4.0480 N.pl3 221  ARG221     -0.0865
    166  CZ        -7.6320  -36.1020   -3.5770 C.cat 221  ARG221      0.5346
    167  NH1       -6.8900  -36.6940   -2.6510 N.pl3 221  ARG221      0.1354
    168  NH2       -8.7230  -36.7050   -4.0280 N.pl3 221  ARG221      0.1354
    169  N         -8.7410  -43.4290  -11.6040 N.3   264  THR264     -0.1203
    170  CA        -9.0440  -43.2810  -10.1860 C.3   264  THR264      0.1994
    171  C         -8.2760  -42.1210   -9.5660 C.2   264  THR264      0.2617
    172  O         -8.7950  -41.4430   -8.6710 O.2   264  THR264     -0.2717
    173  CB        -8.7260  -44.5850   -9.4530 C.3   264  THR264      0.1784
    174  OG1       -9.4930  -45.6500  -10.0270 O.3   264  THR264     -0.2211
    175  CG2       -9.0560  -44.4730   -7.9740 C.3   264  THR264      0.0376
    176  N         -7.0500  -41.8700  -10.0300 N.am  265  VAL265     -0.1979
    177  CA        -6.2360  -40.8240   -9.4250 C.3   265  VAL265      0.1595
    178  C         -6.7240  -39.4300   -9.7920 C.2   265  VAL265      0.2287
    179  O         -6.3390  -38.4540   -9.1380 O.2   265  VAL265     -0.2864
    180  CB        -4.7580  -40.9990   -9.8160 C.3   265  VAL265      0.0276
    181  CG1       -4.1700  -42.1960   -9.0980 C.3   265  VAL265      0.0022
    182  CG2       -4.6300  -41.1550  -11.3130 C.3   265  VAL265      0.0022
@<TRIPOS>BOND
     1     1     2    1
     2   169   170    1
     3   182   180    1
     4   107   108    1
     5     2     3    1
     6     2     5    1
     7   148   149    1
     8   153   152    1
     9   113   111    1
    10   170   171    1
    11   170   173    1
    12   176   171   am
    13   176   177    1
    14   174   173    1
    15     4     3    2
    16     3    12   am
    17   180   177    1
    18   180   181    1
    19   178   177    1
    20   178   179    2
    21     5     6    1
    22   171   172    2
    23   173   175    1
    24   108   111    1
    25   108   109    1
    26   112   111    1
    27   152   149    1
    28   149   150    1
    29    12    18    1
    30    12    13    1
    31    18    17    1
    32     6     7    1
    33   109   110    2
    34    13    16    1
    35    13    14    1
    36     7     8    1
    37   121   127    1
    38   121   122    1
    39   154   150   am
    40   154   155    1
    41   150   151    2
    42   127   126    1
    43    16    17    1
    44   122   125    1
    45   122   123    1
    46     8     9    2
    47   125   126    1
    48    10     9    1
    49    14    19   am
    50    14    15    2
    51     9    11    1
    52   155   156    1
    53   156   157    2
    54    19    20    1
    55   123   124    2
    56   123   128   am
    57    23    20    1
    58    23    24    1
    59    20    21    1
    60   128   129    1
    61   114   115    1
    62   114   120    1
    63   136   137    1
    64   158   159    1
    65   116   117    2
    66   116   115    1
    67   115   118    1
    68   130   129    1
    69   130   131    2
    70   120   119    1
    71   129   132    1
    72   137   140    1
    73   137   138    1
    74    21    22    2
    75    21    25   am
    76   163   162    1
    77   163   164    1
    78   159   162    1
    79   159   160    1
    80   165   164    1
    81   165   166    2
    82   168   166    1
    83   140   141    1
    84   166   167    1
    85   119   118    1
    86    25    26    1
    87   132   133    1
    88   138   139    2
    89    33    31   ar
    90    33    35   ar
    91   160   161    2
    92    31    30   ar
    93    36    35    1
    94   133   134    1
    95   133   135    1
    96    35    34   ar
    97   141   142   ar
    98   141   143   ar
    99   142   144   ar
   100    26    29    1
   101    26    27    1
   102    62    63   ar
   103    62    60   ar
   104    41    42    1
   105    41    38    1
   106    30    29    1
   107    30    32   ar
   108    37    27   am
   109    37    38    1
   110    63    61   ar
   111    34    32   ar
   112    60    57   ar
   113    27    28    2
   114   144   146   ar
   115   143   145   ar
   116    38    39    1
   117    40    39    2
   118    61    59   ar
   119    57    59   ar
   120    57    55   ar
   121    39    43   am
   122    59    58   ar
   123   105   106   ar
   124   105   103   ar
   125   146   145   ar
   126   146   147    1
   127   106   104   ar
   128   103   102   ar
   129    53    52    2
   130    55    54    1
   131    55    56   ar
   132    54    51    1
   133   104   102   ar
   134   102   101    1
   135    58    56   ar
   136    43    44    1
   137    52    51    1
   138   101    98    1
   139    50    51    1
   140    50    45   am
   141    44    45    1
   142    44    47    1
   143    45    46    2
   144    98    99    1
   145    98    97    1
   146    49    47    1
   147    99   100    2
   148    47    48    1
   149    97    92   am
   150    89    88    1
   151    95    96    1
   152    95    94    1
   153    92    93    2
   154    92    91    1
   155    96    90    1
   156    88    85    1
   157    94    91    1
   158    64    65    1
   159    68    65    1
   160    91    90    1
   161    90    86   am
   162    67    66    2
   163    85    86    1
   164    85    84    1
   165    65    66    1
   166    86    87    2
   167    66    69   am
   168    84    78   am
   169    79    78    2
   170    72    71    2
   171    69    70    1
   172    78    77    1
   173    71    70    1
   174    71    76   am
   175    70    73    1
   176    76    77    1
   177    77    80    1
   178    73    75    1
   179    73    74    1
   180    80    81    1
   181    82    81    2
   182    81    83   am
