@<TRIPOS>MOLECULE
tmp/5ohyB00.pdb
 158 153 0 0 0
SMALL
GASTEIGER

@<TRIPOS>ATOM
      1  N         -6.4510   48.9790   46.8520 N.3   244  LYS244     -0.1245
      2  CA        -5.3420   48.0620   47.0270 C.3   244  LYS244      0.1561
      3  C         -5.4700   47.3690   48.3780 C.2   244  LYS244      0.2260
      4  O         -4.4760   47.1920   49.1240 O.2   244  LYS244     -0.2867
      5  CB        -4.0020   48.7790   46.8400 C.3   244  LYS244      0.0271
      6  CG        -3.8410   50.0240   47.6590 C.3   244  LYS244      0.0035
      7  CD        -2.6260   50.8380   47.2220 C.3   244  LYS244      0.0206
      8  CE        -1.3200   50.2370   47.6060 C.3   244  LYS244      0.1093
      9  NZ        -0.1690   50.9910   47.0390 N.3   244  LYS244     -0.1314
     10  N         -4.2030   47.4610   41.9240 N.3   269  GLU269     -0.1245
     11  CA        -2.7980   47.3200   41.5910 C.3   269  GLU269      0.1567
     12  C         -2.1300   46.1910   42.4560 C.2   269  GLU269      0.2260
     13  O         -1.1290   45.6220   42.0430 O.2   269  GLU269     -0.2867
     14  CB        -2.0240   48.6430   41.7520 C.3   269  GLU269      0.0388
     15  CG        -2.0180   49.2370   43.1500 C.3   269  GLU269      0.1160
     16  CD        -1.0480   50.3840   43.3030 C.2   269  GLU269      0.3649
     17  OE1       -0.5550   50.9370   42.3060 O.co2 269  GLU269     -0.2457
     18  OE2       -0.7590   50.7540   44.4860 O.co2 269  GLU269     -0.2457
     19  N          3.1650   50.9590   51.3250 N.3   281  ALA281     -0.1231
     20  CA         2.6130   49.6980   50.8420 C.3   281  ALA281      0.1694
     21  C          2.8390   49.5940   49.3440 C.2   281  ALA281      0.2592
     22  O          1.9880   49.9960   48.5320 O.2   281  ALA281     -0.2718
     23  CB         1.1260   49.7110   51.1550 C.3   281  ALA281      0.0304
     24  N          4.0140   49.1400   48.9570 N.am  282  ARG282     -0.1966
     25  CA         4.3620   48.9360   47.5930 C.3   282  ARG282      0.1729
     26  C          3.8780   47.5410   47.1340 C.2   282  ARG282      0.2616
     27  O          3.2570   46.7930   47.9150 O.2   282  ARG282     -0.2715
     28  CB         5.8260   49.1220   47.3440 C.3   282  ARG282      0.0348
     29  CG         6.2900   50.5170   47.8860 C.3   282  ARG282      0.0492
     30  CD         7.6950   50.8440   47.4130 C.3   282  ARG282      0.2205
     31  NE         7.7190   51.1990   46.0110 N.pl3 282  ARG282     -0.0865
     32  CZ         8.7660   51.4890   45.2750 C.cat 282  ARG282      0.5346
     33  NH1        8.6020   51.7540   43.9720 N.pl3 282  ARG282      0.1354
     34  NH2       10.0140   51.5650   45.8010 N.pl3 282  ARG282      0.1354
     35  N          4.1220   47.2370   45.8620 N.am  283  LEU283     -0.1977
     36  CA         3.6500   46.0030   45.2710 C.3   283  LEU283      0.1596
     37  C          4.7710   44.9890   45.1180 C.2   283  LEU283      0.2287
     38  O          5.9500   45.3570   45.0980 O.2   283  LEU283     -0.2864
     39  CB         3.0390   46.3380   43.9020 C.3   283  LEU283      0.0297
     40  CG         2.0040   47.4620   43.8950 C.3   283  LEU283      0.0022
     41  CD1        1.5900   47.8040   42.4440 C.3   283  LEU283      0.0001
     42  CD2        0.8250   47.2290   44.8330 C.3   283  LEU283      0.0001
     43  N          6.6300   42.7460   42.7020 N.3   285  TRP285     -0.1241
     44  CA         6.8150   42.8720   41.2400 C.3   285  TRP285      0.1605
     45  C          7.0830   41.5310   40.5220 C.2   285  TRP285      0.2264
     46  O          8.1830   41.2380   40.0200 O.2   285  TRP285     -0.2867
     47  CB         7.8920   43.8700   40.8990 C.3   285  TRP285      0.0550
     48  CG         7.5660   45.2900   41.2910 C.ar  285  TRP285      0.0003
     49  CD1        6.5020   45.7500   42.0080 C.ar  285  TRP285      0.0946
     50  CD2        8.4020   46.4100   41.0440 C.ar  285  TRP285      0.0152
     51  NE1        6.5960   47.1200   42.1410 N.ar  285  TRP285     -0.2442
     52  CE2        7.7860   47.5260   41.5920 C.ar  285  TRP285      0.0810
     53  CE3        9.5920   46.5690   40.3590 C.ar  285  TRP285      0.0012
     54  CZ2        8.3280   48.8030   41.4730 C.ar  285  TRP285      0.0191
     55  CZ3       10.1300   47.8230   40.2450 C.ar  285  TRP285      0.0001
     56  CH2        9.4870   48.9250   40.7860 C.ar  285  TRP285      0.0015
     57  N         -1.9720   45.9780   37.1650 N.3   314  TYR314     -0.1241
     58  CA        -0.7140   46.7310   37.2210 C.3   314  TYR314      0.1605
     59  C          0.3990   45.8550   36.7260 C.2   314  TYR314      0.2264
     60  O          0.4620   44.6660   37.0930 O.2   314  TYR314     -0.2867
     61  CB        -0.4230   47.1510   38.7040 C.3   314  TYR314      0.0534
     62  CG         0.9200   47.8490   38.8340 C.ar  314  TYR314     -0.0201
     63  CD1        2.0990   47.1270   38.8370 C.ar  314  TYR314     -0.0009
     64  CD2        1.0260   49.2590   38.8740 C.ar  314  TYR314     -0.0009
     65  CE1        3.3190   47.7330   38.8750 C.ar  314  TYR314      0.0417
     66  CE2        2.2780   49.8900   38.9410 C.ar  314  TYR314      0.0417
     67  CZ         3.4020   49.1280   38.9370 C.ar  314  TYR314      0.1957
     68  OH         4.6290   49.7050   38.9520 O.3   314  TYR314     -0.2866
     69  N         -2.5110   49.7460   34.7460 N.3   385  MET385     -0.1245
     70  CA        -1.3850   50.7150   34.7760 C.3   385  MET385      0.1570
     71  C         -0.1580   50.0240   34.2280 C.2   385  MET385      0.2261
     72  O          0.2390   48.9450   34.7500 O.2   385  MET385     -0.2867
     73  CB        -1.1660   51.1500   36.2420 C.3   385  MET385      0.0387
     74  CG         0.0000   52.1750   36.4080 C.3   385  MET385      0.0595
     75  SD         0.0930   52.7210   38.1260 S.3   385  MET385     -0.1393
     76  CE        -1.0880   54.0030   38.1510 C.3   385  MET385      0.0692
     77  N          3.4490   50.7570   34.0000 N.3   387  ASP387     -0.1225
     78  CA         4.2390   51.7520   34.7540 C.3   387  ASP387      0.1805
     79  C          5.7150   51.6870   34.4110 C.2   387  ASP387      0.2597
     80  O          6.2050   50.7450   33.7500 O.2   387  ASP387     -0.2718
     81  CB         4.0460   51.4250   36.2340 C.3   387  ASP387      0.1424
     82  CG         4.4420   52.5500   37.1780 C.2   387  ASP387      0.3668
     83  OD1        4.6140   53.6890   36.7490 O.co2 387  ASP387     -0.2456
     84  OD2        4.5640   52.2730   38.3730 O.co2 387  ASP387     -0.2456
     85  N          6.4460   52.6960   34.8840 N.am  388  PHE388     -0.1976
     86  CA         7.8720   52.7880   34.7430 C.3   388  PHE388      0.1639
     87  C          8.3490   52.8710   33.3020 C.2   388  PHE388      0.2290
     88  O          7.5800   53.3140   32.4110 O.2   388  PHE388     -0.2864
     89  CB         8.5760   51.6630   35.5740 C.3   388  PHE388      0.0560
     90  CG         8.5130   51.8490   37.0770 C.ar  388  PHE388     -0.0200
     91  CD1        9.5010   52.5820   37.7570 C.ar  388  PHE388     -0.0042
     92  CD2        7.5270   51.2810   37.8040 C.ar  388  PHE388     -0.0042
     93  CE1        9.4500   52.6890   39.1650 C.ar  388  PHE388     -0.0003
     94  CE2        7.4660   51.3820   39.2080 C.ar  388  PHE388     -0.0003
     95  CZ         8.4300   52.1140   39.8690 C.ar  388  PHE388     -0.0000
     96  N          2.8590   56.4140   32.3590 N.3   437  ARG437     -0.1245
     97  CA         3.3460   57.6860   32.8420 C.3   437  ARG437      0.1563
     98  C          4.6190   58.0980   32.1360 C.2   437  ARG437      0.2260
     99  O          4.9440   59.3230   32.0570 O.2   437  ARG437     -0.2867
    100  CB         3.5910   57.6810   34.3820 C.3   437  ARG437      0.0307
    101  CG         4.8060   56.8380   34.8010 C.3   437  ARG437      0.0489
    102  CD         5.0010   56.8300   36.3390 C.3   437  ARG437      0.2205
    103  NE         6.2960   56.2620   36.6570 N.pl3 437  ARG437     -0.0865
    104  CZ         6.7620   56.0900   37.9060 C.cat 437  ARG437      0.5346
    105  NH1        6.0130   56.3340   38.9810 N.pl3 437  ARG437      0.1354
    106  NH2        7.9800   55.6210   38.0590 N.pl3 437  ARG437      0.1354
    107  N         -1.1580   58.9530   31.8580 N.3   451  TRP451     -0.1241
    108  CA        -1.4830   59.5700   33.1350 C.3   451  TRP451      0.1605
    109  C         -0.2990   60.4130   33.6200 C.2   451  TRP451      0.2264
    110  O          0.8870   60.1540   33.2400 O.2   451  TRP451     -0.2867
    111  CB        -2.0070   58.6240   34.2150 C.3   451  TRP451      0.0550
    112  CG        -1.1160   58.1590   35.3040 C.ar  451  TRP451      0.0003
    113  CD1       -1.0570   58.6900   36.5870 C.ar  451  TRP451      0.0946
    114  CD2       -0.2330   57.0540   35.2850 C.ar  451  TRP451      0.0152
    115  NE1       -0.2000   57.9830   37.3490 N.ar  451  TRP451     -0.2442
    116  CE2        0.3620   56.9830   36.5860 C.ar  451  TRP451      0.0810
    117  CE3        0.1080   56.1000   34.3350 C.ar  451  TRP451      0.0012
    118  CZ2        1.2900   55.9880   36.9270 C.ar  451  TRP451      0.0191
    119  CZ3        1.0680   55.1250   34.6760 C.ar  451  TRP451      0.0001
    120  CH2        1.6450   55.1020   35.9860 C.ar  451  TRP451      0.0015
    121  N          3.1400   60.4780   39.3560 N.3   454  ASP454     -0.1239
    122  CA         2.9350   60.7130   40.7750 C.3   454  ASP454      0.1674
    123  C          3.0120   62.2240   41.0880 C.2   454  ASP454      0.2266
    124  O          4.0690   62.8550   40.9280 O.2   454  ASP454     -0.2867
    125  CB         4.0560   60.0530   41.6080 C.3   454  ASP454      0.1410
    126  CG         4.2040   58.5540   41.4190 C.2   454  ASP454      0.3668
    127  OD1        3.3170   57.8980   40.7670 O.co2 454  ASP454     -0.2456
    128  OD2        5.2550   58.0630   41.9360 O.co2 454  ASP454     -0.2456
    129  N         -4.1420   60.6000   38.8790 N.3   486  ASP486     -0.1239
    130  CA        -4.6180   59.9980   40.0990 C.3   486  ASP486      0.1674
    131  C         -5.4730   61.0160   40.8640 C.2   486  ASP486      0.2266
    132  O         -4.9360   62.0740   41.3170 O.2   486  ASP486     -0.2867
    133  CB        -3.4320   59.5880   41.0330 C.3   486  ASP486      0.1410
    134  CG        -2.4170   58.7130   40.3630 C.2   486  ASP486      0.3668
    135  OD1       -2.7740   57.7270   39.6850 O.co2 486  ASP486     -0.2456
    136  OD2       -1.2010   58.9650   40.5840 O.co2 486  ASP486     -0.2456
    137  N         -0.7210   61.1530   44.6350 N.3   490  TYR490     -0.1241
    138  CA        -0.1340   59.8560   44.9780 C.3   490  TYR490      0.1605
    139  C          0.8200   59.9510   46.2170 C.2   490  TYR490      0.2264
    140  O          0.6430   59.2180   47.2020 O.2   490  TYR490     -0.2867
    141  CB         0.6190   59.2960   43.7850 C.3   490  TYR490      0.0534
    142  CG         1.3550   58.0280   44.1300 C.ar  490  TYR490     -0.0201
    143  CD1        0.7090   56.8200   44.2140 C.ar  490  TYR490     -0.0009
    144  CD2        2.7420   58.0760   44.5010 C.ar  490  TYR490     -0.0009
    145  CE1        1.3780   55.6600   44.6380 C.ar  490  TYR490      0.0417
    146  CE2        3.3930   56.9360   44.8800 C.ar  490  TYR490      0.0417
    147  CZ         2.6960   55.7160   44.9620 C.ar  490  TYR490      0.1957
    148  OH         3.3650   54.5690   45.3890 O.3   490  TYR490     -0.2866
    149  N         -7.0250   56.3140   43.5140 N.3   519  HIS519     -0.1241
    150  CA        -5.7680   55.6310   43.8730 C.3   519  HIS519      0.1621
    151  C         -5.6180   55.7700   45.4030 C.2   519  HIS519      0.2264
    152  O         -5.7610   56.8570   45.9430 O.2   519  HIS519     -0.2867
    153  CB        -4.5850   56.2620   43.1470 C.3   519  HIS519      0.0745
    154  CG        -3.3260   55.4480   43.1230 C.ar  519  HIS519      0.0817
    155  ND1       -3.0540   54.4260   44.0290 N.ar  519  HIS519     -0.2268
    156  CD2       -2.2520   55.5260   42.3040 C.ar  519  HIS519      0.1154
    157  CE1       -1.8630   53.9120   43.7370 C.ar  519  HIS519      0.1986
    158  NE2       -1.3630   54.5390   42.6840 N.ar  519  HIS519     -0.2212
@<TRIPOS>BOND
     1   107   108    1
     2    99    98    2
     3    98    97    1
     4    96    97    1
     5    88    87    2
     6    97   100    1
     7   108   109    1
     8   108   111    1
     9   110   109    2
    10    87    86    1
    11    80    79    2
    12    77    78    1
    13   111   112    1
    14    71    72    2
    15    71    70    1
    16   117   119   ar
    17   117   114   ar
    18   100   101    1
    19    79    78    1
    20    79    85   am
    21   119   120   ar
    22    86    85    1
    23    86    89    1
    24    69    70    1
    25    78    81    1
    26    70    73    1
    27   101   102    1
    28   114   112   ar
    29   114   116   ar
    30   112   113   ar
    31    89    90    1
    32   120   118   ar
    33    81    82    1
    34    73    74    1
    35   102   103    1
    36    74    75    1
    37   116   118   ar
    38   116   115   ar
    39   113   115   ar
    40   103   104    2
    41    59    60    2
    42    59    58    1
    43    83    82   ar
    44    90    91   ar
    45    90    92   ar
    46    57    58    1
    47    82    84   ar
    48    58    61    1
    49    91    93   ar
    50    92    94   ar
    51   104   106    1
    52   104   105    1
    53    75    76    1
    54    61    62    1
    55    62    63   ar
    56    62    64   ar
    57    63    65   ar
    58    64    66   ar
    59    65    67   ar
    60   129   130    1
    61    67    66   ar
    62    67    68    1
    63    93    95   ar
    64    94    95   ar
    65   121   122    1
    66   135   134   ar
    67    46    45    2
    68   130   131    1
    69   130   133    1
    70    55    53   ar
    71    55    56   ar
    72    53    50   ar
    73   134   136   ar
    74   134   133    1
    75    45    44    1
    76   127   126   ar
    77   122   123    1
    78   122   125    1
    79    56    54   ar
    80   131   132    2
    81    47    44    1
    82    47    48    1
    83   124   123    2
    84    50    48   ar
    85    50    52   ar
    86    44    43    1
    87    48    49   ar
    88   126   125    1
    89   126   128   ar
    90    54    52   ar
    91    11    14    1
    92    11    10    1
    93    11    12    1
    94    52    51   ar
    95    14    15    1
    96    49    51   ar
    97    13    12    2
    98   156   158   ar
    99   156   154   ar
   100    17    16   ar
   101    41    40    1
   102   158   157   ar
   103   154   153    1
   104   154   155   ar
   105   153   150    1
   106    15    16    1
   107    16    18   ar
   108   149   150    1
   109   157   155   ar
   110   141   142    1
   111   141   138    1
   112   150   151    1
   113    40    39    1
   114    40    42    1
   115    39    36    1
   116    33    32    1
   117   142   143   ar
   118   142   144   ar
   119   143   145   ar
   120   144   146   ar
   121   137   138    1
   122   145   147   ar
   123   146   147   ar
   124   147   148    1
   125   138   139    1
   126    38    37    2
   127    37    36    1
   128    36    35    1
   129    32    34    1
   130    32    31    2
   131   151   152    2
   132    35    26   am
   133    31    30    1
   134   139   140    2
   135     5     2    1
   136     5     6    1
   137     1     2    1
   138     2     3    1
   139     9     8    1
   140    26    25    1
   141    26    27    2
   142     7     8    1
   143     7     6    1
   144    28    25    1
   145    28    29    1
   146    30    29    1
   147    25    24    1
   148     3     4    2
   149    22    21    2
   150    24    21   am
   151    21    20    1
   152    20    23    1
   153    20    19    1
