@<TRIPOS>MOLECULE
tmp/5oi8A00.pdb
 82 81 0 0 0
SMALL
GASTEIGER

@<TRIPOS>ATOM
      1  N         35.1590  -33.8730  -20.4080 N.3    38  GLN38      -0.1245
      2  CA        34.3770  -34.1240  -21.6160 C.3    38  GLN38       0.1566
      3  C         32.8650  -34.2330  -21.3860 C.2    38  GLN38       0.2260
      4  O         32.0950  -33.7250  -22.1740 O.2    38  GLN38      -0.2867
      5  CB        34.8690  -35.3750  -22.3290 C.3    38  GLN38       0.0367
      6  CG        36.2860  -35.2530  -22.9280 C.3    38  GLN38       0.0905
      7  CD        36.6280  -36.4200  -23.9140 C.2    38  GLN38       0.2608
      8  OE1       35.8120  -37.2980  -24.1580 O.2    38  GLN38      -0.2717
      9  NE2       37.8270  -36.3970  -24.4790 N.am   38  GLN38      -0.0878
     10  N         31.8040  -30.7290  -20.8030 N.3    41  ALA41      -0.1231
     11  CA        31.8130  -29.9970  -22.0440 C.3    41  ALA41       0.1694
     12  C         30.5350  -30.2740  -22.8480 C.2    41  ALA41       0.2592
     13  O         29.8800  -29.3640  -23.3670 O.2    41  ALA41      -0.2718
     14  CB        33.0640  -30.3260  -22.8580 C.3    41  ALA41       0.0304
     15  N         30.1610  -31.5310  -22.9000 N.am   42  TYR42      -0.1976
     16  CA        28.9940  -31.9390  -23.6460 C.3    42  TYR42       0.1639
     17  C         27.7360  -31.4260  -23.0570 C.2    42  TYR42       0.2290
     18  O         26.8160  -30.9790  -23.7720 O.2    42  TYR42      -0.2864
     19  CB        28.9740  -33.4590  -23.6930 C.3    42  TYR42       0.0560
     20  CG        27.8560  -34.0390  -24.4850 C.ar   42  TYR42      -0.0198
     21  CD1       27.7640  -33.8050  -25.8520 C.ar   42  TYR42      -0.0009
     22  CD2       26.8370  -34.7940  -23.8550 C.ar   42  TYR42      -0.0009
     23  CE1       26.7150  -34.2890  -26.5800 C.ar   42  TYR42       0.0417
     24  CE2       25.7980  -35.3180  -24.6060 C.ar   42  TYR42       0.0417
     25  CZ        25.7520  -35.0680  -25.9630 C.ar   42  TYR42       0.1957
     26  OH        24.7400  -35.5660  -26.7300 O.3    42  TYR42      -0.2866
     27  N         27.3780  -27.7940  -24.0500 N.3    45  LEU45      -0.1245
     28  CA        26.8960  -27.6990  -25.4210 C.3    45  LEU45       0.1561
     29  C         25.3890  -27.8480  -25.4430 C.2    45  LEU45       0.2260
     30  O         24.7160  -27.0710  -26.0910 O.2    45  LEU45      -0.2867
     31  CB        27.4620  -28.7960  -26.2820 C.3    45  LEU45       0.0270
     32  CG        28.4150  -28.4590  -27.3670 C.3    45  LEU45       0.0019
     33  CD1       28.7490  -29.7890  -28.0600 C.3    45  LEU45       0.0001
     34  CD2       27.7890  -27.4340  -28.3330 C.3    45  LEU45       0.0001
     35  N         40.6880  -28.8460  -21.6240 N.3    67  ALA67      -0.1231
     36  CA        40.7480  -28.2030  -22.8910 C.3    67  ALA67       0.1694
     37  C         39.3640  -28.4280  -23.5640 C.2    67  ALA67       0.2591
     38  O         38.8330  -27.5340  -24.2050 O.2    67  ALA67      -0.2718
     39  CB        41.9610  -28.8010  -23.7110 C.3    67  ALA67       0.0304
     40  N         38.7900  -29.6120  -23.3910 N.am   68  ALA68      -0.1980
     41  CA        37.4270  -29.9380  -23.8770 C.3    68  ALA68       0.1597
     42  C         36.3690  -28.9420  -23.4100 C.2    68  ALA68       0.2287
     43  O         35.5600  -28.4280  -24.2300 O.2    68  ALA68      -0.2864
     44  CB        37.0640  -31.3410  -23.4330 C.3    68  ALA68       0.0319
     45  N         37.1510  -25.4710  -24.9350 N.3    71  ALA71      -0.1231
     46  CA        36.7970  -25.4650  -26.3510 C.3    71  ALA71       0.1694
     47  C         35.2390  -25.3400  -26.5170 C.2    71  ALA71       0.2591
     48  O         34.7630  -24.5470  -27.3090 O.2    71  ALA71      -0.2718
     49  CB        37.3260  -26.7050  -26.9890 C.3    71  ALA71       0.0304
     50  N         34.4710  -26.0200  -25.6670 N.am   72  ALA72      -0.1980
     51  CA        32.9910  -25.9050  -25.7220 C.3    72  ALA72       0.1597
     52  C         32.5010  -24.5130  -25.3890 C.2    72  ALA72       0.2287
     53  O         31.5860  -24.0330  -26.0140 O.2    72  ALA72      -0.2864
     54  CB        32.3480  -26.9360  -24.8060 C.3    72  ALA72       0.0319
     55  N         34.3510  -21.7190  -25.6530 N.3    73  TRP73      -0.1227
     56  CA        34.7710  -20.9260  -26.8060 C.3    73  TRP73       0.1737
     57  C         33.7390  -21.0390  -27.9410 C.2    73  TRP73       0.2595
     58  O         33.2930  -20.0300  -28.4500 O.2    73  TRP73      -0.2718
     59  CB        36.1630  -21.3950  -27.3450 C.3    73  TRP73       0.0564
     60  CG        36.4650  -20.8960  -28.7820 C.ar   73  TRP73       0.0003
     61  CD1       36.8640  -19.6290  -29.1540 C.ar   73  TRP73       0.0946
     62  CD2       36.3320  -21.6370  -30.0070 C.ar   73  TRP73       0.0152
     63  NE1       37.0240  -19.5650  -30.4910 N.ar   73  TRP73      -0.2442
     64  CE2       36.6970  -20.7560  -31.0580 C.ar   73  TRP73       0.0810
     65  CE3       35.9620  -22.9610  -30.3180 C.ar   73  TRP73       0.0012
     66  CZ2       36.7150  -21.1440  -32.3890 C.ar   73  TRP73       0.0191
     67  CZ3       35.9350  -23.3510  -31.6730 C.ar   73  TRP73       0.0001
     68  CH2       36.3620  -22.4520  -32.6890 C.ar   73  TRP73       0.0015
     69  N         33.3710  -22.2480  -28.3410 N.am   74  TRP74      -0.1976
     70  CA        32.4800  -22.4020  -29.5200 C.3    74  TRP74       0.1640
     71  C         31.1080  -21.8690  -29.2450 C.2    74  TRP74       0.2290
     72  O         30.4510  -21.3300  -30.1440 O.2    74  TRP74      -0.2864
     73  CB        32.3470  -23.8650  -29.9260 C.3    74  TRP74       0.0576
     74  CG        31.5950  -24.1100  -31.1930 C.ar   74  TRP74       0.0006
     75  CD1       32.1170  -24.1600  -32.4620 C.ar   74  TRP74       0.0946
     76  CD2       30.1850  -24.3260  -31.3440 C.ar   74  TRP74       0.0152
     77  NE1       31.1380  -24.4070  -33.3730 N.ar   74  TRP74      -0.2442
     78  CE2       29.9400  -24.5040  -32.7310 C.ar   74  TRP74       0.0810
     79  CE3       29.1170  -24.4280  -30.4570 C.ar   74  TRP74       0.0012
     80  CZ2       28.6720  -24.7660  -33.2370 C.ar   74  TRP74       0.0191
     81  CZ3       27.8530  -24.6620  -30.9690 C.ar   74  TRP74       0.0001
     82  CH2       27.6460  -24.8370  -32.3400 C.ar   74  TRP74       0.0015
@<TRIPOS>BOND
     1    77    78   ar
     2    77    75   ar
     3    80    78   ar
     4    80    82   ar
     5    78    76   ar
     6    68    66   ar
     7    68    67   ar
     8    75    74   ar
     9    66    64   ar
    10    82    81   ar
    11    67    65   ar
    12    76    74   ar
    13    76    79   ar
    14    74    73    1
    15    64    63   ar
    16    64    62   ar
    17    81    79   ar
    18    63    61   ar
    19    65    62   ar
    20    72    71    2
    21    62    60   ar
    22    73    70    1
    23    70    71    1
    24    70    69    1
    25    61    60   ar
    26    60    59    1
    27    58    57    2
    28    69    57   am
    29    34    32    1
    30    33    32    1
    31    57    56    1
    32    32    31    1
    33    59    56    1
    34    48    47    2
    35    49    46    1
    36    56    55    1
    37    26    25    1
    38    23    25   ar
    39    23    21   ar
    40    47    46    1
    41    47    50   am
    42    46    45    1
    43    31    28    1
    44    30    29    2
    45    53    52    2
    46    25    24   ar
    47    21    20   ar
    48    51    50    1
    49    51    52    1
    50    51    54    1
    51    29    28    1
    52    28    27    1
    53    24    22   ar
    54    20    22   ar
    55    20    19    1
    56     9     7   am
    57    43    42    2
    58    38    37    2
    59     8     7    2
    60     7     6    1
    61    41    44    1
    62    41    42    1
    63    41    40    1
    64    18    17    2
    65    39    36    1
    66    19    16    1
    67    16    17    1
    68    16    15    1
    69    37    40   am
    70    37    36    1
    71    13    12    2
    72     6     5    1
    73    15    12   am
    74    36    35    1
    75    14    11    1
    76    12    11    1
    77     5     2    1
    78     4     3    2
    79    11    10    1
    80     2     3    1
    81     2     1    1
