@<TRIPOS>MOLECULE
tmp/5oi9B00.pdb
 82 80 0 0 0
SMALL
GASTEIGER

@<TRIPOS>ATOM
      1  N        -17.0490   57.3340   -3.5620 N.3    64  ILE64      -0.1231
      2  CA       -17.1360   55.9150   -3.2300 C.3    64  ILE64       0.1692
      3  C        -16.8900   55.1340   -4.5120 C.2    64  ILE64       0.2592
      4  O        -17.6580   55.2580   -5.4730 O.2    64  ILE64      -0.2718
      5  CB       -18.5030   55.5580   -2.6290 C.3    64  ILE64       0.0266
      6  CG1      -18.8050   56.4250   -1.4060 C.3    64  ILE64       0.0019
      7  CG2      -18.5620   54.0810   -2.2710 C.3    64  ILE64       0.0020
      8  CD1      -20.2070   56.2440   -0.8830 C.3    64  ILE64       0.0001
      9  N        -15.8280   54.3300   -4.5370 N.am   65  ASN65      -0.1960
     10  CA       -15.5020   53.6280   -5.7690 C.3    65  ASN65       0.1819
     11  C        -16.3810   52.3870   -5.9220 C.2    65  ASN65       0.2621
     12  O        -17.2740   52.1150   -5.1130 O.2    65  ASN65      -0.2715
     13  CB       -14.0070   53.2930   -5.8280 C.3    65  ASN65       0.1195
     14  CG       -13.5760   52.2350   -4.8140 C.2    65  ASN65       0.2630
     15  OD1      -14.3880   51.6470   -4.1030 O.2    65  ASN65      -0.2716
     16  ND2      -12.2720   51.9880   -4.7580 N.am   65  ASN65      -0.0877
     17  N        -16.1160   51.6160   -6.9800 N.am   66  LYS66      -0.1977
     18  CA       -16.9450   50.4580   -7.2950 C.3    66  LYS66       0.1596
     19  C        -16.8600   49.3690   -6.2330 C.2    66  LYS66       0.2287
     20  O        -17.7260   48.4890   -6.1960 O.2    66  LYS66      -0.2864
     21  CB       -16.5440   49.8940   -8.6580 C.3    66  LYS66       0.0298
     22  CG       -15.0520   49.6360   -8.7970 C.3    66  LYS66       0.0038
     23  CD       -14.6900   49.1730  -10.1980 C.3    66  LYS66       0.0206
     24  CE       -13.1970   48.9080  -10.3170 C.3    66  LYS66       0.1093
     25  NZ       -12.8290   48.3710  -11.6580 N.3    66  LYS66      -0.1314
     26  N        -16.7990   50.0840   -2.9060 N.3    68  ASP68      -0.1239
     27  CA       -17.3280   50.7030   -1.6910 C.3    68  ASP68       0.1674
     28  C        -16.2460   51.3160   -0.8070 C.2    68  ASP68       0.2266
     29  O        -16.4760   51.5420    0.3860 O.2    68  ASP68      -0.2867
     30  CB       -18.1680   49.7120   -0.8770 C.3    68  ASP68       0.1410
     31  CG       -19.3670   49.2010   -1.6460 C.2    68  ASP68       0.3668
     32  OD1      -19.9890   50.0020   -2.3740 O.co2  68  ASP68      -0.2456
     33  OD2      -19.6840   48.0000   -1.5290 O.co2  68  ASP68      -0.2456
     34  N        -27.4340   57.1180   -9.6980 N.3   190  ASP190     -0.1239
     35  CA       -26.4930   57.1460   -8.5750 C.3   190  ASP190      0.1674
     36  C        -26.5810   58.4760   -7.8240 C.2   190  ASP190      0.2266
     37  O        -25.5790   59.1530   -7.5780 O.2   190  ASP190     -0.2867
     38  CB       -25.0640   56.8640   -9.0510 C.3   190  ASP190      0.1410
     39  CG       -24.1250   56.5100   -7.9130 C.2   190  ASP190      0.3668
     40  OD1      -24.6050   56.3080   -6.7760 O.co2 190  ASP190     -0.2456
     41  OD2      -22.9030   56.4370   -8.1600 O.co2 190  ASP190     -0.2456
     42  N        -28.3050   51.4280   -2.7960 N.3   229  ILE229     -0.1231
     43  CA       -28.5100   50.0060   -3.0480 C.3   229  ILE229      0.1692
     44  C        -29.0660   49.3190   -1.8080 C.2   229  ILE229      0.2592
     45  O        -30.0310   48.5510   -1.8850 O.2   229  ILE229     -0.2718
     46  CB       -27.1970   49.3520   -3.5170 C.3   229  ILE229      0.0266
     47  CG1      -26.7490   49.9510   -4.8530 C.3   229  ILE229      0.0019
     48  CG2      -27.3570   47.8420   -3.6270 C.3   229  ILE229      0.0020
     49  CD1      -27.7130   49.6980   -5.9850 C.3   229  ILE229      0.0001
     50  N        -28.4750   49.5900   -0.6460 N.am  230  SER230     -0.1952
     51  CA       -28.8980   48.9480    0.5900 C.3   230  SER230      0.1924
     52  C        -28.6590   49.8970    1.7580 C.2   230  SER230      0.2314
     53  O        -28.1490   51.0100    1.5950 O.2   230  SER230     -0.2863
     54  CB       -28.1620   47.6230    0.8060 C.3   230  SER230      0.2116
     55  OG       -26.8480   47.8510    1.2830 O.3   230  SER230     -0.2180
     56  N        -26.5380   49.7070    4.0610 N.3   232  HIS232     -0.1226
     57  CA       -25.1370   49.8700    4.4270 C.3   232  HIS232      0.1752
     58  C        -24.4600   51.0340    3.7150 C.2   232  HIS232      0.2596
     59  O        -23.2720   51.2710    3.9540 O.2   232  HIS232     -0.2718
     60  CB       -24.3580   48.5820    4.1420 C.3   232  HIS232      0.0759
     61  CG       -24.9930   47.3550    4.7150 C.ar  232  HIS232      0.0818
     62  ND1      -24.9820   47.0720    6.0630 N.ar  232  HIS232     -0.2268
     63  CD2      -25.6680   46.3410    4.1230 C.ar  232  HIS232      0.1154
     64  CE1      -25.6160   45.9340    6.2770 C.ar  232  HIS232      0.1986
     65  NE2      -26.0440   45.4710    5.1170 N.ar  232  HIS232     -0.2212
     66  N        -25.1640   51.7510    2.8470 N.am  233  HIS233     -0.1962
     67  CA       -24.5580   52.8950    2.1790 C.3   233  HIS233      0.1772
     68  C        -24.1810   53.9500    3.2170 C.2   233  HIS233      0.2462
     69  O        -24.9980   54.2700    4.0890 O.2   233  HIS233     -0.2730
     70  CB       -25.5150   53.4890    1.1460 C.3   233  HIS233      0.0785
     71  CG       -24.8500   54.4050    0.1660 C.ar  233  HIS233      0.0821
     72  ND1      -24.3590   55.6440    0.5180 N.ar  233  HIS233     -0.2267
     73  CD2      -24.5870   54.2580   -1.1550 C.ar  233  HIS233      0.1154
     74  CE1      -23.8260   56.2220   -0.5440 C.ar  233  HIS233      0.1986
     75  NE2      -23.9510   55.4020   -1.5720 N.ar  233  HIS233     -0.2212
     76  N        -22.9580   54.4860    3.1800 N.am  234  PRO234     -0.2727
     77  CA       -22.5850   55.5170    4.1670 C.3   234  PRO234      0.1402
     78  C        -23.5170   56.7210    4.1940 C.2   234  PRO234      0.2269
     79  O        -23.5770   57.4090    5.2190 O.2   234  PRO234     -0.2865
     80  CB       -21.1550   55.9100    3.7540 C.3   234  PRO234      0.0296
     81  CG       -20.8690   55.1690    2.4620 C.3   234  PRO234      0.0237
     82  CD       -21.7930   53.9980    2.4250 C.3   234  PRO234      0.0939
@<TRIPOS>BOND
     1    25    24    1
     2    24    23    1
     3    23    22    1
     4    34    35    1
     5    38    35    1
     6    38    39    1
     7    22    21    1
     8    21    18    1
     9    35    36    1
    10    41    39   ar
    11    39    40   ar
    12    36    37    2
    13    18    17    1
    14    18    19    1
    15    17    11   am
    16    19    20    2
    17    49    47    1
    18    11    10    1
    19    11    12    2
    20    13    10    1
    21    13    14    1
    22    10     9    1
    23     4     3    2
    24    47    46    1
    25    14    16   am
    26    14    15    2
    27     9     3   am
    28     3     2    1
    29    48    46    1
    30     1     2    1
    31    46    43    1
    32     2     5    1
    33    43    42    1
    34    43    44    1
    35    26    27    1
    36     5     7    1
    37     5     6    1
    38    32    31   ar
    39    45    44    2
    40    44    50   am
    41    27    30    1
    42    27    28    1
    43    31    33   ar
    44    31    30    1
    45    75    73   ar
    46    75    74   ar
    47     6     8    1
    48    73    71   ar
    49    28    29    2
    50    50    51    1
    51    74    72   ar
    52    71    72   ar
    53    71    70    1
    54    51    54    1
    55    51    52    1
    56    54    55    1
    57    70    67    1
    58    53    52    2
    59    67    66    1
    60    67    68    1
    61    82    81    1
    62    82    76    1
    63    81    80    1
    64    66    58   am
    65    76    68   am
    66    76    77    1
    67    68    69    2
    68    58    59    2
    69    58    57    1
    70    80    77    1
    71    56    57    1
    72    63    61   ar
    73    63    65   ar
    74    60    57    1
    75    60    61    1
    76    77    78    1
    77    78    79    2
    78    61    62   ar
    79    65    64   ar
    80    62    64   ar
