@<TRIPOS>MOLECULE
tmp/5oicA01.pdb
 114 107 0 0 0
SMALL
GASTEIGER

@<TRIPOS>ATOM
      1  N         45.2490   53.3620  -86.6010 N.3    94  GLY94      -0.1210
      2  CA        43.9640   53.8770  -86.1570 C.3    94  GLY94       0.1956
      3  C         44.1640   55.0370  -85.2180 C.2    94  GLY94       0.2612
      4  O         45.0620   55.0030  -84.3770 O.2    94  GLY94      -0.2717
      5  N         43.3390   56.0770  -85.3750 N.am   95  PHE95      -0.1962
      6  CA        43.4190   57.2610  -84.5240 C.3    95  PHE95       0.1771
      7  C         42.1050   57.9850  -84.5390 C.2    95  PHE95       0.2619
      8  O         41.5010   58.1230  -85.5950 O.2    95  PHE95      -0.2715
      9  CB        44.5330   58.2340  -85.0100 C.3    95  PHE95       0.0574
     10  CG        44.6370   59.5090  -84.1860 C.ar   95  PHE95      -0.0200
     11  CD1       45.2990   59.5150  -82.9640 C.ar   95  PHE95      -0.0042
     12  CD2       44.0320   60.6860  -84.6150 C.ar   95  PHE95      -0.0042
     13  CE1       45.3700   60.6820  -82.1890 C.ar   95  PHE95      -0.0003
     14  CE2       44.1140   61.8550  -83.8450 C.ar   95  PHE95      -0.0003
     15  CZ        44.7700   61.8390  -82.6360 C.ar   95  PHE95      -0.0000
     16  N         41.7090   58.5210  -83.3820 N.am   96  MET96      -0.1977
     17  CA        40.5530   59.4000  -83.2860 C.3    96  MET96       0.1605
     18  C         40.8360   60.3740  -82.1390 C.2    96  MET96       0.2287
     19  O         41.0990   59.9100  -81.0290 O.2    96  MET96      -0.2864
     20  CB        39.2350   58.6370  -83.0240 C.3    96  MET96       0.0413
     21  CG        37.9720   59.5350  -83.0690 C.3    96  MET96       0.0598
     22  SD        37.7160   60.4900  -84.6020 S.3    96  MET96      -0.1393
     23  CE        37.4260   59.1420  -85.7960 C.3    96  MET96       0.0692
     24  N         35.6950   60.2570  -78.9600 N.3   101  MET101     -0.1245
     25  CA        35.5410   58.9950  -78.2290 C.3   101  MET101      0.1570
     26  C         35.3040   59.2810  -76.7530 C.2   101  MET101      0.2261
     27  O         35.6880   60.3460  -76.2690 O.2   101  MET101     -0.2867
     28  CB        36.8130   58.1380  -78.3610 C.3   101  MET101      0.0387
     29  CG        37.0500   57.5780  -79.7460 C.3   101  MET101      0.0595
     30  SD        38.5300   56.5320  -79.8020 S.3   101  MET101     -0.1393
     31  CE        37.8750   54.9720  -79.1820 C.3   101  MET101      0.0692
     32  N         37.2860   47.0240  -86.4310 N.3   147  PHE147     -0.1241
     33  CA        36.5120   46.7670  -85.2140 C.3   147  PHE147      0.1605
     34  C         35.0530   46.8770  -85.6810 C.2   147  PHE147      0.2264
     35  O         34.6290   47.9540  -86.1120 O.2   147  PHE147     -0.2867
     36  CB        36.8290   47.7790  -84.0820 C.3   147  PHE147      0.0534
     37  CG        36.2140   47.4080  -82.7500 C.ar  147  PHE147     -0.0203
     38  CD1       36.5070   46.1870  -82.1420 C.ar  147  PHE147     -0.0042
     39  CD2       35.3680   48.2950  -82.0820 C.ar  147  PHE147     -0.0042
     40  CE1       35.9630   45.8550  -80.8940 C.ar  147  PHE147     -0.0003
     41  CE2       34.8300   47.9650  -80.8330 C.ar  147  PHE147     -0.0003
     42  CZ        35.1210   46.7400  -80.2550 C.ar  147  PHE147     -0.0000
     43  N         32.9210   54.2080  -78.1480 N.3   156  TYR156     -0.1241
     44  CA        33.7260   54.1220  -79.3760 C.3   156  TYR156      0.1605
     45  C         33.3630   55.2360  -80.3660 C.2   156  TYR156      0.2264
     46  O         34.2370   55.7350  -81.0780 O.2   156  TYR156     -0.2867
     47  CB        33.6380   52.7310  -80.0110 C.3   156  TYR156      0.0534
     48  CG        34.3250   51.6590  -79.1940 C.ar  156  TYR156     -0.0201
     49  CD1       35.6920   51.4060  -79.3390 C.ar  156  TYR156     -0.0009
     50  CD2       33.6100   50.8780  -78.2960 C.ar  156  TYR156     -0.0009
     51  CE1       36.3200   50.3860  -78.6140 C.ar  156  TYR156      0.0417
     52  CE2       34.2200   49.8360  -77.5930 C.ar  156  TYR156      0.0417
     53  CZ        35.5690   49.5890  -77.7620 C.ar  156  TYR156      0.1957
     54  OH        36.1400   48.5510  -77.0710 O.3   156  TYR156     -0.2866
     55  N         35.0770   56.7100  -83.6300 N.3   159  MET159     -0.1245
     56  CA        36.0110   55.6800  -84.1130 C.3   159  MET159      0.1570
     57  C         35.2030   54.6000  -84.8800 C.2   159  MET159      0.2261
     58  O         35.6870   54.0680  -85.8800 O.2   159  MET159     -0.2867
     59  CB        36.8210   55.0390  -82.9680 C.3   159  MET159      0.0387
     60  CG        37.7690   53.9380  -83.4470 C.3   159  MET159      0.0595
     61  SD        38.9520   54.4890  -84.7190 S.3   159  MET159     -0.1393
     62  CE        40.2750   54.9340  -83.7040 C.3   159  MET159      0.0692
     63  N         35.5520   53.2930  -88.7160 N.3   163  LYS163     -0.1245
     64  CA        35.6310   51.8830  -89.1240 C.3   163  LYS163      0.1561
     65  C         34.5840   51.5680  -90.1900 C.2   163  LYS163      0.2260
     66  O         34.8680   50.7990  -91.1080 O.2   163  LYS163     -0.2867
     67  CB        35.5230   50.9110  -87.9240 C.3   163  LYS163      0.0271
     68  CG        36.7220   50.9740  -86.9510 C.3   163  LYS163      0.0035
     69  CD        38.0550   50.6070  -87.6320 C.3   163  LYS163      0.0206
     70  CE        39.1800   50.5880  -86.6080 C.3   163  LYS163      0.1093
     71  NZ        40.4960   50.2990  -87.2530 N.3   163  LYS163     -0.1314
     72  N         37.8710   43.1850  -78.8310 N.3   191  PRO191     -0.2116
     73  CA        38.6320   44.2240  -78.0900 C.3   191  PRO191      0.1372
     74  C         39.9480   43.7080  -77.5030 C.2   191  PRO191      0.2244
     75  O         39.9880   42.6030  -76.9810 O.2   191  PRO191     -0.2868
     76  CB        37.6440   44.6790  -77.0030 C.3   191  PRO191      0.0268
     77  CG        36.7150   43.5110  -76.8180 C.3   191  PRO191      0.0207
     78  CD        36.5850   42.8750  -78.1700 C.3   191  PRO191      0.0892
     79  N         45.4300   46.9520  -75.3650 N.3   194  THR194     -0.1218
     80  CA        46.6480   47.6640  -75.7270 C.3   194  THR194      0.1862
     81  C         46.8690   48.6610  -74.5760 C.2   194  THR194      0.2287
     82  O         45.9890   48.8120  -73.7070 O.2   194  THR194     -0.2866
     83  CB        46.4080   48.4730  -77.0070 C.3   194  THR194      0.1770
     84  OG1       45.2440   49.2770  -76.8040 O.3   194  THR194     -0.2211
     85  CG2       46.2760   47.5950  -78.2650 C.3   194  THR194      0.0375
     86  N         46.6920   51.9880  -74.7750 N.3   196  ALA196     -0.1231
     87  CA        45.6110   52.9790  -74.8940 C.3   196  ALA196      0.1694
     88  C         44.2810   52.4480  -74.4090 C.2   196  ALA196      0.2591
     89  O         43.6020   53.1520  -73.6690 O.2   196  ALA196     -0.2718
     90  CB        45.4810   53.4750  -76.3150 C.3   196  ALA196      0.0304
     91  N         43.9250   51.1940  -74.7700 N.am  197  MET197     -0.1979
     92  CA        42.6510   50.6220  -74.3140 C.3   197  MET197      0.1605
     93  C         42.6070   50.3900  -72.8150 C.2   197  MET197      0.2287
     94  O         41.5640   50.6170  -72.2070 O.2   197  MET197     -0.2864
     95  CB        42.2740   49.3610  -75.0930 C.3   197  MET197      0.0413
     96  CG        41.7940   49.6510  -76.5490 C.3   197  MET197      0.0598
     97  SD        40.5630   50.9890  -76.7920 S.3   197  MET197     -0.1393
     98  CE        39.2090   50.4160  -75.7270 C.3   197  MET197      0.0692
     99  N         41.9430   53.8010  -71.3460 N.3   200  ILE200     -0.1245
    100  CA        40.5250   54.1460  -71.5880 C.3   200  ILE200      0.1561
    101  C         39.6090   53.3960  -70.5950 C.2   200  ILE200      0.2260
    102  O         38.7630   54.0250  -69.9390 O.2   200  ILE200     -0.2867
    103  CB        40.1070   53.9770  -73.0670 C.3   200  ILE200      0.0252
    104  CG1       40.8640   54.9860  -73.9720 C.3   200  ILE200      0.0019
    105  CG2       38.5720   54.1470  -73.2270 C.3   200  ILE200      0.0019
    106  CD1       40.8730   54.6300  -75.4880 C.3   200  ILE200      0.0001
    107  N         39.2280   58.5890  -70.6980 N.3   205  LEU205     -0.1245
    108  CA        38.2430   59.3270  -71.5060 C.3   205  LEU205      0.1561
    109  C         36.9100   59.4710  -70.7700 C.2   205  LEU205      0.2260
    110  O         35.8530   59.5390  -71.4000 O.2   205  LEU205     -0.2867
    111  CB        38.0420   58.6390  -72.8720 C.3   205  LEU205      0.0270
    112  CG        39.2470   58.6410  -73.8380 C.3   205  LEU205      0.0019
    113  CD1       38.8760   58.0040  -75.1700 C.3   205  LEU205      0.0001
    114  CD2       39.7680   60.0420  -74.0700 C.3   205  LEU205      0.0001
@<TRIPOS>BOND
     1    66    65    2
     2    65    64    1
     3    64    63    1
     4    64    67    1
     5    67    68    1
     6    69    68    1
     7    69    70    1
     8    71    70    1
     9     1     2    1
    10    32    33    1
    11     2     3    1
    12    35    34    2
    13    58    57    2
    14    23    22    1
    15    34    33    1
    16     8     7    2
    17     5     3   am
    18     5     6    1
    19     3     4    2
    20    33    36    1
    21     9     6    1
    22     9    10    1
    23    57    56    1
    24    61    62    1
    25    61    60    1
    26    12    10   ar
    27    12    14   ar
    28    22    21    1
    29     7     6    1
    30     7    16   am
    31    10    11   ar
    32    56    55    1
    33    56    59    1
    34    36    37    1
    35    14    15   ar
    36    60    59    1
    37    16    17    1
    38    17    20    1
    39    17    18    1
    40    21    20    1
    41    11    13   ar
    42    37    38   ar
    43    37    39   ar
    44    15    13   ar
    45    38    40   ar
    46    18    19    2
    47    39    41   ar
    48    46    45    2
    49    40    42   ar
    50    41    42   ar
    51    45    44    1
    52    47    44    1
    53    47    48    1
    54    30    29    1
    55    30    31    1
    56    29    28    1
    57    44    43    1
    58    49    48   ar
    59    49    51   ar
    60    48    50   ar
    61    24    25    1
    62    72    78    1
    63    72    73    1
    64    51    53   ar
    65    28    25    1
    66    50    52   ar
    67    85    83    1
    68    25    26    1
    69    78    77    1
    70    73    74    1
    71    73    76    1
    72    53    52   ar
    73    53    54    1
    74    74    75    2
    75    83    84    1
    76    83    80    1
    77    76    77    1
    78    97    96    1
    79    97    98    1
    80    26    27    2
    81    96    95    1
    82    90    87    1
    83    80    79    1
    84    80    81    1
    85   106   104    1
    86   113   112    1
    87    95    92    1
    88    87    86    1
    89    87    88    1
    90    91    88   am
    91    91    92    1
    92    81    82    2
    93    88    89    2
    94    92    93    1
    95   114   112    1
    96   104   103    1
    97   112   111    1
    98   105   103    1
    99   103   100    1
   100   111   108    1
   101    93    94    2
   102   100    99    1
   103   100   101    1
   104   108   109    1
   105   108   107    1
   106   110   109    2
   107   101   102    2
