@<TRIPOS>MOLECULE
tmp/5oilA01.pdb
 139 131 0 0 0
SMALL
GASTEIGER

@<TRIPOS>ATOM
      1  N         45.4670   53.6560  -86.9250 N.3    94  GLY94      -0.1210
      2  CA        44.1870   54.1730  -86.4640 C.3    94  GLY94       0.1956
      3  C         44.3970   55.3090  -85.5030 C.2    94  GLY94       0.2612
      4  O         45.3780   55.3180  -84.7580 O.2    94  GLY94      -0.2717
      5  N         43.5180   56.3060  -85.5600 N.am   95  PHE95      -0.1962
      6  CA        43.5830   57.4810  -84.6860 C.3    95  PHE95       0.1771
      7  C         42.2890   58.2590  -84.7650 C.2    95  PHE95       0.2619
      8  O         41.7310   58.3960  -85.8490 O.2    95  PHE95      -0.2715
      9  CB        44.7930   58.4070  -85.0190 C.3    95  PHE95       0.0574
     10  CG        44.7870   59.7240  -84.2720 C.ar   95  PHE95      -0.0200
     11  CD1       45.2820   59.8100  -82.9820 C.ar   95  PHE95      -0.0042
     12  CD2       44.2190   60.8620  -84.8380 C.ar   95  PHE95      -0.0042
     13  CE1       45.2250   61.0080  -82.2770 C.ar   95  PHE95      -0.0003
     14  CE2       44.1530   62.0640  -84.1220 C.ar   95  PHE95      -0.0003
     15  CZ        44.6670   62.1290  -82.8500 C.ar   95  PHE95      -0.0000
     16  N         41.8580   58.8060  -83.6190 N.am   96  MET96      -0.1977
     17  CA        40.6900   59.6710  -83.4770 C.3    96  MET96       0.1605
     18  C         40.9360   60.6180  -82.2950 C.2    96  MET96       0.2287
     19  O         41.2110   60.1460  -81.1930 O.2    96  MET96      -0.2864
     20  CB        39.3810   58.8490  -83.2790 C.3    96  MET96       0.0413
     21  CG        38.0550   59.6860  -83.3060 C.3    96  MET96       0.0598
     22  SD        37.7220   60.6900  -84.7910 S.3    96  MET96      -0.1393
     23  CE        37.5160   59.3900  -86.0280 C.3    96  MET96       0.0692
     24  N         36.0580   60.1400  -79.6660 N.3   101  MET101     -0.1245
     25  CA        35.8360   58.9460  -78.8500 C.3   101  MET101      0.1570
     26  C         35.3660   59.4300  -77.4690 C.2   101  MET101      0.2261
     27  O         34.8030   60.5170  -77.3700 O.2   101  MET101     -0.2867
     28  CB        37.1130   58.0970  -78.7650 C.3   101  MET101      0.0387
     29  CG        37.5880   57.5950  -80.1180 C.3   101  MET101      0.0595
     30  SD        38.6920   56.1620  -80.0620 S.3   101  MET101     -0.1393
     31  CE        40.2550   56.9620  -79.6310 C.3   101  MET101      0.0692
     32  N         37.3960   47.1220  -86.7140 N.3   147  PHE147     -0.1241
     33  CA        36.6200   46.8530  -85.5070 C.3   147  PHE147      0.1605
     34  C         35.1510   46.9400  -85.9740 C.2   147  PHE147      0.2264
     35  O         34.7370   47.9970  -86.4500 O.2   147  PHE147     -0.2867
     36  CB        36.9450   47.8360  -84.3650 C.3   147  PHE147      0.0534
     37  CG        36.3140   47.4090  -83.0580 C.ar  147  PHE147     -0.0203
     38  CD1       36.8120   46.3190  -82.3440 C.ar  147  PHE147     -0.0042
     39  CD2       35.1940   48.0670  -82.5570 C.ar  147  PHE147     -0.0042
     40  CE1       36.2210   45.9190  -81.1390 C.ar  147  PHE147     -0.0003
     41  CE2       34.5950   47.6430  -81.3610 C.ar  147  PHE147     -0.0003
     42  CZ        35.1170   46.5770  -80.6670 C.ar  147  PHE147     -0.0000
     43  N         32.7520   54.5920  -78.4730 N.3   156  TYR156     -0.1241
     44  CA        33.6270   54.4160  -79.6250 C.3   156  TYR156      0.1605
     45  C         33.3390   55.4990  -80.7010 C.2   156  TYR156      0.2264
     46  O         34.2360   55.8950  -81.4550 O.2   156  TYR156     -0.2867
     47  CB        33.5540   52.9650  -80.1060 C.3   156  TYR156      0.0534
     48  CG        34.6290   52.5720  -81.0920 C.ar  156  TYR156     -0.0201
     49  CD1       35.9810   52.6770  -80.7650 C.ar  156  TYR156     -0.0009
     50  CD2       34.2990   52.0530  -82.3490 C.ar  156  TYR156     -0.0009
     51  CE1       36.9770   52.3020  -81.6750 C.ar  156  TYR156      0.0417
     52  CE2       35.2870   51.6760  -83.2650 C.ar  156  TYR156      0.0417
     53  CZ        36.6230   51.8100  -82.9270 C.ar  156  TYR156      0.1957
     54  OH        37.5850   51.4190  -83.8290 O.3   156  TYR156     -0.2866
     55  N         35.0360   57.0220  -84.0580 N.3   159  MET159     -0.1245
     56  CA        35.9860   56.0170  -84.4900 C.3   159  MET159      0.1570
     57  C         35.1950   54.8990  -85.1630 C.2   159  MET159      0.2261
     58  O         35.6770   54.3440  -86.1530 O.2   159  MET159     -0.2867
     59  CB        36.8600   55.5450  -83.3330 C.3   159  MET159      0.0387
     60  CG        38.0670   54.7180  -83.7540 C.3   159  MET159      0.0595
     61  SD        39.0830   55.3550  -85.0880 S.3   159  MET159     -0.1393
     62  CE        39.8130   53.8850  -85.6430 C.3   159  MET159      0.0692
     63  N         35.6670   53.4530  -88.9890 N.3   163  LYS163     -0.1245
     64  CA        35.7170   52.0210  -89.3620 C.3   163  LYS163      0.1561
     65  C         34.7340   51.6770  -90.4920 C.2   163  LYS163      0.2260
     66  O         35.1390   51.0240  -91.4600 O.2   163  LYS163     -0.2867
     67  CB        35.5490   51.0750  -88.1620 C.3   163  LYS163      0.0271
     68  CG        36.6870   51.0860  -87.1580 C.3   163  LYS163      0.0035
     69  CD        38.0350   50.8440  -87.8060 C.3   163  LYS163      0.0206
     70  CE        39.0550   50.3060  -86.8450 C.3   163  LYS163      0.1093
     71  NZ        40.4390   50.4640  -87.3650 N.3   163  LYS163     -0.1314
     72  N         37.9760   43.0930  -78.9600 N.3   191  PRO191     -0.2102
     73  CA        38.7940   44.0930  -78.2500 C.3   191  PRO191      0.1504
     74  C         40.1440   43.5630  -77.7410 C.2   191  PRO191      0.2575
     75  O         40.2390   42.4300  -77.2700 O.2   191  PRO191     -0.2718
     76  CB        37.8690   44.5980  -77.1380 C.3   191  PRO191      0.0282
     77  CG        36.7820   43.6210  -77.0280 C.3   191  PRO191      0.0208
     78  CD        36.6840   42.8560  -78.2880 C.3   191  PRO191      0.0893
     79  N         41.2100   44.3440  -77.9500 N.am  192  ILE192     -0.1980
     80  CA        42.5570   43.9620  -77.4980 C.3   192  ILE192      0.1595
     81  C         43.0500   45.0300  -76.5380 C.2   192  ILE192      0.2287
     82  O         43.0270   46.2140  -76.8940 O.2   192  ILE192     -0.2864
     83  CB        43.5750   43.6850  -78.6400 C.3   192  ILE192      0.0276
     84  CG1       43.2220   42.4290  -79.4700 C.3   192  ILE192      0.0022
     85  CG2       45.0110   43.6300  -78.1060 C.3   192  ILE192      0.0022
     86  CD1       43.2130   41.0680  -78.7770 C.3   192  ILE192      0.0001
     87  N         45.4390   46.9650  -75.5030 N.3   194  THR194     -0.1218
     88  CA        46.6580   47.6810  -75.8640 C.3   194  THR194      0.1862
     89  C         46.8740   48.6900  -74.7270 C.2   194  THR194      0.2287
     90  O         46.0310   48.7670  -73.8120 O.2   194  THR194     -0.2866
     91  CB        46.5130   48.3340  -77.2600 C.3   194  THR194      0.1770
     92  OG1       45.3690   49.2030  -77.2980 O.3   194  THR194     -0.2211
     93  CG2       46.4440   47.2960  -78.4110 C.3   194  THR194      0.0375
     94  N         46.7750   52.0000  -74.9150 N.3   196  ALA196     -0.1231
     95  CA        45.7310   52.9900  -75.1390 C.3   196  ALA196      0.1694
     96  C         44.3840   52.4980  -74.6430 C.2   196  ALA196      0.2591
     97  O         43.6980   53.2400  -73.9360 O.2   196  ALA196     -0.2718
     98  CB        45.6430   53.3400  -76.6140 C.3   196  ALA196      0.0304
     99  N         44.0160   51.2430  -74.9800 N.am  197  MET197     -0.1979
    100  CA        42.7460   50.6840  -74.5410 C.3   197  MET197      0.1605
    101  C         42.7000   50.5710  -73.0440 C.2   197  MET197      0.2287
    102  O         41.6840   50.9160  -72.4550 O.2   197  MET197     -0.2864
    103  CB        42.4170   49.3420  -75.2220 C.3   197  MET197      0.0413
    104  CG        41.9280   49.4670  -76.6820 C.3   197  MET197      0.0598
    105  SD        40.8870   50.8980  -77.1470 S.3   197  MET197     -0.1393
    106  CE        39.4450   50.6060  -76.0990 C.3   197  MET197      0.0692
    107  N         42.0610   54.0340  -71.4350 N.3   200  ILE200     -0.1245
    108  CA        40.6360   54.3680  -71.6180 C.3   200  ILE200      0.1561
    109  C         39.7690   53.7250  -70.4990 C.2   200  ILE200      0.2260
    110  O         39.0640   54.4470  -69.7790 O.2   200  ILE200     -0.2867
    111  CB        40.1180   54.0270  -73.0410 C.3   200  ILE200      0.0252
    112  CG1       40.8000   54.8890  -74.1170 C.3   200  ILE200      0.0019
    113  CG2       38.6030   54.1790  -73.1140 C.3   200  ILE200      0.0019
    114  CD1       40.7340   54.3120  -75.5250 C.3   200  ILE200      0.0001
    115  N         33.2110   51.0990  -72.0620 N.3   213  ILE213     -0.1245
    116  CA        34.1770   50.2590  -72.7840 C.3   213  ILE213      0.1561
    117  C         34.5520   48.9800  -71.9910 C.2   213  ILE213      0.2260
    118  O         34.6910   47.9310  -72.6120 O.2   213  ILE213     -0.2867
    119  CB        35.3950   51.0750  -73.2790 C.3   213  ILE213      0.0252
    120  CG1       34.9070   51.9850  -74.4420 C.3   213  ILE213      0.0019
    121  CG2       36.5510   50.1460  -73.7120 C.3   213  ILE213      0.0019
    122  CD1       35.8930   52.7630  -75.2120 C.3   213  ILE213      0.0001
    123  N         31.4100   46.8020  -72.5330 N.3   216  LEU216     -0.1231
    124  CA        31.4640   46.4540  -73.9430 C.3   216  LEU216      0.1693
    125  C         32.4410   45.3160  -74.1710 C.2   216  LEU216      0.2591
    126  O         32.0320   44.2820  -74.6890 O.2   216  LEU216     -0.2718
    127  CB        31.8940   47.7020  -74.7390 C.3   216  LEU216      0.0284
    128  CG        31.7480   47.7210  -76.2540 C.3   216  LEU216      0.0019
    129  CD1       30.2800   47.6090  -76.6710 C.3   216  LEU216      0.0001
    130  CD2       32.3050   49.0290  -76.7930 C.3   216  LEU216      0.0001
    131  N         33.7010   45.4780  -73.7240 N.am  217  GLU217     -0.1979
    132  CA        34.7710   44.4990  -73.8810 C.3   217  GLU217      0.1602
    133  C         34.5140   43.1690  -73.1600 C.2   217  GLU217      0.2287
    134  O         35.0170   42.1500  -73.6050 O.2   217  GLU217     -0.2864
    135  CB        36.1240   45.0920  -73.4730 C.3   217  GLU217      0.0415
    136  CG        36.5910   46.2630  -74.3380 C.3   217  GLU217      0.1163
    137  CD        38.0330   46.6980  -74.1220 C.2   217  GLU217      0.3649
    138  OE1       38.5750   46.4190  -73.0260 O.co2 217  GLU217     -0.2457
    139  OE2       38.6220   47.3150  -75.0450 O.co2 217  GLU217     -0.2457
@<TRIPOS>BOND
     1    66    65    2
     2    65    64    1
     3    64    63    1
     4    64    67    1
     5    67    68    1
     6    69    68    1
     7    69    70    1
     8    71    70    1
     9     1     2    1
    10    32    33    1
    11     2     3    1
    12    35    34    2
    13    58    57    2
    14    23    22    1
    15    34    33    1
    16     8     7    2
    17    62    61    1
    18     5     3   am
    19     5     6    1
    20    33    36    1
    21     3     4    2
    22    57    56    1
    23    61    60    1
    24     9     6    1
    25     9    10    1
    26    12    10   ar
    27    12    14   ar
    28    22    21    1
    29     7     6    1
    30     7    16   am
    31    56    55    1
    32    56    59    1
    33    36    37    1
    34    10    11   ar
    35    14    15   ar
    36    54    53    1
    37    60    59    1
    38    16    17    1
    39    17    20    1
    40    17    18    1
    41    21    20    1
    42    52    53   ar
    43    52    50   ar
    44    37    39   ar
    45    37    38   ar
    46    11    13   ar
    47    53    51   ar
    48    15    13   ar
    49    39    41   ar
    50    50    48   ar
    51    38    40   ar
    52    18    19    2
    53    51    49   ar
    54    46    45    2
    55    41    42   ar
    56    40    42   ar
    57    48    49   ar
    58    48    47    1
    59    45    44    1
    60    29    30    1
    61    29    28    1
    62    47    44    1
    63    30    31    1
    64    24    25    1
    65    44    43    1
    66    84    86    1
    67    84    83    1
    68    72    78    1
    69    72    73    1
    70    25    28    1
    71    25    26    1
    72    83    85    1
    73    83    80    1
    74    93    91    1
    75    78    77    1
    76    73    74    1
    77    73    76    1
    78    79    74   am
    79    79    80    1
    80    74    75    2
    81    80    81    1
    82    26    27    2
    83    92    91    1
    84    91    88    1
    85   105   104    1
    86   105   106    1
    87    76    77    1
    88    82    81    2
    89   130   128    1
    90   104   103    1
    91   129   128    1
    92    98    95    1
    93   128   127    1
    94    88    87    1
    95    88    89    1
    96   114   112    1
    97   103   100    1
    98   122   120    1
    99    95    94    1
   100    95    96    1
   101   139   137   ar
   102    99    96   am
   103    99   100    1
   104   127   124    1
   105    89    90    2
   106   126   125    2
   107    96    97    2
   108   100   101    1
   109   120   119    1
   110   136   137    1
   111   136   135    1
   112   125   124    1
   113   125   131   am
   114   137   138   ar
   115   112   111    1
   116   124   123    1
   117   132   131    1
   118   132   135    1
   119   132   133    1
   120   121   119    1
   121   134   133    2
   122   119   116    1
   123   113   111    1
   124   101   102    2
   125   111   108    1
   126   116   115    1
   127   116   117    1
   128   118   117    2
   129   108   107    1
   130   108   109    1
   131   109   110    2
