@<TRIPOS>MOLECULE
tmp/5oimA00.pdb
 116 108 0 0 0
SMALL
GASTEIGER

@<TRIPOS>ATOM
      1  N         45.3550   53.4340  -86.6680 N.3    94  GLY94      -0.1210
      2  CA        44.0700   53.9540  -86.2290 C.3    94  GLY94       0.1956
      3  C         44.2730   55.0640  -85.2300 C.2    94  GLY94       0.2612
      4  O         45.2050   55.0120  -84.4240 O.2    94  GLY94      -0.2717
      5  N         43.4220   56.0900  -85.3130 N.am   95  PHE95      -0.1962
      6  CA        43.4570   57.2400  -84.4140 C.3    95  PHE95       0.1771
      7  C         42.1580   58.0020  -84.4940 C.2    95  PHE95       0.2619
      8  O         41.6130   58.1980  -85.5770 O.2    95  PHE95      -0.2715
      9  CB        44.6260   58.2000  -84.7530 C.3    95  PHE95       0.0574
     10  CG        44.6660   59.4550  -83.8930 C.ar   95  PHE95      -0.0200
     11  CD1       45.1430   59.4100  -82.5880 C.ar   95  PHE95      -0.0042
     12  CD2       44.1870   60.6660  -84.3790 C.ar   95  PHE95      -0.0042
     13  CE1       45.1640   60.5650  -81.7910 C.ar   95  PHE95      -0.0003
     14  CE2       44.2040   61.8170  -83.5760 C.ar   95  PHE95      -0.0003
     15  CZ        44.7000   61.7580  -82.2970 C.ar   95  PHE95      -0.0000
     16  N         41.7360   58.5220  -83.3480 N.am   96  MET96      -0.1977
     17  CA        40.6040   59.4250  -83.2600 C.3    96  MET96       0.1605
     18  C         40.9140   60.4120  -82.1310 C.2    96  MET96       0.2287
     19  O         41.2350   59.9530  -81.0360 O.2    96  MET96      -0.2864
     20  CB        39.2840   58.6610  -82.9970 C.3    96  MET96       0.0413
     21  CG        38.0200   59.5520  -83.0720 C.3    96  MET96       0.0598
     22  SD        37.7930   60.5070  -84.6190 S.3    96  MET96      -0.1393
     23  CE        37.4630   59.1780  -85.8140 C.3    96  MET96       0.0692
     24  N         40.4890   62.7190  -78.8430 N.3    98  GLN98      -0.1245
     25  CA        39.6820   62.4300  -77.6470 C.3    98  GLN98       0.1566
     26  C         38.2890   63.0580  -77.6830 C.2    98  GLN98       0.2260
     27  O         37.4140   62.6390  -76.9430 O.2    98  GLN98      -0.2867
     28  CB        40.4390   62.8190  -76.3680 C.3    98  GLN98       0.0367
     29  CG        40.6210   64.3270  -76.1740 C.3    98  GLN98       0.0905
     30  CD        41.4690   64.6820  -74.9700 C.2    98  GLN98       0.2608
     31  OE1       42.0660   63.8210  -74.3020 O.2    98  GLN98      -0.2717
     32  NE2       41.5560   65.9730  -74.6830 N.am   98  GLN98      -0.0878
     33  N         35.8730   60.2160  -79.1480 N.3   101  MET101     -0.1245
     34  CA        35.7830   58.9630  -78.4100 C.3   101  MET101      0.1570
     35  C         35.6830   59.2930  -76.9380 C.2   101  MET101      0.2261
     36  O         36.2180   60.3030  -76.4920 O.2   101  MET101     -0.2867
     37  CB        37.0560   58.1260  -78.6230 C.3   101  MET101      0.0387
     38  CG        37.0670   57.3280  -79.9040 C.3   101  MET101      0.0595
     39  SD        38.4740   56.1950  -79.9030 S.3   101  MET101     -0.1393
     40  CE        37.7770   54.8050  -79.0660 C.3   101  MET101      0.0692
     41  N         37.3060   47.1230  -86.4670 N.3   147  PHE147     -0.1241
     42  CA        36.5840   46.9060  -85.2070 C.3   147  PHE147      0.1605
     43  C         35.1120   47.0320  -85.6190 C.2   147  PHE147      0.2264
     44  O         34.6600   48.1290  -85.9840 O.2   147  PHE147     -0.2867
     45  CB        36.9640   47.9260  -84.1040 C.3   147  PHE147      0.0534
     46  CG        36.3700   47.5900  -82.7500 C.ar  147  PHE147     -0.0203
     47  CD1       36.5800   46.3430  -82.1670 C.ar  147  PHE147     -0.0042
     48  CD2       35.5690   48.5120  -82.0740 C.ar  147  PHE147     -0.0042
     49  CE1       36.0310   46.0330  -80.9130 C.ar  147  PHE147     -0.0003
     50  CE2       35.0250   48.2060  -80.8190 C.ar  147  PHE147     -0.0003
     51  CZ        35.2470   46.9600  -80.2560 C.ar  147  PHE147     -0.0000
     52  N         32.9430   54.3910  -78.2340 N.3   156  TYR156     -0.1241
     53  CA        33.7320   54.2960  -79.4730 C.3   156  TYR156      0.1605
     54  C         33.3650   55.4010  -80.4760 C.2   156  TYR156      0.2264
     55  O         34.2370   55.8950  -81.1990 O.2   156  TYR156     -0.2867
     56  CB        33.6550   52.8940  -80.0980 C.3   156  TYR156      0.0534
     57  CG        34.4230   51.8500  -79.3110 C.ar  156  TYR156     -0.0201
     58  CD1       35.7820   51.6240  -79.5480 C.ar  156  TYR156     -0.0009
     59  CD2       33.7950   51.0870  -78.3310 C.ar  156  TYR156     -0.0009
     60  CE1       36.4880   50.6500  -78.8370 C.ar  156  TYR156      0.0417
     61  CE2       34.4920   50.1100  -77.6170 C.ar  156  TYR156      0.0417
     62  CZ        35.8280   49.8810  -77.8870 C.ar  156  TYR156      0.1957
     63  OH        36.4770   48.8910  -77.2030 O.3   156  TYR156     -0.2866
     64  N         35.1500   56.7980  -83.7170 N.3   159  MET159     -0.1245
     65  CA        36.0470   55.7220  -84.1760 C.3   159  MET159      0.1570
     66  C         35.2140   54.6500  -84.9380 C.2   159  MET159      0.2261
     67  O         35.6710   54.1250  -85.9550 O.2   159  MET159     -0.2867
     68  CB        36.8260   55.0730  -83.0140 C.3   159  MET159      0.0387
     69  CG        37.7040   53.8910  -83.4550 C.3   159  MET159      0.0595
     70  SD        38.8890   54.3510  -84.7540 S.3   159  MET159     -0.1393
     71  CE        40.1850   55.0120  -83.7180 C.3   159  MET159      0.0692
     72  N         35.5660   53.3690  -88.7950 N.3   163  LYS163     -0.1245
     73  CA        35.6470   51.9410  -89.1650 C.3   163  LYS163      0.1561
     74  C         34.5930   51.5920  -90.2290 C.2   163  LYS163      0.2260
     75  O         34.8860   50.8270  -91.1470 O.2   163  LYS163     -0.2867
     76  CB        35.5290   51.0240  -87.9440 C.3   163  LYS163      0.0271
     77  CG        36.7480   51.0850  -86.9950 C.3   163  LYS163      0.0035
     78  CD        38.0800   50.7340  -87.7080 C.3   163  LYS163      0.0206
     79  CE        39.1880   50.6400  -86.6680 C.3   163  LYS163      0.1093
     80  NZ        40.5140   50.4480  -87.3210 N.3   163  LYS163     -0.1314
     81  N         45.5010   47.0610  -75.3470 N.3   194  THR194     -0.1218
     82  CA        46.7320   47.7600  -75.7130 C.3   194  THR194      0.1862
     83  C         46.9750   48.7550  -74.5760 C.2   194  THR194      0.2287
     84  O         46.1280   48.8920  -73.6780 O.2   194  THR194     -0.2866
     85  CB        46.5350   48.5510  -77.0130 C.3   194  THR194      0.1770
     86  OG1       45.4230   49.4300  -76.8390 O.3   194  THR194     -0.2211
     87  CG2       46.3400   47.6600  -78.2460 C.3   194  THR194      0.0375
     88  N         46.8070   52.1410  -74.7930 N.3   196  ALA196     -0.1231
     89  CA        45.7320   53.1400  -74.8550 C.3   196  ALA196      0.1694
     90  C         44.4020   52.6020  -74.3620 C.2   196  ALA196      0.2591
     91  O         43.7160   53.3030  -73.6270 O.2   196  ALA196     -0.2718
     92  CB        45.5750   53.6690  -76.2590 C.3   196  ALA196      0.0304
     93  N         44.0470   51.3510  -74.7320 N.am  197  MET197     -0.1979
     94  CA        42.7750   50.7680  -74.2960 C.3   197  MET197      0.1605
     95  C         42.7440   50.5160  -72.8150 C.2   197  MET197      0.2287
     96  O         41.7080   50.7370  -72.2070 O.2   197  MET197     -0.2864
     97  CB        42.3870   49.5170  -75.0970 C.3   197  MET197      0.0413
     98  CG        41.8730   49.8270  -76.5310 C.3   197  MET197      0.0598
     99  SD        40.7790   51.2730  -76.6950 S.3   197  MET197     -0.1393
    100  CE        39.3620   50.6900  -75.8300 C.3   197  MET197      0.0692
    101  N         42.0970   53.8900  -71.3280 N.3   200  ILE200     -0.1245
    102  CA        40.6920   54.2630  -71.5760 C.3   200  ILE200      0.1561
    103  C         39.7550   53.5380  -70.5970 C.2   200  ILE200      0.2260
    104  O         38.9490   54.1930  -69.9180 O.2   200  ILE200     -0.2867
    105  CB        40.2840   54.1010  -73.0660 C.3   200  ILE200      0.0252
    106  CG1       41.0300   55.1470  -73.9330 C.3   200  ILE200      0.0019
    107  CG2       38.7570   54.2870  -73.2310 C.3   200  ILE200      0.0019
    108  CD1       41.1560   54.7960  -75.4490 C.3   200  ILE200      0.0001
    109  N         39.5240   58.7380  -70.6060 N.3   205  LEU205     -0.1245
    110  CA        38.6000   59.5450  -71.4100 C.3   205  LEU205      0.1561
    111  C         37.2430   59.6690  -70.7180 C.2   205  LEU205      0.2260
    112  O         36.2160   59.7710  -71.3850 O.2   205  LEU205     -0.2867
    113  CB        38.4470   58.9660  -72.8320 C.3   205  LEU205      0.0270
    114  CG        39.7210   58.8560  -73.6910 C.3   205  LEU205      0.0019
    115  CD1       39.3880   58.3640  -75.0580 C.3   205  LEU205      0.0001
    116  CD2       40.4530   60.1800  -73.7970 C.3   205  LEU205      0.0001
@<TRIPOS>BOND
     1    75    74    2
     2    74    73    1
     3    73    72    1
     4    73    76    1
     5    76    77    1
     6    78    77    1
     7    78    79    1
     8    80    79    1
     9     1     2    1
    10    41    42    1
    11     2     3    1
    12    44    43    2
    13    67    66    2
    14    23    22    1
    15    43    42    1
    16     8     7    2
    17     5     3   am
    18     5     6    1
    19     3     4    2
    20    42    45    1
    21    66    65    1
    22    70    71    1
    23    70    69    1
    24     9     6    1
    25     9    10    1
    26    22    21    1
    27     7     6    1
    28     7    16   am
    29    12    10   ar
    30    12    14   ar
    31    65    64    1
    32    65    68    1
    33    45    46    1
    34    10    11   ar
    35    14    15   ar
    36    69    68    1
    37    16    17    1
    38    17    20    1
    39    17    18    1
    40    21    20    1
    41    46    47   ar
    42    46    48   ar
    43    11    13   ar
    44    15    13   ar
    45    47    49   ar
    46    18    19    2
    47    48    50   ar
    48    55    54    2
    49    49    51   ar
    50    50    51   ar
    51    54    53    1
    52    56    53    1
    53    56    57    1
    54    38    39    1
    55    38    37    1
    56    39    40    1
    57    58    57   ar
    58    58    60   ar
    59    53    52    1
    60    57    59   ar
    61    33    34    1
    62    24    25    1
    63    60    62   ar
    64    37    34    1
    65    34    35    1
    66    59    61   ar
    67    87    85    1
    68    62    61   ar
    69    62    63    1
    70    26    25    1
    71    26    27    2
    72    25    28    1
    73    85    86    1
    74    85    82    1
    75    35    36    2
    76    99    98    1
    77    99   100    1
    78    98    97    1
    79    28    29    1
    80    92    89    1
    81    29    30    1
    82    82    81    1
    83    82    83    1
    84   108   106    1
    85    97    94    1
    86   115   114    1
    87    30    32   am
    88    30    31    2
    89    89    88    1
    90    89    90    1
    91    93    90   am
    92    93    94    1
    93    83    84    2
    94    90    91    2
    95    94    95    1
    96   106   105    1
    97   116   114    1
    98   114   113    1
    99   107   105    1
   100   105   102    1
   101   113   110    1
   102    95    96    2
   103   102   101    1
   104   102   103    1
   105   110   111    1
   106   110   109    1
   107   112   111    2
   108   103   104    2
