@<TRIPOS>MOLECULE
tmp/5oinD00.pdb
 98 93 0 0 0
SMALL
GASTEIGER

@<TRIPOS>ATOM
      1  N        -35.8110   46.7990  -30.1980 N.3    94  GLY94      -0.1210
      2  CA       -35.1970   45.5820  -30.6990 C.3    94  GLY94       0.1956
      3  C        -34.0510   45.9110  -31.6240 C.2    94  GLY94       0.2612
      4  O        -34.0670   46.9500  -32.3070 O.2    94  GLY94      -0.2717
      5  N        -33.0270   45.0550  -31.6240 N.am   95  PHE95      -0.1962
      6  CA       -31.8630   45.2340  -32.5010 C.3    95  PHE95       0.1771
      7  C        -31.0140   43.9960  -32.5910 C.2    95  PHE95       0.2619
      8  O        -30.7900   43.3110  -31.5900 O.2    95  PHE95      -0.2715
      9  CB       -30.9810   46.4400  -32.0990 C.3    95  PHE95       0.0574
     10  CG       -29.7960   46.6110  -33.0130 C.ar   95  PHE95      -0.0200
     11  CD1      -29.9590   47.0800  -34.3170 C.ar   95  PHE95      -0.0042
     12  CD2      -28.5170   46.2540  -32.5950 C.ar   95  PHE95      -0.0042
     13  CE1      -28.8600   47.1980  -35.1810 C.ar   95  PHE95      -0.0003
     14  CE2      -27.4160   46.3960  -33.4520 C.ar   95  PHE95      -0.0003
     15  CZ       -27.5970   46.8550  -34.7410 C.ar   95  PHE95      -0.0000
     16  N        -30.5080   43.7310  -33.7880 N.am   96  MET96      -0.1977
     17  CA       -29.5770   42.6410  -34.0090 C.3    96  MET96       0.1605
     18  C        -28.7000   42.9860  -35.1890 C.2    96  MET96       0.2287
     19  O        -29.2390   43.1930  -36.2740 O.2    96  MET96      -0.2864
     20  CB       -30.2760   41.2600  -34.1660 C.3    96  MET96       0.0413
     21  CG       -29.2990   40.0640  -34.1570 C.3    96  MET96       0.0598
     22  SD       -28.3180   39.8310  -32.6370 S.3    96  MET96      -0.1393
     23  CE       -29.6510   39.4040  -31.4340 C.3    96  MET96       0.0692
     24  N        -28.5480   37.9710  -38.1110 N.3   101  MET101     -0.1245
     25  CA       -29.7960   37.6840  -38.8200 C.3   101  MET101      0.1570
     26  C        -29.5620   37.5020  -40.3140 C.2   101  MET101      0.2261
     27  O        -28.4530   37.6720  -40.8100 O.2   101  MET101     -0.2867
     28  CB       -30.7880   38.8270  -38.6040 C.3   101  MET101      0.0387
     29  CG       -31.4610   38.8050  -37.2660 C.3   101  MET101      0.0595
     30  SD       -32.5630   40.2430  -37.1270 S.3   101  MET101     -0.1393
     31  CE       -34.1550   39.4360  -37.3340 C.3   101  MET101      0.0692
     32  N        -41.6910   38.1950  -30.3530 N.3   147  PHE147     -0.1241
     33  CA       -41.9810   37.3420  -31.5320 C.3   147  PHE147      0.1605
     34  C        -41.8540   35.9220  -30.9510 C.2   147  PHE147      0.2264
     35  O        -40.8440   35.6900  -30.2960 O.2   147  PHE147     -0.2867
     36  CB       -40.9510   37.5550  -32.6740 C.3   147  PHE147      0.0534
     37  CG       -41.4730   37.0230  -33.9910 C.ar  147  PHE147     -0.0203
     38  CD1      -42.6480   37.5380  -34.5660 C.ar  147  PHE147     -0.0042
     39  CD2      -40.8080   35.9930  -34.6680 C.ar  147  PHE147     -0.0042
     40  CE1      -43.1450   37.0250  -35.7850 C.ar  147  PHE147     -0.0003
     41  CE2      -41.3090   35.4910  -35.8980 C.ar  147  PHE147     -0.0003
     42  CZ       -42.4730   36.0030  -36.4280 C.ar  147  PHE147     -0.0000
     43  N        -34.1400   34.4560  -38.6770 N.3   156  TYR156     -0.1241
     44  CA       -34.2520   35.1950  -37.4100 C.3   156  TYR156      0.1605
     45  C        -33.0760   34.9220  -36.5230 C.2   156  TYR156      0.2264
     46  O        -32.6770   35.8200  -35.7980 O.2   156  TYR156     -0.2867
     47  CB       -35.5960   34.9670  -36.6970 C.3   156  TYR156      0.0534
     48  CG       -36.7550   35.7030  -37.3520 C.ar  156  TYR156     -0.0201
     49  CD1      -37.3030   35.2580  -38.5650 C.ar  156  TYR156     -0.0009
     50  CD2      -37.3080   36.8400  -36.7660 C.ar  156  TYR156     -0.0009
     51  CE1      -38.3680   35.9340  -39.1770 C.ar  156  TYR156      0.0417
     52  CE2      -38.3850   37.5150  -37.3630 C.ar  156  TYR156      0.0417
     53  CZ       -38.9020   37.0690  -38.5760 C.ar  156  TYR156      0.1957
     54  OH       -39.9580   37.7460  -39.1570 O.3   156  TYR156     -0.2866
     55  N        -31.6940   36.7100  -33.3580 N.3   159  MET159     -0.1245
     56  CA       -32.7770   37.5550  -32.8370 C.3   159  MET159      0.1570
     57  C        -33.7790   36.6810  -32.0500 C.2   159  MET159      0.2261
     58  O        -34.3820   37.1600  -31.0820 O.2   159  MET159     -0.2867
     59  CB       -33.4820   38.3810  -33.9240 C.3   159  MET159      0.0387
     60  CG       -34.4500   39.4460  -33.3730 C.3   159  MET159      0.0595
     61  SD       -33.6800   40.5860  -32.1710 S.3   159  MET159     -0.1393
     62  CE       -35.0350   41.6030  -31.7400 C.3   159  MET159      0.0692
     63  N        -34.9850   37.0790  -28.1450 N.3   163  LYS163     -0.1245
     64  CA       -36.3990   36.9920  -27.7470 C.3   163  LYS163      0.1561
     65  C        -36.6390   35.9400  -26.6360 C.2   163  LYS163      0.2260
     66  O        -37.4020   36.2130  -25.7080 O.2   163  LYS163     -0.2867
     67  CB       -37.3210   36.7850  -28.9480 C.3   163  LYS163      0.0271
     68  CG       -37.4940   38.0320  -29.7980 C.3   163  LYS163      0.0035
     69  CD       -38.2350   39.1730  -29.1010 C.3   163  LYS163      0.0206
     70  CE       -38.0320   40.3790  -29.9530 C.3   163  LYS163      0.1093
     71  NZ       -38.7230   41.5830  -29.4440 N.3   163  LYS163     -0.1314
     72  N        -45.8500   38.4530  -37.8130 N.3   191  PRO191     -0.2116
     73  CA       -44.9880   39.3420  -38.6200 C.3   191  PRO191      0.1372
     74  C        -45.7340   40.5770  -39.1180 C.2   191  PRO191      0.2244
     75  O        -46.8700   40.4710  -39.5500 O.2   191  PRO191     -0.2868
     76  CB       -44.5380   38.4330  -39.7550 C.3   191  PRO191      0.0268
     77  CG       -45.6590   37.4120  -39.8830 C.3   191  PRO191      0.0207
     78  CD       -46.0070   37.1380  -38.4660 C.3   191  PRO191      0.0892
     79  N        -42.7590   46.2240  -41.3900 N.3   194  THR194     -0.1218
     80  CA       -42.1030   47.4880  -41.0720 C.3   194  THR194      0.1862
     81  C        -41.2210   47.8270  -42.2710 C.2   194  THR194      0.2287
     82  O        -41.2370   47.0730  -43.2630 O.2   194  THR194     -0.2866
     83  CB       -41.4320   47.4550  -39.6920 C.3   194  THR194      0.1770
     84  OG1      -40.4530   46.4140  -39.6340 O.3   194  THR194     -0.2211
     85  CG2      -42.4520   47.3160  -38.5680 C.3   194  THR194      0.0375
     86  N        -37.9610   47.8540  -42.3310 N.3   196  ALA196     -0.1231
     87  CA       -36.9770   46.7780  -42.2010 C.3   196  ALA196      0.1694
     88  C        -37.4730   45.4630  -42.8140 C.2   196  ALA196      0.2591
     89  O        -36.7960   44.9070  -43.6730 O.2   196  ALA196     -0.2718
     90  CB       -36.6200   46.5830  -40.7380 C.3   196  ALA196      0.0304
     91  N        -38.6850   45.0210  -42.4270 N.am  197  MET197     -0.1979
     92  CA       -39.3140   43.8070  -42.9060 C.3   197  MET197      0.1605
     93  C        -39.5550   43.8890  -44.3760 C.2   197  MET197      0.2287
     94  O        -39.1460   42.9740  -45.0920 O.2   197  MET197     -0.2864
     95  CB       -40.6310   43.5680  -42.1870 C.3   197  MET197      0.0413
     96  CG       -40.4790   42.7770  -40.9030 C.3   197  MET197      0.0598
     97  SD       -39.9260   41.0520  -41.1120 S.3   197  MET197     -0.1393
     98  CE       -38.7030   40.9820  -39.7230 C.3   197  MET197      0.0692
@<TRIPOS>BOND
     1    94    93    2
     2    93    92    1
     3    89    88    2
     4    82    81    2
     5    92    91    1
     6    92    95    1
     7    88    91   am
     8    88    87    1
     9    86    87    1
    10    81    80    1
    11    87    90    1
    12    95    96    1
    13    79    80    1
    14    97    96    1
    15    97    98    1
    16    80    83    1
    17    27    26    2
    18    26    25    1
    19    77    76    1
    20    77    78    1
    21    76    73    1
    22    83    84    1
    23    83    85    1
    24    75    74    2
    25    51    53   ar
    26    51    49   ar
    27    54    53    1
    28    74    73    1
    29    25    28    1
    30    25    24    1
    31    43    44    1
    32    73    72    1
    33    28    29    1
    34    53    52   ar
    35    49    48   ar
    36    78    72    1
    37    44    47    1
    38    44    45    1
    39    52    50   ar
    40    48    50   ar
    41    48    47    1
    42    31    30    1
    43    29    30    1
    44    45    46    2
    45    42    41   ar
    46    42    40   ar
    47    19    18    2
    48    41    39   ar
    49    40    38   ar
    50    18    17    1
    51    13    15   ar
    52    13    11   ar
    53    15    14   ar
    54    39    37   ar
    55    38    37   ar
    56    11    10   ar
    57    20    21    1
    58    20    17    1
    59    21    22    1
    60    17    16    1
    61    37    36    1
    62    59    60    1
    63    59    56    1
    64    16     7   am
    65    14    12   ar
    66    60    61    1
    67    55    56    1
    68    10    12   ar
    69    10     9    1
    70    56    57    1
    71    36    33    1
    72    22    23    1
    73     7     6    1
    74     7     8    2
    75     6     9    1
    76     6     5    1
    77     4     3    2
    78    61    62    1
    79    57    58    2
    80     5     3   am
    81     3     2    1
    82    33    34    1
    83    33    32    1
    84    34    35    2
    85     2     1    1
    86    70    71    1
    87    70    69    1
    88    68    69    1
    89    68    67    1
    90    67    64    1
    91    63    64    1
    92    64    65    1
    93    65    66    2
