@<TRIPOS>MOLECULE
tmp/5oioB00.pdb
 123 117 0 0 0
SMALL
GASTEIGER

@<TRIPOS>ATOM
      1  N          9.6400    3.2760   29.8180 N.3    95  GLY95      -0.1210
      2  CA        10.2920    4.4880   30.2650 C.3    95  GLY95       0.1956
      3  C         11.3670    4.1610   31.2630 C.2    95  GLY95       0.2612
      4  O         11.2230    3.2420   32.0810 O.2    95  GLY95      -0.2717
      5  N         12.4540    4.9130   31.1750 N.am   96  PHE96      -0.1962
      6  CA        13.6040    4.7830   32.0590 C.3    96  PHE96       0.1771
      7  C         14.4730    6.0110   31.9760 C.2    96  PHE96       0.2619
      8  O         14.7320    6.5120   30.8960 O.2    96  PHE96      -0.2715
      9  CB        14.4330    3.5150   31.7570 C.3    96  PHE96       0.0574
     10  CG        15.6780    3.4360   32.6050 C.ar   96  PHE96      -0.0200
     11  CD1       15.5950    3.1700   33.9690 C.ar   96  PHE96      -0.0042
     12  CD2       16.9320    3.7070   32.0580 C.ar   96  PHE96      -0.0042
     13  CE1       16.7520    3.1600   34.7730 C.ar   96  PHE96      -0.0003
     14  CE2       18.0800    3.6770   32.8570 C.ar   96  PHE96      -0.0003
     15  CZ        17.9810    3.3920   34.2090 C.ar   96  PHE96      -0.0000
     16  N         14.9450    6.4690   33.1140 N.am   97  MET97      -0.1964
     17  CA        15.9040    7.5480   33.1990 C.3    97  MET97       0.1722
     18  C         16.8600    7.2100   34.3530 C.2    97  MET97       0.2458
     19  O         16.3770    7.0500   35.4630 O.2    97  MET97      -0.2730
     20  CB        15.2130    8.9220   33.3820 C.3    97  MET97       0.0427
     21  CG        16.1920   10.1060   33.4410 C.3    97  MET97       0.0599
     22  SD        17.3400   10.2830   32.0410 S.3    97  MET97      -0.1393
     23  CE        16.1810   10.6190   30.6670 C.3    97  MET97       0.0692
     24  N         18.1980    7.0810   34.1560 N.am   98  PRO98      -0.2716
     25  CA        19.0890    6.8120   35.3180 C.3    98  PRO98       0.1536
     26  C         18.9450    7.8590   36.4350 C.2    98  PRO98       0.2598
     27  O         18.5090    8.9910   36.1770 O.2    98  PRO98      -0.2715
     28  CB        20.5000    6.8080   34.6910 C.3    98  PRO98       0.0310
     29  CG        20.2650    6.4700   33.2600 C.3    98  PRO98       0.0237
     30  CD        18.9780    7.1790   32.9070 C.3    98  PRO98       0.0939
     31  N         19.3080    7.4660   37.6730 N.am   99  GLN99      -0.1978
     32  CA        19.2120    8.2840   38.9000 C.3    99  GLN99       0.1601
     33  C         19.8200    9.6740   38.8100 C.2    99  GLN99       0.2287
     34  O         19.3430   10.6070   39.4700 O.2    99  GLN99      -0.2864
     35  CB        19.8200    7.5470   40.0810 C.3    99  GLN99       0.0394
     36  CG        18.9580    6.4220   40.5940 C.3    99  GLN99       0.0908
     37  CD        19.5640    5.7530   41.7940 C.2    99  GLN99       0.2608
     38  OE1       20.5900    6.1750   42.3670 O.2    99  GLN99      -0.2717
     39  NE2       18.9290    4.6670   42.1900 N.am   99  GLN99      -0.0878
     40  N         17.1150   12.2020   37.3480 N.3   102  MET102     -0.1245
     41  CA        15.8660   12.3380   38.0980 C.3   102  MET102      0.1570
     42  C         16.1610   12.4230   39.5770 C.2   102  MET102      0.2261
     43  O         17.0130   11.6880   40.0890 O.2   102  MET102     -0.2867
     44  CB        14.9680   11.1230   37.8800 C.3   102  MET102      0.0387
     45  CG        13.9800   11.2800   36.7860 C.3   102  MET102      0.0595
     46  SD        12.9590    9.7900   36.7320 S.3   102  MET102     -0.1393
     47  CE        11.4990   10.3270   37.5740 C.3   102  MET102      0.0692
     48  N          3.9090   11.5600   30.0790 N.3   148  PHE148     -0.1241
     49  CA         3.6770   12.3580   31.2750 C.3   148  PHE148      0.1605
     50  C          3.8810   13.7530   30.7620 C.2   148  PHE148      0.2264
     51  O          4.9500   14.0220   30.2120 O.2   148  PHE148     -0.2867
     52  CB         4.6900   12.0240   32.4030 C.3   148  PHE148      0.0534
     53  CG         4.3440   12.6430   33.7340 C.ar  148  PHE148     -0.0203
     54  CD1        3.1420   12.3400   34.3680 C.ar  148  PHE148     -0.0042
     55  CD2        5.2070   13.5510   34.3460 C.ar  148  PHE148     -0.0042
     56  CE1        2.7860   12.9650   35.5590 C.ar  148  PHE148     -0.0003
     57  CE2        4.8500   14.1670   35.5540 C.ar  148  PHE148     -0.0003
     58  CZ         3.6360   13.8770   36.1360 C.ar  148  PHE148     -0.0000
     59  N         11.5080   15.4680   38.2520 N.3   157  TYR157     -0.1241
     60  CA        11.3650   14.7530   36.9590 C.3   157  TYR157      0.1605
     61  C         12.5210   15.0190   35.9750 C.2   157  TYR157      0.2264
     62  O         12.9060   14.1330   35.2110 O.2   157  TYR157     -0.2867
     63  CB        10.0070   15.0280   36.3200 C.3   157  TYR157      0.0534
     64  CG         8.8750   14.3410   37.0520 C.ar  157  TYR157     -0.0201
     65  CD1        8.2580   14.9470   38.1500 C.ar  157  TYR157     -0.0009
     66  CD2        8.4360   13.0690   36.6700 C.ar  157  TYR157     -0.0009
     67  CE1        7.2280   14.3170   38.8360 C.ar  157  TYR157      0.0417
     68  CE2        7.4260   12.4180   37.3710 C.ar  157  TYR157      0.0417
     69  CZ         6.8240   13.0490   38.4530 C.ar  157  TYR157      0.1957
     70  OH         5.8030   12.4590   39.1410 O.3   157  TYR157     -0.2866
     71  N         13.7570   13.1300   32.7370 N.3   160  MET160     -0.1245
     72  CA        12.6350   12.3180   32.2500 C.3   160  MET160      0.1570
     73  C         11.6110   13.2400   31.5260 C.2   160  MET160      0.2261
     74  O         11.0680   12.8740   30.4780 O.2   160  MET160     -0.2867
     75  CB        11.9700   11.4910   33.3630 C.3   160  MET160      0.0387
     76  CG        10.7820   10.6410   32.8770 C.3   160  MET160      0.0595
     77  SD        11.1430    9.4580   31.5360 S.3   160  MET160     -0.1393
     78  CE        11.7050    8.1730   32.4180 C.3   160  MET160      0.0692
     79  N         10.2910   12.9710   27.7490 N.3   164  LYS164     -0.1245
     80  CA         8.8610   12.9670   27.3820 C.3   164  LYS164      0.1561
     81  C          8.5740   13.9790   26.2820 C.2   164  LYS164      0.2260
     82  O          7.7730   13.6940   25.3800 O.2   164  LYS164     -0.2867
     83  CB         7.9250   13.1600   28.5940 C.3   164  LYS164      0.0271
     84  CG         7.9040   11.9780   29.5540 C.3   164  LYS164      0.0035
     85  CD         7.3840   10.6620   28.9110 C.3   164  LYS164      0.0206
     86  CE         7.4190    9.5070   29.8740 C.3   164  LYS164      0.1093
     87  NZ         6.7850    8.2830   29.3600 N.3   164  LYS164     -0.1314
     88  N          3.2340    3.2700   40.9700 N.3   195  THR195     -0.1218
     89  CA         3.9530    2.0550   40.5930 C.3   195  THR195      0.1862
     90  C          4.9990    1.8380   41.7270 C.2   195  THR195      0.2287
     91  O          5.1830    2.7300   42.5720 O.2   195  THR195     -0.2866
     92  CB         4.6850    2.2620   39.2350 C.3   195  THR195      0.1770
     93  OG1        5.5550    3.3870   39.3610 O.3   195  THR195     -0.2211
     94  CG2        3.7230    2.4860   38.0630 C.3   195  THR195      0.0375
     95  N          8.3570    1.9200   41.6270 N.3   197  ALA197     -0.1231
     96  CA         9.3550    2.9980   41.4850 C.3   197  ALA197      0.1694
     97  C          8.8570    4.3520   42.0090 C.2   197  ALA197      0.2591
     98  O          9.6040    5.0630   42.6720 O.2   197  ALA197     -0.2718
     99  CB         9.7700    3.1310   40.0290 C.3   197  ALA197      0.0304
    100  N          7.5910    4.6790   41.7350 N.am  198  MET198     -0.1979
    101  CA         6.9690    5.9160   42.1450 C.3   198  MET198      0.1605
    102  C          6.7680    5.9940   43.6390 C.2   198  MET198      0.2287
    103  O          6.9920    7.0520   44.2120 O.2   198  MET198     -0.2864
    104  CB         5.6580    6.1210   41.3980 C.3   198  MET198      0.0413
    105  CG         5.2090    7.5510   41.4230 C.3   198  MET198      0.0598
    106  SD         6.3050    8.7090   40.5390 S.3   198  MET198     -0.1393
    107  CE         5.3260   10.0570   40.6680 C.3   198  MET198      0.0692
    108  N         10.2270    6.5330   45.0410 N.3   201  ILE201     -0.1245
    109  CA        10.6110    7.9380   44.8630 C.3   201  ILE201      0.1561
    110  C          9.9340    8.8190   45.9280 C.2   201  ILE201      0.2260
    111  O         10.6300    9.5170   46.6760 O.2   201  ILE201     -0.2867
    112  CB        10.3800    8.4580   43.4330 C.3   201  ILE201      0.0252
    113  CG1       11.2440    7.6910   42.4000 C.3   201  ILE201      0.0019
    114  CG2       10.6650    9.9470   43.3840 C.3   201  ILE201      0.0019
    115  CD1       10.7620    7.8090   40.9350 C.3   201  ILE201      0.0001
    116  N         15.0990    8.9300   45.7240 N.3   206  LEU206     -0.1245
    117  CA        15.9670    9.7980   44.9190 C.3   206  LEU206      0.1561
    118  C         16.2980   11.0960   45.6710 C.2   206  LEU206      0.2260
    119  O         16.6190   12.1210   45.0570 O.2   206  LEU206     -0.2867
    120  CB        15.3440   10.0880   43.5350 C.3   206  LEU206      0.0270
    121  CG        14.9980    8.9200   42.6120 C.3   206  LEU206      0.0019
    122  CD1       14.4870    9.4480   41.2810 C.3   206  LEU206      0.0001
    123  CD2       16.1790    8.0070   42.3900 C.3   206  LEU206      0.0001
@<TRIPOS>BOND
     1    82    81    2
     2    81    80    1
     3    80    79    1
     4    80    83    1
     5    83    84    1
     6    85    84    1
     7    85    86    1
     8    87    86    1
     9     1     2    1
    10    48    49    1
    11    51    50    2
    12     2     3    1
    13    74    73    2
    14    23    22    1
    15    50    49    1
    16     8     7    2
    17     5     3   am
    18     5     6    1
    19     3     4    2
    20    49    52    1
    21    73    72    1
    22    77    78    1
    23    77    76    1
    24     9     6    1
    25     9    10    1
    26     7     6    1
    27     7    16   am
    28    22    21    1
    29    12    10   ar
    30    12    14   ar
    31    72    71    1
    32    72    75    1
    33    52    53    1
    34    10    11   ar
    35    14    15   ar
    36    76    75    1
    37    30    29    1
    38    30    24    1
    39    16    17    1
    40    17    20    1
    41    17    18    1
    42    29    28    1
    43    20    21    1
    44    53    55   ar
    45    53    54   ar
    46    11    13   ar
    47    24    18   am
    48    24    25    1
    49    15    13   ar
    50    55    57   ar
    51    18    19    2
    52    54    56   ar
    53    28    25    1
    54    62    61    2
    55    25    26    1
    56    57    58   ar
    57    56    58   ar
    58    61    60    1
    59    27    26    2
    60    63    60    1
    61    63    64    1
    62    26    31   am
    63    66    64   ar
    64    66    68   ar
    65    46    45    1
    66    46    47    1
    67    45    44    1
    68    60    59    1
    69    64    65   ar
    70    40    41    1
    71    68    69   ar
    72    31    32    1
    73    44    41    1
    74    94    92    1
    75    41    42    1
    76    65    67   ar
    77    69    67   ar
    78    69    70    1
    79    33    32    1
    80    33    34    2
    81    32    35    1
    82    92    93    1
    83    92    89    1
    84    42    43    2
    85    99    96    1
    86    35    36    1
    87   106   107    1
    88   106   105    1
    89    89    88    1
    90    89    90    1
    91    36    37    1
    92   115   113    1
    93   122   121    1
    94   104   105    1
    95   104   101    1
    96    96    95    1
    97    96    97    1
    98    90    91    2
    99   100    97   am
   100   100   101    1
   101    37    39   am
   102    37    38    2
   103    97    98    2
   104   101   102    1
   105   123   121    1
   106   113   112    1
   107   121   120    1
   108   114   112    1
   109   112   109    1
   110   120   117    1
   111   102   103    2
   112   109   108    1
   113   109   110    1
   114   117   118    1
   115   117   116    1
   116   119   118    2
   117   110   111    2
