@<TRIPOS>MOLECULE
tmp/5oipA01.pdb
 162 154 0 0 0
SMALL
GASTEIGER

@<TRIPOS>ATOM
      1  N         46.1420   54.4640  -87.6750 N.3    95  GLY95      -0.1210
      2  CA        44.8840   55.0220  -87.2070 C.3    95  GLY95       0.1956
      3  C         45.0990   56.1660  -86.2440 C.2    95  GLY95       0.2612
      4  O         46.0650   56.1580  -85.4710 O.2    95  GLY95      -0.2717
      5  N         44.2070   57.1720  -86.3100 N.am   96  PHE96      -0.1962
      6  CA        44.2330   58.3390  -85.4240 C.3    96  PHE96       0.1771
      7  C         42.9290   59.1020  -85.4990 C.2    96  PHE96       0.2619
      8  O         42.3890   59.2920  -86.5860 O.2    96  PHE96      -0.2715
      9  CB        45.4050   59.2970  -85.7470 C.3    96  PHE96       0.0574
     10  CG        45.4660   60.5280  -84.8640 C.ar   96  PHE96      -0.0200
     11  CD1       45.9920   60.4580  -83.5780 C.ar   96  PHE96      -0.0042
     12  CD2       44.9850   61.7540  -85.3150 C.ar   96  PHE96      -0.0042
     13  CE1       46.0270   61.5920  -82.7530 C.ar   96  PHE96      -0.0003
     14  CE2       45.0280   62.8890  -84.4910 C.ar   96  PHE96      -0.0003
     15  CZ        45.5490   62.7980  -83.2190 C.ar   96  PHE96      -0.0000
     16  N         42.4670   59.5910  -84.3400 N.am   97  MET97      -0.1977
     17  CA        41.3060   60.4680  -84.2260 C.3    97  MET97       0.1605
     18  C         41.5560   61.4070  -83.0410 C.2    97  MET97       0.2287
     19  O         41.8110   60.9110  -81.9380 O.2    97  MET97      -0.2864
     20  CB        39.9910   59.6790  -84.0440 C.3    97  MET97       0.0413
     21  CG        38.7240   60.5610  -84.0340 C.3    97  MET97       0.0598
     22  SD        38.4150   61.5490  -85.5420 S.3    97  MET97      -0.1393
     23  CE        38.0210   60.2400  -86.7250 C.3    97  MET97       0.0692
     24  N         41.0870   63.6550  -79.6860 N.3    99  GLN99      -0.1245
     25  CA        40.2660   63.3920  -78.4900 C.3    99  GLN99       0.1566
     26  C         38.8160   63.8810  -78.6110 C.2    99  GLN99       0.2260
     27  O         37.9100   63.2060  -78.1160 O.2    99  GLN99      -0.2867
     28  CB        40.9230   63.9730  -77.2250 C.3    99  GLN99       0.0367
     29  CG        42.3190   63.4160  -76.9470 C.3    99  GLN99       0.0905
     30  CD        42.8630   63.8500  -75.6080 C.2    99  GLN99       0.2608
     31  OE1       42.5530   64.9340  -75.0900 O.2    99  GLN99      -0.2717
     32  NE2       43.7100   63.0150  -75.0300 N.am   99  GLN99      -0.0878
     33  N         36.5310   61.2330  -80.0330 N.3   102  MET102     -0.1245
     34  CA        36.4500   59.9030  -79.4070 C.3   102  MET102      0.1570
     35  C         35.9050   59.8540  -77.9500 C.2   102  MET102      0.2261
     36  O         36.2980   58.9710  -77.1830 O.2   102  MET102     -0.2867
     37  CB        37.8100   59.1780  -79.4880 C.3   102  MET102      0.0387
     38  CG        38.1300   58.6380  -80.8720 C.3   102  MET102      0.0595
     39  SD        39.2350   57.1960  -80.9120 S.3   102  MET102     -0.1393
     40  CE        40.7330   57.8920  -80.2280 C.3   102  MET102      0.0692
     41  N         37.9350   47.9020  -87.4320 N.3   148  PHE148     -0.1241
     42  CA        37.1580   47.6090  -86.2100 C.3   148  PHE148      0.1605
     43  C         35.7010   47.7330  -86.6520 C.2   148  PHE148      0.2264
     44  O         35.2910   48.8120  -87.0880 O.2   148  PHE148     -0.2867
     45  CB        37.4950   48.5620  -85.0490 C.3   148  PHE148      0.0534
     46  CG        36.8740   48.1320  -83.7360 C.ar  148  PHE148     -0.0203
     47  CD1       37.3930   47.0560  -83.0190 C.ar  148  PHE148     -0.0042
     48  CD2       35.7810   48.8100  -83.2100 C.ar  148  PHE148     -0.0042
     49  CE1       36.8080   46.6470  -81.8140 C.ar  148  PHE148     -0.0003
     50  CE2       35.2000   48.4040  -82.0000 C.ar  148  PHE148     -0.0003
     51  CZ        35.7270   47.3330  -81.3050 C.ar  148  PHE148     -0.0000
     52  N         33.4220   55.3820  -79.0920 N.3   157  TYR157     -0.1241
     53  CA        34.2170   55.2660  -80.3350 C.3   157  TYR157      0.1605
     54  C         33.8850   56.3910  -81.3470 C.2   157  TYR157      0.2264
     55  O         34.7540   56.8190  -82.1140 O.2   157  TYR157     -0.2867
     56  CB        34.0750   53.8680  -80.9460 C.3   157  TYR157      0.0534
     57  CG        35.2120   53.4230  -81.8460 C.ar  157  TYR157     -0.0201
     58  CD1       36.5380   53.4930  -81.4190 C.ar  157  TYR157     -0.0009
     59  CD2       34.9560   52.8200  -83.0730 C.ar  157  TYR157     -0.0009
     60  CE1       37.5860   53.0480  -82.2350 C.ar  157  TYR157      0.0417
     61  CE2       35.9890   52.3840  -83.8990 C.ar  157  TYR157      0.0417
     62  CZ        37.3000   52.4730  -83.4670 C.ar  157  TYR157      0.1957
     63  OH        38.3000   52.0170  -84.2970 O.3   157  TYR157     -0.2866
     64  N         35.6130   57.8260  -84.7340 N.3   160  MET160     -0.1245
     65  CA        36.5450   56.8020  -85.2330 C.3   160  MET160      0.1570
     66  C         35.7210   55.6780  -85.9260 C.2   160  MET160      0.2261
     67  O         36.1850   55.1110  -86.9190 O.2   160  MET160     -0.2867
     68  CB        37.4560   56.2610  -84.1130 C.3   160  MET160      0.0387
     69  CG        38.5850   55.3690  -84.6110 C.3   160  MET160      0.0595
     70  SD        39.7830   56.1830  -85.6970 S.3   160  MET160     -0.1393
     71  CE        40.5610   54.7700  -86.4350 C.3   160  MET160      0.0692
     72  N         36.1870   54.2860  -89.7740 N.3   164  LYS164     -0.1245
     73  CA        36.2550   52.8690  -90.1750 C.3   164  LYS164      0.1561
     74  C         35.2190   52.5200  -91.2640 C.2   164  LYS164      0.2260
     75  O         35.5390   51.7560  -92.1830 O.2   164  LYS164     -0.2867
     76  CB        36.1470   51.9180  -88.9630 C.3   164  LYS164      0.0271
     77  CG        37.3620   51.9580  -88.0110 C.3   164  LYS164      0.0035
     78  CD        38.6860   51.5430  -88.6850 C.3   164  LYS164      0.0206
     79  CE        39.7600   51.3200  -87.6280 C.3   164  LYS164      0.1093
     80  NZ        41.1130   51.1950  -88.2460 N.3   164  LYS164     -0.1314
     81  N         38.7210   43.9040  -79.7040 N.3   192  PRO192     -0.2102
     82  CA        39.5180   44.9170  -78.9790 C.3   192  PRO192      0.1504
     83  C         40.8240   44.3900  -78.3990 C.2   192  PRO192      0.2575
     84  O         40.8660   43.2660  -77.8900 O.2   192  PRO192     -0.2718
     85  CB        38.5630   45.4100  -77.8870 C.3   192  PRO192      0.0282
     86  CG        37.5880   44.2880  -77.6890 C.3   192  PRO192      0.0208
     87  CD        37.4180   43.6620  -79.0460 C.3   192  PRO192      0.0893
     88  N         41.8990   45.1950  -78.5140 N.am  193  ILE193     -0.1980
     89  CA        43.2430   44.8610  -78.0370 C.3   193  ILE193      0.1595
     90  C         43.7130   45.9440  -77.0600 C.2   193  ILE193      0.2287
     91  O         43.6520   47.1350  -77.3850 O.2   193  ILE193     -0.2864
     92  CB        44.2430   44.6680  -79.2260 C.3   193  ILE193      0.0276
     93  CG1       43.8360   43.4750  -80.1600 C.3   193  ILE193      0.0022
     94  CG2       45.7200   44.5500  -78.7440 C.3   193  ILE193      0.0022
     95  CD1       43.9910   41.9950  -79.5150 C.3   193  ILE193      0.0001
     96  N         46.1590   47.8940  -76.1000 N.3   195  THR195     -0.1218
     97  CA        47.3890   48.6240  -76.4370 C.3   195  THR195      0.1862
     98  C         47.5780   49.6870  -75.3370 C.2   195  THR195      0.2287
     99  O         46.6900   49.8510  -74.4910 O.2   195  THR195     -0.2866
    100  CB        47.2090   49.3480  -77.7770 C.3   195  THR195      0.1770
    101  OG1       46.0620   50.1950  -77.6580 O.3   195  THR195     -0.2211
    102  CG2       47.0610   48.3890  -78.9670 C.3   195  THR195      0.0375
    103  N         47.3960   53.0210  -75.5910 N.3   197  ALA197     -0.1231
    104  CA        46.3190   54.0150  -75.7240 C.3   197  ALA197      0.1694
    105  C         44.9740   53.5000  -75.2190 C.2   197  ALA197      0.2591
    106  O         44.2750   54.2410  -74.5250 O.2   197  ALA197     -0.2718
    107  CB        46.1970   54.4950  -77.1560 C.3   197  ALA197      0.0304
    108  N         44.6280   52.2250  -75.5230 N.am  198  MET198     -0.1979
    109  CA        43.3650   51.6330  -75.0560 C.3   198  MET198      0.1605
    110  C         43.3410   51.4710  -73.5380 C.2   198  MET198      0.2287
    111  O         42.3200   51.7700  -72.9180 O.2   198  MET198     -0.2864
    112  CB        43.0180   50.3150  -75.7790 C.3   198  MET198      0.0413
    113  CG        42.7290   50.4710  -77.2910 C.3   198  MET198      0.0598
    114  SD        41.5900   51.7990  -77.8090 S.3   198  MET198     -0.1393
    115  CE        40.1320   51.3840  -76.8820 C.3   198  MET198      0.0692
    116  N         42.6790   54.9150  -72.0270 N.3   201  ILE201     -0.1245
    117  CA        41.2540   55.2770  -72.1530 C.3   201  ILE201      0.1561
    118  C         40.4340   54.6020  -71.0280 C.2   201  ILE201      0.2260
    119  O         39.6740   55.2850  -70.3360 O.2   201  ILE201     -0.2867
    120  CB        40.6980   54.9970  -73.5720 C.3   201  ILE201      0.0252
    121  CG1       41.3860   55.9180  -74.6110 C.3   201  ILE201      0.0019
    122  CG2       39.1510   55.1640  -73.6100 C.3   201  ILE201      0.0019
    123  CD1       41.2370   55.4860  -76.1000 C.3   201  ILE201      0.0001
    124  N         33.8740   52.1140  -72.6100 N.3   214  ILE214     -0.1245
    125  CA        34.8750   51.3080  -73.3290 C.3   214  ILE214      0.1561
    126  C         35.1470   49.9930  -72.5660 C.2   214  ILE214      0.2260
    127  O         35.1350   48.9310  -73.1890 O.2   214  ILE214     -0.2867
    128  CB        36.1670   52.1260  -73.6800 C.3   214  ILE214      0.0252
    129  CG1       35.8820   53.2800  -74.6990 C.3   214  ILE214      0.0019
    130  CG2       37.3370   51.2300  -74.1480 C.3   214  ILE214      0.0019
    131  CD1       35.4610   52.8660  -76.1860 C.3   214  ILE214      0.0001
    132  N         32.1080   47.7440  -73.0490 N.3   217  LEU217     -0.1231
    133  CA        32.0760   47.3880  -74.4730 C.3   217  LEU217      0.1693
    134  C         33.0590   46.2510  -74.7300 C.2   217  LEU217      0.2591
    135  O         32.6460   45.1910  -75.2060 O.2   217  LEU217     -0.2718
    136  CB        32.3960   48.6320  -75.3390 C.3   217  LEU217      0.0284
    137  CG        32.3790   48.4910  -76.8680 C.3   217  LEU217      0.0019
    138  CD1       30.9820   48.2170  -77.3870 C.3   217  LEU217      0.0001
    139  CD2       32.9170   49.7490  -77.5210 C.3   217  LEU217      0.0001
    140  N         34.3330   46.4310  -74.3030 N.am  218  GLU218     -0.1979
    141  CA        35.4030   45.4410  -74.4770 C.3   218  GLU218      0.1602
    142  C         35.0800   44.0980  -73.8250 C.2   218  GLU218      0.2287
    143  O         35.3710   43.0690  -74.4250 O.2   218  GLU218     -0.2864
    144  CB        36.7610   45.9820  -73.9920 C.3   218  GLU218      0.0415
    145  CG        37.3220   47.0880  -74.8750 C.3   218  GLU218      0.1163
    146  CD        38.7000   47.6070  -74.5020 C.2   218  GLU218      0.3649
    147  OE1       39.1820   47.2940  -73.3880 O.co2 218  GLU218     -0.2457
    148  OE2       39.3000   48.3320  -75.3290 O.co2 218  GLU218     -0.2457
    149  N         32.8140   41.2090  -75.7790 N.3   221  TRP221     -0.1241
    150  CA        33.4250   40.3330  -76.7890 C.3   221  TRP221      0.1605
    151  C         33.6560   38.9140  -76.2900 C.2   221  TRP221      0.2264
    152  O         33.2090   37.9770  -76.9480 O.2   221  TRP221     -0.2867
    153  CB        34.7350   40.9080  -77.3740 C.3   221  TRP221      0.0550
    154  CG        34.5690   41.5650  -78.7090 C.ar  221  TRP221      0.0003
    155  CD1       34.9250   41.0630  -79.9310 C.ar  221  TRP221      0.0946
    156  CD2       34.0300   42.8710  -78.9510 C.ar  221  TRP221      0.0152
    157  NE1       34.5980   41.9620  -80.9230 N.ar  221  TRP221     -0.2442
    158  CE2       34.0590   43.0860  -80.3460 C.ar  221  TRP221      0.0810
    159  CE3       33.5450   43.8950  -78.1150 C.ar  221  TRP221      0.0012
    160  CZ2       33.6090   44.2760  -80.9280 C.ar  221  TRP221      0.0191
    161  CZ3       33.0720   45.0610  -78.6950 C.ar  221  TRP221      0.0001
    162  CH2       33.1140   45.2450  -80.0840 C.ar  221  TRP221      0.0015
@<TRIPOS>BOND
     1    75    74    2
     2    74    73    1
     3    73    72    1
     4    73    76    1
     5    76    77    1
     6    78    77    1
     7    78    79    1
     8    80    79    1
     9     1     2    1
    10    41    42    1
    11     2     3    1
    12    44    43    2
    13    67    66    2
    14    23    22    1
    15    43    42    1
    16     8     7    2
    17    71    70    1
    18     5     3   am
    19     5     6    1
    20     3     4    2
    21    42    45    1
    22    66    65    1
    23     9     6    1
    24     9    10    1
    25    70    69    1
    26    22    21    1
    27     7     6    1
    28     7    16   am
    29    12    10   ar
    30    12    14   ar
    31    65    64    1
    32    65    68    1
    33    45    46    1
    34    10    11   ar
    35    69    68    1
    36    14    15   ar
    37    16    17    1
    38    63    62    1
    39    17    20    1
    40    17    18    1
    41    20    21    1
    42    61    62   ar
    43    61    59   ar
    44    46    48   ar
    45    46    47   ar
    46    11    13   ar
    47    62    60   ar
    48    15    13   ar
    49    48    50   ar
    50    59    57   ar
    51    18    19    2
    52    47    49   ar
    53    60    58   ar
    54    55    54    2
    55    50    51   ar
    56    57    58   ar
    57    57    56    1
    58    49    51   ar
    59    54    53    1
    60    56    53    1
    61   160   158   ar
    62   160   162   ar
    63   157   158   ar
    64   157   155   ar
    65    39    38    1
    66    39    40    1
    67    38    37    1
    68   158   156   ar
    69    53    52    1
    70    93    95    1
    71    93    92    1
    72   162   161   ar
    73    33    34    1
    74   155   154   ar
    75    81    87    1
    76    81    82    1
    77    24    25    1
    78    37    34    1
    79    34    35    1
    80    92    94    1
    81    92    89    1
    82    87    86    1
    83    82    83    1
    84    82    85    1
    85   102   100    1
    86   156   154   ar
    87   156   159   ar
    88   154   153    1
    89   161   159   ar
    90    26    25    1
    91    26    27    2
    92    88    83   am
    93    88    89    1
    94    25    28    1
    95    83    84    2
    96    89    90    1
    97    35    36    2
    98    85    86    1
    99   114   113    1
   100   114   115    1
   101   100   101    1
   102   100    97    1
   103   139   137    1
   104   138   137    1
   105    91    90    2
   106   153   150    1
   107   113   112    1
   108    28    29    1
   109   107   104    1
   110   152   151    2
   111    29    30    1
   112   137   136    1
   113   150   151    1
   114   150   149    1
   115    97    96    1
   116    97    98    1
   117   131   129    1
   118   123   121    1
   119   112   109    1
   120   104   103    1
   121   104   105    1
   122    30    31    2
   123    30    32   am
   124   108   105   am
   125   108   109    1
   126   136   133    1
   127    98    99    2
   128   148   146   ar
   129   105   106    2
   130   135   134    2
   131   109   110    1
   132   145   146    1
   133   145   144    1
   134   134   133    1
   135   134   140   am
   136   129   128    1
   137   121   120    1
   138   146   147   ar
   139   141   140    1
   140   141   144    1
   141   141   142    1
   142   133   132    1
   143   143   142    2
   144   130   128    1
   145   128   125    1
   146   122   120    1
   147   120   117    1
   148   110   111    2
   149   125   124    1
   150   125   126    1
   151   127   126    2
   152   117   116    1
   153   117   118    1
   154   118   119    2
