@<TRIPOS>MOLECULE
tmp/5oiqC00.pdb
 118 113 0 0 0
SMALL
GASTEIGER

@<TRIPOS>ATOM
      1  N          1.5420  -21.8760   15.0730 N.3    94  GLY94      -0.1210
      2  CA         1.9470  -21.3440   13.7800 C.3    94  GLY94       0.1956
      3  C          1.6420  -22.3760   12.7040 C.2    94  GLY94       0.2612
      4  O          1.6220  -23.5800   12.9740 O.2    94  GLY94      -0.2717
      5  N          1.3640  -21.8990   11.4850 N.am   95  PHE95      -0.1962
      6  CA         1.0780  -22.7170   10.3140 C.3    95  PHE95       0.1771
      7  C          1.1220  -21.8760    9.0660 C.2    95  PHE95       0.2619
      8  O          0.5990  -20.7740    9.0280 O.2    95  PHE95      -0.2715
      9  CB        -0.3030  -23.3960   10.4100 C.3    95  PHE95       0.0574
     10  CG        -0.6480  -24.2120    9.1890 C.ar   95  PHE95      -0.0200
     11  CD1       -0.0420  -25.4480    8.9610 C.ar   95  PHE95      -0.0042
     12  CD2       -1.5320  -23.7270    8.2400 C.ar   95  PHE95      -0.0042
     13  CE1       -0.3110  -26.1750    7.8040 C.ar   95  PHE95      -0.0003
     14  CE2       -1.8190  -24.4640    7.0880 C.ar   95  PHE95      -0.0003
     15  CZ        -1.1950  -25.6750    6.8700 C.ar   95  PHE95      -0.0000
     16  N          1.7380  -22.4000    8.0320 N.am   96  MET96      -0.1977
     17  CA         1.7450  -21.7550    6.7370 C.3    96  MET96       0.1605
     18  C          1.8280  -22.8490    5.6770 C.2    96  MET96       0.2287
     19  O          2.7750  -23.6450    5.7250 O.2    96  MET96      -0.2864
     20  CB         2.8720  -20.7120    6.5940 C.3    96  MET96       0.0413
     21  CG         2.7840  -19.8710    5.2910 C.3    96  MET96       0.0598
     22  SD         1.2530  -18.9150    5.0550 S.3    96  MET96      -0.1393
     23  CE         1.4130  -17.6890    6.3130 C.3    96  MET96       0.0692
     24  N          5.2650  -20.7590    2.2410 N.3   101  MET101     -0.1245
     25  CA         6.5010  -20.8740    2.9900 C.3   101  MET101      0.1570
     26  C          7.4040  -22.0050    2.4340 C.2   101  MET101      0.2261
     27  O          7.0410  -23.1830    2.5180 O.2   101  MET101     -0.2867
     28  CB         6.1700  -21.0860    4.4720 C.3   101  MET101      0.0387
     29  CG         7.3740  -21.0930    5.3340 C.3   101  MET101      0.0595
     30  SD         7.1060  -21.3360    7.0920 S.3   101  MET101     -0.1393
     31  CE         6.0820  -22.9160    7.0700 C.3   101  MET101      0.0692
     32  N          9.2750  -14.9350   15.2690 N.3   147  PHE147     -0.1241
     33  CA        10.5090  -15.0450   14.5210 C.3   147  PHE147      0.1605
     34  C         10.6230  -13.6940   13.8510 C.2   147  PHE147      0.2264
     35  O          9.7740  -13.3560   13.0100 O.2   147  PHE147     -0.2867
     36  CB        10.4990  -16.2090   13.4900 C.3   147  PHE147      0.0534
     37  CG        11.8760  -16.4670   12.9040 C.ar  147  PHE147     -0.0203
     38  CD1       12.9340  -16.8840   13.7150 C.ar  147  PHE147     -0.0042
     39  CD2       12.1350  -16.2320   11.5550 C.ar  147  PHE147     -0.0042
     40  CE1       14.2130  -17.0650   13.1870 C.ar  147  PHE147     -0.0003
     41  CE2       13.4120  -16.4590   11.0140 C.ar  147  PHE147     -0.0003
     42  CZ        14.4350  -16.8770   11.8340 C.ar  147  PHE147     -0.0000
     43  N         11.1090  -17.8300    4.1480 N.3   156  TYR156     -0.1241
     44  CA        10.1580  -17.5200    5.1990 C.3   156  TYR156      0.1605
     45  C          8.8830  -16.9400    4.6190 C.2   156  TYR156      0.2264
     46  O          7.8010  -17.1930    5.1430 O.2   156  TYR156     -0.2867
     47  CB        10.7550  -16.6890    6.3310 C.3   156  TYR156      0.0534
     48  CG        10.0340  -16.8940    7.6560 C.ar  156  TYR156     -0.0201
     49  CD1        9.7350  -18.1800    8.1270 C.ar  156  TYR156     -0.0009
     50  CD2        9.6660  -15.8110    8.4460 C.ar  156  TYR156     -0.0009
     51  CE1        9.0860  -18.3720    9.3520 C.ar  156  TYR156      0.0417
     52  CE2        9.0110  -15.9900    9.6650 C.ar  156  TYR156      0.0417
     53  CZ         8.7300  -17.2700   10.1170 C.ar  156  TYR156      0.1957
     54  OH         8.0460  -17.4130   11.2950 O.3   156  TYR156     -0.2866
     55  N          5.1110  -16.4990    5.8520 N.3   159  MET159     -0.1245
     56  CA         5.1380  -16.6680    7.3150 C.3   159  MET159      0.1570
     57  C          5.7710  -15.3860    7.9540 C.2   159  MET159      0.2261
     58  O          5.4660  -15.0490    9.1020 O.2   159  MET159     -0.2867
     59  CB         5.9120  -17.9410    7.6930 C.3   159  MET159      0.0387
     60  CG         5.7120  -18.4040    9.1080 C.3   159  MET159      0.0595
     61  SD         4.0360  -18.8160    9.5390 S.3   159  MET159     -0.1393
     62  CE         4.1860  -18.8600   11.2150 C.3   159  MET159      0.0692
     63  N          3.9900  -13.2260   10.8180 N.3   163  LYS163     -0.1245
     64  CA         4.7290  -12.8100   11.9880 C.3   163  LYS163      0.1561
     65  C          4.5950  -11.3060   12.1920 C.2   163  LYS163      0.2260
     66  O          4.3290  -10.8770   13.3240 O.2   163  LYS163     -0.2867
     67  CB         6.1890  -13.2440   11.9110 C.3   163  LYS163      0.0271
     68  CG         6.4040  -14.6930   12.2270 C.3   163  LYS163      0.0035
     69  CD         5.5950  -15.1640   13.4310 C.3   163  LYS163      0.0206
     70  CE         5.8120  -16.6320   13.6430 C.3   163  LYS163      0.1093
     71  NZ         5.5050  -17.0360   15.0140 N.3   163  LYS163     -0.1314
     72  N         16.4450  -19.6460   15.1360 N.3   191  PRO191     -0.2102
     73  CA        15.9650  -20.8910   14.5270 C.3   191  PRO191      0.1504
     74  C         16.2250  -22.1020   15.4210 C.2   191  PRO191      0.2575
     75  O         17.3000  -22.2270   16.0020 O.2   191  PRO191     -0.2718
     76  CB        16.6930  -20.9390   13.1920 C.3   191  PRO191      0.0282
     77  CG        17.8810  -20.1080   13.3660 C.3   191  PRO191      0.0208
     78  CD        17.5660  -19.0640   14.3750 C.3   191  PRO191      0.0893
     79  N         15.1940  -22.9540   15.5940 N.am  192  ILE192     -0.1980
     80  CA        15.2300  -24.1680   16.4130 C.3   192  ILE192      0.1595
     81  C         14.8090  -25.3500   15.5570 C.2   192  ILE192      0.2287
     82  O         13.8160  -25.2560   14.8350 O.2   192  ILE192     -0.2864
     83  CB        14.3450  -24.0430   17.7010 C.3   192  ILE192      0.0276
     84  CG1       14.7400  -22.8230   18.6020 C.3   192  ILE192      0.0022
     85  CG2       14.3140  -25.3550   18.5030 C.3   192  ILE192      0.0022
     86  CD1       15.9520  -23.0010   19.4540 C.3   192  ILE192      0.0001
     87  N         12.7900  -28.1650   15.3310 N.3   194  THR194     -0.1203
     88  CA        11.5400  -28.6310   15.9570 C.3   194  THR194      0.1994
     89  C         10.6510  -29.6020   15.1700 C.2   194  THR194      0.2617
     90  O          9.7440  -30.1860   15.7690 O.2   194  THR194     -0.2717
     91  CB        10.6310  -27.4310   16.2940 C.3   194  THR194      0.1784
     92  OG1       10.2450  -26.7730   15.0770 O.3   194  THR194     -0.2211
     93  CG2       11.2320  -26.4770   17.2970 C.3   194  THR194      0.0376
     94  N         10.8640  -29.7430   13.8450 N.am  195  LEU195     -0.1979
     95  CA        10.0840  -30.5710   12.8900 C.3   195  LEU195      0.1596
     96  C          8.7560  -29.8930   12.4660 C.2   195  LEU195      0.2287
     97  O          8.6130  -28.6620   12.5000 O.2   195  LEU195     -0.2864
     98  CB         9.8360  -32.0380   13.3440 C.3   195  LEU195      0.0297
     99  CG        10.9620  -32.7930   14.0750 C.3   195  LEU195      0.0022
    100  CD1       10.3940  -33.9040   14.9350 C.3   195  LEU195      0.0001
    101  CD2       12.0320  -33.2950   13.1150 C.3   195  LEU195      0.0001
    102  N         19.6880  -20.0340    5.9930 N.3   196  LEU196     -0.1231
    103  CA        18.9740  -19.2220    6.9840 C.3   196  LEU196      0.1693
    104  C         19.5500  -19.3400    8.4020 C.2   196  LEU196      0.2591
    105  O         19.7270  -18.3290    9.0780 O.2   196  LEU196     -0.2718
    106  CB        17.4470  -19.5480    6.9960 C.3   196  LEU196      0.0284
    107  CG        16.4560  -18.3780    7.3070 C.3   196  LEU196      0.0019
    108  CD1       15.1640  -18.5120    6.5080 C.3   196  LEU196      0.0001
    109  CD2       16.1010  -18.3250    8.7770 C.3   196  LEU196      0.0001
    110  N         19.8250  -20.5680    8.8420 N.am  197  GLU197     -0.1979
    111  CA        20.2750  -20.8920   10.1840 C.3   197  GLU197      0.1602
    112  C         21.7720  -20.6890   10.5560 C.2   197  GLU197      0.2287
    113  O         22.0010  -20.2830   11.6890 O.2   197  GLU197     -0.2864
    114  CB        19.8970  -22.3370   10.4830 C.3   197  GLU197      0.0415
    115  CG        18.3930  -22.5460   10.4170 C.3   197  GLU197      0.1163
    116  CD        17.9910  -23.1090    9.0660 C.2   197  GLU197      0.3649
    117  OE1       18.8460  -23.2680    8.1670 O.co2 197  GLU197     -0.2457
    118  OE2       16.7900  -23.4130    8.9090 O.co2 197  GLU197     -0.2457
@<TRIPOS>BOND
     1    24    25    1
     2    26    27    2
     3    26    25    1
     4    25    28    1
     5    43    44    1
     6    28    29    1
     7    45    46    2
     8    45    44    1
     9    22    21    1
    10    22    23    1
    11    44    47    1
    12    21    20    1
    13    29    30    1
    14    18    19    2
    15    18    17    1
    16    55    56    1
    17   102   103    1
    18    47    48    1
    19   108   107    1
    20    20    17    1
    21    17    16    1
    22    15    14   ar
    23    15    13   ar
    24   103   106    1
    25   103   104    1
    26   106   107    1
    27    31    30    1
    28    14    12   ar
    29   107   109    1
    30    56    59    1
    31    56    57    1
    32    48    49   ar
    33    48    50   ar
    34    59    60    1
    35    13    11   ar
    36    57    58    2
    37    16     7   am
    38    49    51   ar
    39   117   116   ar
    40    12    10   ar
    41   104   110   am
    42   104   105    2
    43    50    52   ar
    44   110   111    1
    45   118   116   ar
    46    11    10   ar
    47     8     7    2
    48     7     6    1
    49   116   115    1
    50    60    61    1
    51    10     9    1
    52    51    53   ar
    53    61    62    1
    54    52    53   ar
    55    53    54    1
    56   111   114    1
    57   111   112    1
    58     6     9    1
    59     6     5    1
    60   115   114    1
    61   112   113    2
    62    63    64    1
    63    41    39   ar
    64    41    42   ar
    65     5     3   am
    66    39    37   ar
    67    42    40   ar
    68    67    64    1
    69    67    68    1
    70    64    65    1
    71    65    66    2
    72    68    69    1
    73    96    97    2
    74    96    95    1
    75     3     4    2
    76     3     2    1
    77    95    98    1
    78    95    94    1
    79    37    36    1
    80    37    38   ar
    81    35    34    2
    82   101    99    1
    83    40    38   ar
    84    76    77    1
    85    76    73    1
    86    98    99    1
    87    77    78    1
    88    69    70    1
    89    36    33    1
    90    70    71    1
    91     2     1    1
    92    94    89   am
    93    34    33    1
    94    99   100    1
    95    78    72    1
    96    33    32    1
    97    73    72    1
    98    73    74    1
    99    82    81    2
   100    92    91    1
   101    89    90    2
   102    89    88    1
   103    87    88    1
   104    74    79   am
   105    74    75    2
   106    81    80    1
   107    79    80    1
   108    88    91    1
   109    91    93    1
   110    80    83    1
   111    83    85    1
   112    83    84    1
   113    84    86    1
