@<TRIPOS>MOLECULE
tmp/5oirA01.pdb
 122 115 0 0 0
SMALL
GASTEIGER

@<TRIPOS>ATOM
      1  N         45.0980   53.1750  -87.2200 N.3    94  GLY94      -0.1210
      2  CA        43.8310   53.7020  -86.7530 C.3    94  GLY94       0.1956
      3  C         44.0610   54.8300  -85.7830 C.2    94  GLY94       0.2612
      4  O         45.0210   54.8030  -85.0180 O.2    94  GLY94      -0.2717
      5  N         43.1960   55.8490  -85.8390 N.am   95  PHE95      -0.1962
      6  CA        43.2790   56.9990  -84.9540 C.3    95  PHE95       0.1771
      7  C         41.9810   57.7680  -84.9900 C.2    95  PHE95       0.2619
      8  O         41.4200   57.9670  -86.0650 O.2    95  PHE95      -0.2715
      9  CB        44.4490   57.9430  -85.3580 C.3    95  PHE95       0.0574
     10  CG        44.5270   59.1900  -84.5010 C.ar   95  PHE95      -0.0200
     11  CD1       45.1010   59.1500  -83.2400 C.ar   95  PHE95      -0.0042
     12  CD2       43.9720   60.3920  -84.9360 C.ar   95  PHE95      -0.0042
     13  CE1       45.1340   60.2890  -82.4320 C.ar   95  PHE95      -0.0003
     14  CE2       43.9970   61.5270  -84.1200 C.ar   95  PHE95      -0.0003
     15  CZ        44.5810   61.4680  -82.8800 C.ar   95  PHE95      -0.0000
     16  N         41.5490   58.2560  -83.8290 N.am   96  MET96      -0.1977
     17  CA        40.4070   59.1600  -83.7200 C.3    96  MET96       0.1605
     18  C         40.6630   60.0980  -82.5570 C.2    96  MET96       0.2287
     19  O         40.9150   59.6050  -81.4590 O.2    96  MET96      -0.2864
     20  CB        39.0590   58.4120  -83.5200 C.3    96  MET96       0.0413
     21  CG        37.8160   59.3640  -83.5070 C.3    96  MET96       0.0598
     22  SD        37.5980   60.3130  -85.0570 S.3    96  MET96      -0.1393
     23  CE        37.1940   58.9650  -86.2180 C.3    96  MET96       0.0692
     24  N         35.6160   59.9220  -79.7400 N.3   101  MET101     -0.1245
     25  CA        35.5180   58.6200  -79.0590 C.3   101  MET101      0.1570
     26  C         35.3860   58.8690  -77.5720 C.2   101  MET101      0.2261
     27  O         36.0110   59.7940  -77.0750 O.2   101  MET101     -0.2867
     28  CB        36.8350   57.8350  -79.2200 C.3   101  MET101      0.0387
     29  CG        37.0610   57.2070  -80.5500 C.3   101  MET101      0.0595
     30  SD        38.3150   55.8950  -80.4130 S.3   101  MET101     -0.1393
     31  CE        39.7360   56.8310  -80.0510 C.3   101  MET101      0.0692
     32  N         37.1080   46.8100  -86.9130 N.3   147  PHE147     -0.1241
     33  CA        36.3510   46.5270  -85.6930 C.3   147  PHE147      0.1605
     34  C         34.9100   46.6480  -86.1660 C.2   147  PHE147      0.2264
     35  O         34.5200   47.7230  -86.6200 O.2   147  PHE147     -0.2867
     36  CB        36.6610   47.4680  -84.5110 C.3   147  PHE147      0.0534
     37  CG        36.0260   46.9850  -83.2160 C.ar  147  PHE147     -0.0203
     38  CD1       36.4150   45.7790  -82.6340 C.ar  147  PHE147     -0.0042
     39  CD2       35.0500   47.7480  -82.5710 C.ar  147  PHE147     -0.0042
     40  CE1       35.8300   45.3320  -81.4380 C.ar  147  PHE147     -0.0003
     41  CE2       34.4760   47.3140  -81.3690 C.ar  147  PHE147     -0.0003
     42  CZ        34.8560   46.1030  -80.8160 C.ar  147  PHE147     -0.0000
     43  N         32.4900   54.2020  -78.9320 N.3   156  TYR156     -0.1241
     44  CA        33.2590   54.0480  -80.1730 C.3   156  TYR156      0.1605
     45  C         32.9500   55.1810  -81.1740 C.2   156  TYR156      0.2264
     46  O         33.8390   55.6160  -81.9120 O.2   156  TYR156     -0.2867
     47  CB        33.0820   52.6400  -80.7530 C.3   156  TYR156      0.0534
     48  CG        34.1670   52.1930  -81.7110 C.ar  156  TYR156     -0.0201
     49  CD1       35.5170   52.2940  -81.3670 C.ar  156  TYR156     -0.0009
     50  CD2       33.8460   51.5670  -82.9130 C.ar  156  TYR156     -0.0009
     51  CE1       36.5160   51.8170  -82.2180 C.ar  156  TYR156      0.0417
     52  CE2       34.8390   51.1380  -83.7970 C.ar  156  TYR156      0.0417
     53  CZ        36.1700   51.2430  -83.4330 C.ar  156  TYR156      0.1957
     54  OH        37.1400   50.8010  -84.2960 O.3   156  TYR156     -0.2866
     55  N         34.7510   56.7100  -84.4440 N.3   159  MET159     -0.1245
     56  CA        35.6710   55.6790  -84.9160 C.3   159  MET159      0.1570
     57  C         34.8480   54.5580  -85.5900 C.2   159  MET159      0.2261
     58  O         35.3160   53.9620  -86.5570 O.2   159  MET159     -0.2867
     59  CB        36.5670   55.1390  -83.7950 C.3   159  MET159      0.0387
     60  CG        37.6710   54.2020  -84.3110 C.3   159  MET159      0.0595
     61  SD        38.9310   55.0260  -85.3040 S.3   159  MET159     -0.1393
     62  CE        39.6810   53.6260  -86.0620 C.3   159  MET159      0.0692
     63  N         35.3840   53.1040  -89.3280 N.3   163  LYS163     -0.1245
     64  CA        35.4300   51.6840  -89.7010 C.3   163  LYS163      0.1561
     65  C         34.4260   51.3540  -90.7990 C.2   163  LYS163      0.2260
     66  O         34.7720   50.6390  -91.7370 O.2   163  LYS163     -0.2867
     67  CB        35.2470   50.7620  -88.4800 C.3   163  LYS163      0.0271
     68  CG        36.4510   50.7940  -87.5180 C.3   163  LYS163      0.0035
     69  CD        37.7870   50.4380  -88.2000 C.3   163  LYS163      0.0206
     70  CE        38.8670   50.1030  -87.1810 C.3   163  LYS163      0.1093
     71  NZ        40.2010   50.1250  -87.8170 N.3   163  LYS163     -0.1314
     72  N         37.8080   42.7800  -79.3670 N.3   191  PRO191     -0.2102
     73  CA        38.5920   43.8030  -78.6380 C.3   191  PRO191      0.1504
     74  C         39.8710   43.2450  -78.0220 C.2   191  PRO191      0.2575
     75  O         39.8520   42.1650  -77.4430 O.2   191  PRO191     -0.2718
     76  CB        37.6300   44.2790  -77.5410 C.3   191  PRO191      0.0282
     77  CG        36.6790   43.1360  -77.3280 C.3   191  PRO191      0.0208
     78  CD        36.5240   42.4970  -78.6930 C.3   191  PRO191      0.0893
     79  N         40.9730   43.9820  -78.1590 N.am  192  ILE192     -0.1980
     80  CA        42.3020   43.5780  -77.6870 C.3   192  ILE192      0.1595
     81  C         42.7760   44.5980  -76.6740 C.2   192  ILE192      0.2287
     82  O         42.7130   45.7970  -76.9510 O.2   192  ILE192     -0.2864
     83  CB        43.3040   43.4410  -78.8790 C.3   192  ILE192      0.0276
     84  CG1       42.9600   42.2310  -79.7900 C.3   192  ILE192      0.0022
     85  CG2       44.7900   43.3960  -78.3790 C.3   192  ILE192      0.0022
     86  CD1       43.0710   40.7840  -79.1380 C.3   192  ILE192      0.0001
     87  N         45.1140   46.5100  -75.6380 N.3   194  THR194     -0.1218
     88  CA        46.3120   47.2760  -75.9740 C.3   194  THR194      0.1862
     89  C         46.5170   48.2840  -74.8310 C.2   194  THR194      0.2287
     90  O         45.6500   48.4170  -73.9500 O.2   194  THR194     -0.2866
     91  CB        46.0460   48.0460  -77.2610 C.3   194  THR194      0.1770
     92  OG1       44.8550   48.8390  -77.0740 O.3   194  THR194     -0.2211
     93  CG2       45.9180   47.1250  -78.4890 C.3   194  THR194      0.0375
     94  N         46.1820   51.5650  -75.0310 N.3   196  ALA196     -0.1231
     95  CA        45.0460   52.5040  -75.1410 C.3   196  ALA196      0.1694
     96  C         43.7490   51.9100  -74.5990 C.2   196  ALA196      0.2591
     97  O         43.0210   52.6000  -73.8850 O.2   196  ALA196     -0.2718
     98  CB        44.8460   52.9310  -76.5970 C.3   196  ALA196      0.0304
     99  N         43.4670   50.6270  -74.9140 N.am  197  MET197     -0.1979
    100  CA        42.2680   49.9360  -74.4080 C.3   197  MET197      0.1605
    101  C         42.2910   49.8220  -72.9040 C.2   197  MET197      0.2287
    102  O         41.2480   49.9970  -72.2800 O.2   197  MET197     -0.2864
    103  CB        42.0470   48.5530  -75.0590 C.3   197  MET197      0.0413
    104  CG        41.3560   48.6450  -76.3980 C.3   197  MET197      0.0598
    105  SD        39.6440   49.2210  -76.2270 S.3   197  MET197     -0.1393
    106  CE        38.7900   47.6600  -76.1350 C.3   197  MET197      0.0692
    107  N         41.5640   53.3750  -71.5480 N.3   200  ILE200     -0.1245
    108  CA        40.1120   53.6360  -71.7000 C.3   200  ILE200      0.1561
    109  C         39.2930   52.9800  -70.5500 C.2   200  ILE200      0.2260
    110  O         38.5230   53.6710  -69.8790 O.2   200  ILE200     -0.2867
    111  CB        39.5720   53.2640  -73.0990 C.3   200  ILE200      0.0252
    112  CG1       40.1940   54.1610  -74.1740 C.3   200  ILE200      0.0019
    113  CG2       38.0250   53.3770  -73.1290 C.3   200  ILE200      0.0019
    114  CD1       40.0130   53.6570  -75.6250 C.3   200  ILE200      0.0001
    115  N         31.3660   45.6140  -72.7730 N.3   216  LEU216     -0.1245
    116  CA        31.5190   45.1010  -74.1500 C.3   216  LEU216      0.1561
    117  C         32.4550   43.8730  -74.1830 C.2   216  LEU216      0.2260
    118  O         32.1120   42.8500  -74.7820 O.2   216  LEU216     -0.2867
    119  CB        32.0550   46.2120  -75.0510 C.3   216  LEU216      0.0270
    120  CG        32.4590   45.7900  -76.4700 C.3   216  LEU216      0.0019
    121  CD1       31.3520   46.0870  -77.4310 C.3   216  LEU216      0.0001
    122  CD2       33.7710   46.4420  -76.8860 C.3   216  LEU216      0.0001
@<TRIPOS>BOND
     1    66    65    2
     2    65    64    1
     3    64    63    1
     4    64    67    1
     5    67    68    1
     6    69    68    1
     7    69    70    1
     8    71    70    1
     9     1     2    1
    10    32    33    1
    11     2     3    1
    12    35    34    2
    13    58    57    2
    14    23    22    1
    15    34    33    1
    16     8     7    2
    17    62    61    1
    18     5     3   am
    19     5     6    1
    20     3     4    2
    21    33    36    1
    22    57    56    1
    23     9     6    1
    24     9    10    1
    25    61    60    1
    26    22    21    1
    27     7     6    1
    28     7    16   am
    29    12    10   ar
    30    12    14   ar
    31    56    55    1
    32    56    59    1
    33    36    37    1
    34    10    11   ar
    35    60    59    1
    36    54    53    1
    37    14    15   ar
    38    16    17    1
    39    52    53   ar
    40    52    50   ar
    41    17    20    1
    42    17    18    1
    43    20    21    1
    44    53    51   ar
    45    11    13   ar
    46    37    38   ar
    47    37    39   ar
    48    50    48   ar
    49    15    13   ar
    50    38    40   ar
    51    39    41   ar
    52    18    19    2
    53    51    49   ar
    54    46    45    2
    55    48    49   ar
    56    48    47    1
    57    40    42   ar
    58    41    42   ar
    59    45    44    1
    60    47    44    1
    61    29    30    1
    62    29    28    1
    63    30    31    1
    64    44    43    1
    65    84    86    1
    66    84    83    1
    67    24    25    1
    68    72    78    1
    69    72    73    1
    70    28    25    1
    71    25    26    1
    72    83    85    1
    73    83    80    1
    74    78    77    1
    75    73    74    1
    76    73    76    1
    77    93    91    1
    78    79    74   am
    79    79    80    1
    80    74    75    2
    81    80    81    1
    82    26    27    2
    83    76    77    1
    84   121   120    1
    85    91    92    1
    86    91    88    1
    87    82    81    2
    88   122   120    1
    89    98    95    1
    90   120   119    1
    91   104   105    1
    92   104   103    1
    93   105   106    1
    94    88    87    1
    95    88    89    1
    96   114   112    1
    97    95    94    1
    98    95    96    1
    99   103   100    1
   100   119   116    1
   101    99    96   am
   102    99   100    1
   103    89    90    2
   104   118   117    2
   105    96    97    2
   106   100   101    1
   107   117   116    1
   108   112   111    1
   109   116   115    1
   110   113   111    1
   111   111   108    1
   112   101   102    2
   113   108   107    1
   114   108   109    1
   115   109   110    2
