@<TRIPOS>MOLECULE
tmp/5oisA00.pdb
 149 143 0 0 0
SMALL
GASTEIGER

@<TRIPOS>ATOM
      1  N          3.2810   95.1750  -55.1920 N.3    95  GLY95      -0.1210
      2  CA         2.3310   94.1030  -54.9470 C.3    95  GLY95       0.1956
      3  C          1.4570   94.4510  -53.7680 C.2    95  GLY95       0.2612
      4  O          1.9090   95.0430  -52.7890 O.2    95  GLY95      -0.2717
      5  N          0.1910   94.1200  -53.8900 N.am   96  PHE96      -0.1962
      6  CA        -0.7950   94.3380  -52.8580 C.3    96  PHE96       0.1771
      7  C         -1.9880   93.4280  -53.1210 C.2    96  PHE96       0.2619
      8  O         -2.3820   93.2280  -54.2720 O.2    96  PHE96      -0.2715
      9  CB        -1.2680   95.7900  -52.8800 C.3    96  PHE96       0.0574
     10  CG        -2.4000   96.0980  -51.9220 C.ar   96  PHE96      -0.0200
     11  CD1       -2.1720   96.1950  -50.5620 C.ar   96  PHE96      -0.0042
     12  CD2       -3.6990   96.2730  -52.3860 C.ar   96  PHE96      -0.0042
     13  CE1       -3.2280   96.4560  -49.6790 C.ar   96  PHE96      -0.0003
     14  CE2       -4.7460   96.5610  -51.5060 C.ar   96  PHE96      -0.0003
     15  CZ        -4.5060   96.6560  -50.1580 C.ar   96  PHE96      -0.0000
     16  N         -2.5880   92.9450  -52.0590 N.am   97  MET97      -0.1964
     17  CA        -3.8310   92.1800  -52.1010 C.3    97  MET97       0.1722
     18  C         -4.5850   92.4880  -50.7940 C.2    97  MET97       0.2458
     19  O         -4.0250   92.2680  -49.7360 O.2    97  MET97      -0.2730
     20  CB        -3.6030   90.6680  -52.2680 C.3    97  MET97       0.0427
     21  CG        -4.9080   89.8760  -52.4290 C.3    97  MET97       0.0599
     22  SD        -6.0110   90.3600  -53.8250 S.3    97  MET97      -0.1393
     23  CE        -5.0360   89.8310  -55.1870 C.3    97  MET97       0.0692
     24  N         -5.8290   93.0230  -50.8390 N.am   98  PRO98      -0.2716
     25  CA        -6.5570   93.2720  -49.5790 C.3    98  PRO98       0.1536
     26  C         -6.7040   91.9840  -48.7360 C.2    98  PRO98       0.2598
     27  O         -6.6730   90.8680  -49.2580 O.2    98  PRO98      -0.2715
     28  CB        -7.9240   93.7990  -50.0470 C.3    98  PRO98       0.0310
     29  CG        -7.6900   94.3240  -51.4260 C.3    98  PRO98       0.0237
     30  CD        -6.6420   93.4090  -52.0190 C.3    98  PRO98       0.0939
     31  N         -6.8530   92.1660  -47.4180 N.am   99  GLN99      -0.1978
     32  CA        -7.0520   91.1730  -46.3600 C.3    99  GLN99       0.1601
     33  C         -8.1130   90.1440  -46.7340 C.2    99  GLN99       0.2287
     34  O         -8.0090   88.9920  -46.3390 O.2    99  GLN99      -0.2864
     35  CB        -7.5180   91.9720  -45.0770 C.3    99  GLN99       0.0394
     36  CG        -8.0850   91.2130  -43.8820 C.3    99  GLN99       0.0908
     37  CD        -9.5910   91.0520  -43.7990 C.2    99  GLN99       0.2608
     38  OE1      -10.3840   91.9170  -44.2250 O.2    99  GLN99      -0.2717
     39  NE2      -10.0090   89.9640  -43.1470 N.am   99  GLN99      -0.0878
     40  N         -6.3470   87.5640  -49.0510 N.3   102  MET102     -0.1245
     41  CA        -5.0580   87.0410  -48.6250 C.3   102  MET102      0.1570
     42  C         -5.0570   87.0290  -47.1030 C.2   102  MET102      0.2261
     43  O         -5.2300   88.0780  -46.4860 O.2   102  MET102     -0.2867
     44  CB        -3.9400   87.9600  -49.1440 C.3   102  MET102      0.0387
     45  CG        -2.5970   87.3450  -49.0780 C.3   102  MET102      0.0595
     46  SD        -1.3780   88.6090  -49.4270 S.3   102  MET102     -0.1393
     47  CE         0.0090   87.7600  -48.8520 C.3   102  MET102      0.0692
     48  N          5.8740   85.2380  -56.7450 N.3   148  PHE148     -0.1241
     49  CA         5.8080   84.2540  -55.6660 C.3   148  PHE148      0.1605
     50  C          5.1290   83.0550  -56.3170 C.2   148  PHE148      0.2264
     51  O          3.9580   83.1500  -56.6940 O.2   148  PHE148     -0.2867
     52  CB         5.0060   84.7640  -54.4440 C.3   148  PHE148      0.0534
     53  CG         5.0430   83.8100  -53.2560 C.ar  148  PHE148     -0.0203
     54  CD1        6.2540   83.4590  -52.6630 C.ar  148  PHE148     -0.0042
     55  CD2        3.8700   83.3000  -52.7150 C.ar  148  PHE148     -0.0042
     56  CE1        6.2930   82.6350  -51.5480 C.ar  148  PHE148     -0.0003
     57  CE2        3.9080   82.4730  -51.5890 C.ar  148  PHE148     -0.0003
     58  CZ         5.1180   82.1480  -51.0060 C.ar  148  PHE148     -0.0000
     59  N         -2.2490   82.4640  -49.0500 N.3   157  TYR157     -0.1241
     60  CA        -1.9370   83.3690  -50.1560 C.3   157  TYR157      0.1605
     61  C         -3.0990   83.5630  -51.1380 C.2   157  TYR157      0.2264
     62  O         -3.1890   84.6240  -51.7670 O.2   157  TYR157     -0.2867
     63  CB        -0.6500   82.9680  -50.8380 C.3   157  TYR157      0.0534
     64  CG         0.5530   83.1910  -49.9360 C.ar  157  TYR157     -0.0201
     65  CD1        1.2330   84.4120  -49.9290 C.ar  157  TYR157     -0.0009
     66  CD2        1.0260   82.1760  -49.1040 C.ar  157  TYR157     -0.0009
     67  CE1        2.3470   84.6180  -49.1090 C.ar  157  TYR157      0.0417
     68  CE2        2.1440   82.3680  -48.2930 C.ar  157  TYR157      0.0417
     69  CZ         2.8110   83.5850  -48.3150 C.ar  157  TYR157      0.1957
     70  OH         3.9340   83.7610  -47.5540 O.3   157  TYR157     -0.2866
     71  N         -3.7590   86.3670  -53.8530 N.3   160  MET160     -0.1245
     72  CA        -2.4460   86.9080  -54.2270 C.3   160  MET160      0.1570
     73  C         -1.7570   85.8760  -55.1620 C.2   160  MET160      0.2261
     74  O         -1.0860   86.2610  -56.0930 O.2   160  MET160     -0.2867
     75  CB        -1.5710   87.2110  -52.9870 C.3   160  MET160      0.0387
     76  CG        -0.1640   87.6810  -53.3450 C.3   160  MET160      0.0595
     77  SD        -0.0910   89.0930  -54.5600 S.3   160  MET160     -0.1393
     78  CE        -0.0210   90.4470  -53.4100 C.3   160  MET160      0.0692
     79  N         -0.4430   86.4120  -58.9840 N.3   164  LYS164     -0.1245
     80  CA         0.9060   86.0340  -59.4360 C.3   164  LYS164      0.1561
     81  C          0.8390   85.1780  -60.6740 C.2   164  LYS164      0.2260
     82  O          1.6950   85.3100  -61.5430 O.2   164  LYS164     -0.2867
     83  CB         1.7420   85.3710  -58.3260 C.3   164  LYS164      0.0271
     84  CG         2.1470   86.2980  -57.1850 C.3   164  LYS164      0.0035
     85  CD         2.8000   87.6100  -57.6240 C.3   164  LYS164      0.0206
     86  CE         3.2920   88.3850  -56.4190 C.3   164  LYS164      0.1093
     87  NZ         4.0100   89.6090  -56.8400 N.3   164  LYS164     -0.1314
     88  N          9.6000   86.3250  -47.7090 N.3   193  ILE193     -0.1245
     89  CA        10.4590   87.2870  -47.0080 C.3   193  ILE193      0.1561
     90  C          9.5820   88.0950  -45.9810 C.2   193  ILE193      0.2260
     91  O          8.4230   88.3970  -46.2870 O.2   193  ILE193     -0.2867
     92  CB        11.1880   88.2120  -48.0500 C.3   193  ILE193      0.0252
     93  CG1       12.2370   87.4460  -48.9170 C.3   193  ILE193      0.0019
     94  CG2       11.8000   89.4280  -47.3690 C.3   193  ILE193      0.0019
     95  CD1       13.4800   86.9230  -48.0630 C.3   193  ILE193      0.0001
     96  N          8.4030   91.0630  -44.8720 N.3   195  THR195     -0.1203
     97  CA         8.2020   92.4640  -45.2420 C.3   195  THR195      0.1994
     98  C          6.9760   92.8960  -44.4610 C.2   195  THR195      0.2618
     99  O          6.3260   92.0650  -43.8000 O.2   195  THR195     -0.2717
    100  CB         8.0490   92.6440  -46.7710 C.3   195  THR195      0.1784
    101  OG1        6.9070   91.9140  -47.2800 O.3   195  THR195     -0.2211
    102  CG2        9.3210   92.2980  -47.5340 C.3   195  THR195      0.0376
    103  N          6.6520   94.1820  -44.5470 N.am  196  LEU196     -0.1965
    104  CA         5.5480   94.8170  -43.8250 C.3   196  LEU196      0.1728
    105  C          4.3470   93.8890  -43.5440 C.2   196  LEU196      0.2616
    106  O          4.1340   93.5430  -42.3880 O.2   196  LEU196     -0.2715
    107  CB         5.1170   96.0860  -44.5690 C.3   196  LEU196      0.0311
    108  CG         4.3690   97.1520  -43.7790 C.3   196  LEU196      0.0022
    109  CD1        5.0440   97.4450  -42.4410 C.3   196  LEU196      0.0001
    110  CD2        4.2400   98.4120  -44.6200 C.3   196  LEU196      0.0001
    111  N          3.6220   93.4390  -44.5850 N.am  197  ALA197     -0.1963
    112  CA         2.4410   92.5840  -44.4450 C.3   197  ALA197      0.1728
    113  C          2.7120   91.2440  -43.8200 C.2   197  ALA197      0.2616
    114  O          1.8670   90.7460  -43.0720 O.2   197  ALA197     -0.2715
    115  CB         1.7630   92.3970  -45.7930 C.3   197  ALA197      0.0334
    116  N          3.8690   90.6330  -44.1460 N.am  198  MET198     -0.1977
    117  CA         4.2120   89.2960  -43.6160 C.3   198  MET198      0.1605
    118  C          4.4730   89.3600  -42.1560 C.2   198  MET198      0.2287
    119  O          3.9160   88.5610  -41.3940 O.2   198  MET198     -0.2864
    120  CB         5.3670   88.6410  -44.3980 C.3   198  MET198      0.0413
    121  CG         5.0180   88.2850  -45.8430 C.3   198  MET198      0.0598
    122  SD         3.6800   87.0490  -46.0200 S.3   198  MET198     -0.1393
    123  CE         2.2840   88.1630  -46.2470 C.3   198  MET198      0.0692
    124  N          3.2710   91.6750  -40.1110 N.3   200  ALA200     -0.1231
    125  CA         1.9750   91.9840  -39.4880 C.3   200  ALA200      0.1694
    126  C          1.1670   90.6890  -39.2830 C.2   200  ALA200      0.2591
    127  O          0.6320   90.5070  -38.1920 O.2   200  ALA200     -0.2718
    128  CB         1.1890   92.9630  -40.3610 C.3   200  ALA200      0.0304
    129  N          1.1340   89.7860  -40.3020 N.am  201  ILE201     -0.1980
    130  CA         0.4090   88.5080  -40.2060 C.3   201  ILE201      0.1595
    131  C          0.9910   87.6390  -39.0880 C.2   201  ILE201      0.2287
    132  O          0.2510   87.1820  -38.1920 O.2   201  ILE201     -0.2864
    133  CB         0.2910   87.7570  -41.5650 C.3   201  ILE201      0.0276
    134  CG1       -0.5320   88.5740  -42.5900 C.3   201  ILE201      0.0022
    135  CG2       -0.3250   86.3600  -41.3220 C.3   201  ILE201      0.0022
    136  CD1       -0.5990   88.0420  -44.0400 C.3   201  ILE201      0.0001
    137  N         -1.9220   90.1270  -36.7150 N.3   205  ALA205     -0.1231
    138  CA        -2.8850   91.0810  -37.3250 C.3   205  ALA205      0.1694
    139  C         -4.1970   90.4440  -37.8110 C.2   205  ALA205      0.2591
    140  O         -5.2880   90.9600  -37.5430 O.2   205  ALA205     -0.2718
    141  CB        -2.2450   91.8650  -38.4550 C.3   205  ALA205      0.0304
    142  N         -4.0880   89.2900  -38.4590 N.am  206  LEU206     -0.1980
    143  CA        -5.2280   88.5210  -39.0010 C.3   206  LEU206      0.1596
    144  C         -5.6150   87.3590  -38.1130 C.2   206  LEU206      0.2287
    145  O         -6.3770   86.4800  -38.5410 O.2   206  LEU206     -0.2864
    146  CB        -4.9560   88.0590  -40.4600 C.3   206  LEU206      0.0297
    147  CG        -4.5240   89.1410  -41.4490 C.3   206  LEU206      0.0022
    148  CD1       -4.3230   88.5470  -42.8200 C.3   206  LEU206      0.0001
    149  CD2       -5.5220   90.2830  -41.5090 C.3   206  LEU206      0.0001
@<TRIPOS>BOND
     1    82    81    2
     2    81    80    1
     3    80    79    1
     4    80    83    1
     5    83    84    1
     6    85    84    1
     7    85    86    1
     8    87    86    1
     9    48    49    1
    10    51    50    2
    11    50    49    1
    12    74    73    2
    13    49    52    1
    14     1     2    1
    15    23    22    1
    16    73    72    1
    17     2     3    1
    18    77    78    1
    19    77    76    1
    20    52    53    1
    21     8     7    2
    22    72    71    1
    23    72    75    1
    24     5     3   am
    25     5     6    1
    26    22    21    1
    27     3     4    2
    28    76    75    1
    29    53    55   ar
    30    53    54   ar
    31     7     6    1
    32     7    16   am
    33     9     6    1
    34     9    10    1
    35    55    57   ar
    36    54    56   ar
    37    21    20    1
    38    12    10   ar
    39    12    14   ar
    40    20    17    1
    41    17    16    1
    42    17    18    1
    43    30    29    1
    44    30    24    1
    45    10    11   ar
    46    62    61    2
    47    57    58   ar
    48    56    58   ar
    49    14    15   ar
    50    29    28    1
    51    61    60    1
    52    24    18   am
    53    24    25    1
    54    63    60    1
    55    63    64    1
    56    18    19    2
    57    11    13   ar
    58    15    13   ar
    59    60    59    1
    60    28    25    1
    61    64    65   ar
    62    64    66   ar
    63    65    67   ar
    64    25    26    1
    65    46    45    1
    66    46    47    1
    67    27    26    2
    68    44    45    1
    69    44    41    1
    70    67    69   ar
    71    66    68   ar
    72    40    41    1
    73    93    95    1
    74    93    92    1
    75    26    31   am
    76    41    42    1
    77    69    68   ar
    78    69    70    1
    79    92    94    1
    80    92    89    1
    81    88    89    1
    82   102   100    1
    83    31    32    1
    84   101   100    1
    85    42    43    2
    86    89    90    1
    87   100    97    1
    88    33    32    1
    89    33    34    2
    90    32    35    1
    91    91    90    2
    92   123   122    1
    93   122   121    1
    94   121   120    1
    95   115   112    1
    96    97    96    1
    97    97    98    1
    98    35    36    1
    99   110   108    1
   100   111   112    1
   101   111   105   am
   102   107   104    1
   103   107   108    1
   104   103    98   am
   105   103   104    1
   106    98    99    2
   107   112   113    1
   108   120   117    1
   109    38    37    2
   110   116   113   am
   111   116   117    1
   112   136   134    1
   113    36    37    1
   114   104   105    1
   115   113   114    2
   116    37    39   am
   117   108   109    1
   118   117   118    1
   119   105   106    2
   120   148   147    1
   121   134   133    1
   122   118   119    2
   123   133   135    1
   124   133   130    1
   125   149   147    1
   126   147   146    1
   127   146   143    1
   128   128   125    1
   129   129   130    1
   130   129   126   am
   131   130   131    1
   132   124   125    1
   133   125   126    1
   134   126   127    2
   135   131   132    2
   136   143   142    1
   137   143   144    1
   138   145   144    2
   139   142   139   am
   140   141   138    1
   141   139   140    2
   142   139   138    1
   143   138   137    1
