@<TRIPOS>MOLECULE
tmp/5oitA00.pdb
 133 124 0 0 0
SMALL
GASTEIGER

@<TRIPOS>ATOM
      1  N          2.2170   95.2390  -56.7830 N.3    95  GLY95      -0.1210
      2  CA         1.2830   94.1610  -56.4880 C.3    95  GLY95       0.1956
      3  C          0.3100   94.5610  -55.4080 C.2    95  GLY95       0.2612
      4  O          0.6840   95.2340  -54.4400 O.2    95  GLY95      -0.2717
      5  N         -0.9520   94.1570  -55.5880 N.am   96  PHE96      -0.1962
      6  CA        -2.0260   94.4170  -54.6340 C.3    96  PHE96       0.1771
      7  C         -3.2000   93.5090  -54.8610 C.2    96  PHE96       0.2619
      8  O         -3.6140   93.3210  -55.9950 O.2    96  PHE96      -0.2715
      9  CB        -2.4870   95.8750  -54.6630 C.3    96  PHE96       0.0574
     10  CG        -3.6160   96.1700  -53.7040 C.ar   96  PHE96      -0.0200
     11  CD1       -3.3960   96.2000  -52.3260 C.ar   96  PHE96      -0.0042
     12  CD2       -4.9100   96.3740  -54.1710 C.ar   96  PHE96      -0.0042
     13  CE1       -4.4510   96.4490  -51.4380 C.ar   96  PHE96      -0.0003
     14  CE2       -5.9650   96.6230  -53.2780 C.ar   96  PHE96      -0.0003
     15  CZ        -5.7240   96.6720  -51.9220 C.ar   96  PHE96      -0.0000
     16  N         -3.7480   92.9710  -53.7700 N.am   97  MET97      -0.1977
     17  CA        -4.9570   92.1770  -53.7530 C.3    97  MET97       0.1605
     18  C         -5.6880   92.4690  -52.4370 C.2    97  MET97       0.2287
     19  O         -5.1130   92.2180  -51.3760 O.2    97  MET97      -0.2864
     20  CB        -4.6640   90.6750  -53.9200 C.3    97  MET97       0.0413
     21  CG        -5.9160   89.8150  -54.0470 C.3    97  MET97       0.0598
     22  SD        -7.0790   90.3060  -55.3610 S.3    97  MET97      -0.1393
     23  CE        -6.1310   89.8530  -56.8160 C.3    97  MET97       0.0692
     24  N         -7.9640   92.1730  -49.0220 N.3    99  GLN99      -0.1245
     25  CA        -8.1280   91.1160  -48.0060 C.3    99  GLN99       0.1566
     26  C         -9.1960   90.0760  -48.3630 C.2    99  GLN99       0.2260
     27  O         -9.0900   88.9420  -47.9040 O.2    99  GLN99      -0.2867
     28  CB        -8.5310   91.7170  -46.6720 C.3    99  GLN99       0.0367
     29  CG        -7.4800   92.4950  -45.9870 C.3    99  GLN99       0.0905
     30  CD        -8.0490   92.9180  -44.6690 C.2    99  GLN99       0.2608
     31  OE1       -8.5000   92.0750  -43.8760 O.2    99  GLN99      -0.2717
     32  NE2       -8.0740   94.2340  -44.4210 N.am   99  GLN99      -0.0878
     33  N         -7.3550   87.6240  -50.7590 N.3   102  MET102     -0.1230
     34  CA        -6.0970   87.0510  -50.2970 C.3   102  MET102      0.1702
     35  C         -6.0800   87.0950  -48.7790 C.2   102  MET102      0.2592
     36  O         -6.1580   88.1800  -48.1880 O.2   102  MET102     -0.2718
     37  CB        -4.9430   87.8770  -50.8880 C.3   102  MET102      0.0401
     38  CG        -3.6150   87.2720  -50.6800 C.3   102  MET102      0.0596
     39  SD        -2.4350   88.5010  -51.2020 S.3   102  MET102     -0.1393
     40  CE        -0.9460   87.6570  -50.9220 C.3   102  MET102      0.0692
     41  N         -6.0390   85.9210  -48.1630 N.am  103  GLY103     -0.1957
     42  CA        -6.0130   85.7940  -46.7100 C.3   103  GLY103      0.1869
     43  C         -6.8570   84.6880  -46.1210 C.2   103  GLY103      0.2309
     44  O         -6.7810   83.5260  -46.5490 O.2   103  GLY103     -0.2863
     45  N          5.0540   85.3650  -58.2090 N.3   148  PHE148     -0.1241
     46  CA         5.0050   84.3780  -57.1360 C.3   148  PHE148      0.1605
     47  C          4.3440   83.1850  -57.8020 C.2   148  PHE148      0.2264
     48  O          3.1930   83.2770  -58.2010 O.2   148  PHE148     -0.2867
     49  CB         4.2060   84.8810  -55.9200 C.3   148  PHE148      0.0534
     50  CG         4.2850   83.9310  -54.7440 C.ar  148  PHE148     -0.0203
     51  CD1        5.5230   83.5550  -54.2060 C.ar  148  PHE148     -0.0042
     52  CD2        3.1310   83.4030  -54.1780 C.ar  148  PHE148     -0.0042
     53  CE1        5.6010   82.6740  -53.1140 C.ar  148  PHE148     -0.0003
     54  CE2        3.2130   82.5130  -53.0930 C.ar  148  PHE148     -0.0003
     55  CZ         4.4480   82.1730  -52.5550 C.ar  148  PHE148     -0.0000
     56  N         -4.5140   80.4990  -48.7400 N.3   156  ALA156     -0.1231
     57  CA        -4.4440   81.9330  -48.4830 C.3   156  ALA156      0.1694
     58  C         -4.2280   82.8440  -49.6850 C.2   156  ALA156      0.2592
     59  O         -4.8550   83.9100  -49.7320 O.2   156  ALA156     -0.2718
     60  CB        -3.3780   82.2200  -47.4320 C.3   156  ALA156      0.0304
     61  N         -3.3130   82.4940  -50.6190 N.am  157  TYR157     -0.1976
     62  CA        -2.9630   83.4120  -51.7190 C.3   157  TYR157      0.1639
     63  C         -4.1020   83.6390  -52.6650 C.2   157  TYR157      0.2290
     64  O         -4.2430   84.7350  -53.2000 O.2   157  TYR157     -0.2864
     65  CB        -1.6880   82.9760  -52.4230 C.3   157  TYR157      0.0560
     66  CG        -0.4660   83.2570  -51.5790 C.ar  157  TYR157     -0.0198
     67  CD1       -0.0400   82.3530  -50.6080 C.ar  157  TYR157     -0.0009
     68  CD2        0.2480   84.4450  -51.7260 C.ar  157  TYR157     -0.0009
     69  CE1        1.0670   82.6210  -49.8110 C.ar  157  TYR157      0.0417
     70  CE2        1.3470   84.7290  -50.9240 C.ar  157  TYR157      0.0417
     71  CZ         1.7670   83.8020  -49.9860 C.ar  157  TYR157      0.1957
     72  OH         2.8840   84.0420  -49.2380 O.3   157  TYR157     -0.2866
     73  N         -4.6960   86.3390  -55.4610 N.3   160  MET160     -0.1245
     74  CA        -3.3820   86.8850  -55.8140 C.3   160  MET160      0.1570
     75  C         -2.6610   85.8630  -56.7140 C.2   160  MET160      0.2261
     76  O         -1.9610   86.2650  -57.6300 O.2   160  MET160     -0.2867
     77  CB        -2.5340   87.2220  -54.5840 C.3   160  MET160      0.0387
     78  CG        -1.1140   87.7750  -54.9220 C.3   160  MET160      0.0595
     79  SD        -1.1290   89.2440  -56.0060 S.3   160  MET160     -0.1393
     80  CE        -0.8080   90.4540  -54.8150 C.3   160  MET160      0.0692
     81  N         -1.3800   86.4670  -60.4790 N.3   164  LYS164     -0.1245
     82  CA        -0.0320   86.1270  -60.9570 C.3   164  LYS164      0.1561
     83  C         -0.0650   85.2350  -62.1960 C.2   164  LYS164      0.2260
     84  O          0.8010   85.3530  -63.0540 O.2   164  LYS164     -0.2867
     85  CB         0.8420   85.5320  -59.8440 C.3   164  LYS164      0.0271
     86  CG         1.1110   86.4910  -58.6840 C.3   164  LYS164      0.0035
     87  CD         1.9180   87.7170  -59.0690 C.3   164  LYS164      0.0206
     88  CE         2.4790   88.4230  -57.8620 C.3   164  LYS164      0.1093
     89  NZ         3.0760   89.7250  -58.2160 N.3   164  LYS164     -0.1314
     90  N          7.9080   91.1270  -46.4490 N.3   195  THR195     -0.1218
     91  CA         7.5620   92.5130  -46.7610 C.3   195  THR195      0.1862
     92  C          6.3940   92.8890  -45.8630 C.2   195  THR195      0.2287
     93  O          5.9410   92.0450  -45.0770 O.2   195  THR195     -0.2866
     94  CB         7.3130   92.6920  -48.2550 C.3   195  THR195      0.1770
     95  OG1        6.2300   91.8450  -48.6650 O.3   195  THR195     -0.2211
     96  CG2        8.5550   92.3930  -49.0840 C.3   195  THR195      0.0375
     97  N          3.0620   93.2950  -45.8560 N.3   197  ALA197     -0.1231
     98  CA         1.8860   92.4440  -45.7140 C.3   197  ALA197      0.1694
     99  C          2.2180   91.1230  -45.0610 C.2   197  ALA197      0.2591
    100  O          1.4330   90.6440  -44.2400 O.2   197  ALA197     -0.2718
    101  CB         1.2440   92.2080  -47.0630 C.3   197  ALA197      0.0304
    102  N          3.3890   90.5380  -45.4240 N.am  198  MET198     -0.1979
    103  CA         3.8560   89.2580  -44.8970 C.3   198  MET198      0.1605
    104  C          4.1560   89.3410  -43.3940 C.2   198  MET198      0.2287
    105  O          3.7290   88.4880  -42.6180 O.2   198  MET198     -0.2864
    106  CB         5.0690   88.7630  -45.6960 C.3   198  MET198      0.0413
    107  CG         4.7310   88.3520  -47.1090 C.3   198  MET198      0.0598
    108  SD         3.8790   86.7500  -47.2460 S.3   198  MET198     -0.1393
    109  CE         5.1930   85.6650  -46.8920 C.3   198  MET198      0.0692
    110  N          0.6590   89.5540  -41.4340 N.3   201  ILE201     -0.1245
    111  CA        -0.0550   88.2890  -41.2860 C.3   201  ILE201      0.1561
    112  C          0.6800   87.4000  -40.2660 C.2   201  ILE201      0.2260
    113  O          0.0590   86.9370  -39.3050 O.2   201  ILE201     -0.2867
    114  CB        -0.3930   87.5920  -42.6480 C.3   201  ILE201      0.0252
    115  CG1       -1.1690   86.2920  -42.4330 C.3   201  ILE201      0.0019
    116  CG2        0.8210   87.3620  -43.5600 C.3   201  ILE201      0.0019
    117  CD1       -1.9040   85.8070  -43.6420 C.3   201  ILE201      0.0001
    118  N         -4.4480   88.8160  -39.2150 N.3   206  LEU206     -0.1245
    119  CA        -5.5890   87.9840  -39.6360 C.3   206  LEU206      0.1561
    120  C         -5.7420   86.7410  -38.7350 C.2   206  LEU206      0.2260
    121  O         -6.2170   85.6880  -39.1890 O.2   206  LEU206     -0.2867
    122  CB        -5.4460   87.5400  -41.1040 C.3   206  LEU206      0.0270
    123  CG        -5.4800   88.6090  -42.1860 C.3   206  LEU206      0.0019
    124  CD1       -5.3920   87.9760  -43.5530 C.3   206  LEU206      0.0001
    125  CD2       -6.7210   89.5080  -42.0790 C.3   206  LEU206      0.0001
    126  N          1.4150   80.8670  -43.0290 N.3   214  ILE214     -0.1245
    127  CA         2.5610   81.5500  -43.6440 C.3   214  ILE214      0.1561
    128  C          3.8690   80.9820  -43.0960 C.2   214  ILE214      0.2260
    129  O          4.7840   80.7090  -43.8650 O.2   214  ILE214     -0.2867
    130  CB         2.4340   83.1030  -43.5080 C.3   214  ILE214      0.0252
    131  CG1        1.1860   83.6280  -44.2630 C.3   214  ILE214      0.0019
    132  CG2        3.6910   83.8260  -43.9780 C.3   214  ILE214      0.0019
    133  CD1        0.9620   83.0830  -45.7530 C.3   214  ILE214      0.0001
@<TRIPOS>BOND
     1    84    83    2
     2    83    82    1
     3    82    81    1
     4    82    85    1
     5    85    86    1
     6    87    86    1
     7    87    88    1
     8    89    88    1
     9    45    46    1
    10    48    47    2
    11    47    46    1
    12    76    75    2
    13    46    49    1
    14    23    22    1
    15     1     2    1
    16    75    74    1
    17     2     3    1
    18    79    78    1
    19    79    80    1
    20     8     7    2
    21    49    50    1
    22    74    73    1
    23    74    77    1
    24     5     3   am
    25     5     6    1
    26     3     4    2
    27    22    21    1
    28    78    77    1
    29     7     6    1
    30     7    16   am
    31    50    51   ar
    32    50    52   ar
    33     9     6    1
    34     9    10    1
    35    51    53   ar
    36    52    54   ar
    37    12    10   ar
    38    12    14   ar
    39    21    20    1
    40    20    17    1
    41    16    17    1
    42    17    18    1
    43    10    11   ar
    44    14    15   ar
    45    64    63    2
    46    53    55   ar
    47    54    55   ar
    48    63    62    1
    49    18    19    2
    50    65    62    1
    51    65    66    1
    52    11    13   ar
    53    15    13   ar
    54    68    66   ar
    55    68    70   ar
    56    62    61    1
    57    66    67   ar
    58    39    40    1
    59    39    38    1
    60    70    71   ar
    61    37    38    1
    62    37    34    1
    63    33    34    1
    64    61    58   am
    65    67    69   ar
    66    34    35    1
    67    71    69   ar
    68    71    72    1
    69    59    58    2
    70    58    57    1
    71    96    94    1
    72    24    25    1
    73    35    36    2
    74    35    41   am
    75    56    57    1
    76    95    94    1
    77    57    60    1
    78    26    25    1
    79    26    27    2
    80    94    91    1
    81    41    42    1
    82    25    28    1
    83   108   107    1
    84   108   109    1
    85   107   106    1
    86   101    98    1
    87    91    90    1
    88    91    92    1
    89    42    43    1
    90    28    29    1
    91    44    43    2
    92    29    30    1
    93    92    93    2
    94    97    98    1
    95   133   131    1
    96    98    99    1
    97   106   103    1
    98   102    99   am
    99   102   103    1
   100    99   100    2
   101   103   104    1
   102    30    32   am
   103    30    31    2
   104   131   130    1
   105   132   130    1
   106   129   128    2
   107   127   130    1
   108   127   128    1
   109   127   126    1
   110   117   115    1
   111   116   114    1
   112   124   123    1
   113   104   105    2
   114   114   115    1
   115   114   111    1
   116   123   125    1
   117   123   122    1
   118   110   111    1
   119   111   112    1
   120   122   119    1
   121   112   113    2
   122   119   118    1
   123   119   120    1
   124   121   120    2
