@<TRIPOS>MOLECULE
tmp/5oiuC00.pdb
 203 195 0 0 0
SMALL
GASTEIGER

@<TRIPOS>ATOM
      1  N         80.9700   21.4200   28.0690 N.3    78  ARG78      -0.1245
      2  CA        81.0120   20.0280   27.6740 C.3    78  ARG78       0.1563
      3  C         80.2860   19.1970   28.7170 C.2    78  ARG78       0.2260
      4  O         80.3480   19.4900   29.9140 O.2    78  ARG78      -0.2867
      5  CB        82.4400   19.5340   27.5060 C.3    78  ARG78       0.0307
      6  CG        82.5410   18.4610   26.4790 C.3    78  ARG78       0.0489
      7  CD        83.8770   17.8160   26.5160 C.3    78  ARG78       0.2205
      8  NE        84.8300   18.5120   25.6720 N.pl3  78  ARG78      -0.0865
      9  CZ        85.7540   17.8860   24.9480 C.cat  78  ARG78       0.5346
     10  NH1       85.8100   16.5600   24.9560 N.pl3  78  ARG78       0.1354
     11  NH2       86.6060   18.5810   24.2040 N.pl3  78  ARG78       0.1354
     12  N         80.0130   15.3390   29.9760 N.3    80  ARG80      -0.1245
     13  CA        80.5860   13.9940   29.9120 C.3    80  ARG80       0.1563
     14  C         79.5530   13.0180   30.4640 C.2    80  ARG80       0.2260
     15  O         79.5040   12.7350   31.6620 O.2    80  ARG80      -0.2867
     16  CB        81.9080   13.9470   30.6500 C.3    80  ARG80       0.0307
     17  CG        82.7130   15.1730   30.3320 C.3    80  ARG80       0.0489
     18  CD        84.0900   15.1580   30.9340 C.3    80  ARG80       0.2205
     19  NE        85.0340   15.9040   30.0990 N.pl3  80  ARG80      -0.0865
     20  CZ        85.1000   17.2320   30.0610 C.cat  80  ARG80       0.5346
     21  NH1       84.2630   17.9490   30.8010 N.pl3  80  ARG80       0.1354
     22  NH2       85.9960   17.8370   29.2860 N.pl3  80  ARG80       0.1354
     23  N         79.8830   14.2340   20.2960 N.3   108  LEU108     -0.1231
     24  CA        81.2460   14.1480   19.7870 C.3   108  LEU108      0.1693
     25  C         81.5890   12.7050   19.4360 C.2   108  LEU108      0.2591
     26  O         81.0560   11.7650   20.0270 O.2   108  LEU108     -0.2718
     27  CB        82.2550   14.6800   20.8150 C.3   108  LEU108      0.0284
     28  CG        82.1110   16.1020   21.3920 C.3   108  LEU108      0.0019
     29  CD1       83.1780   16.3620   22.4520 C.3   108  LEU108      0.0001
     30  CD2       82.1350   17.2060   20.3170 C.3   108  LEU108      0.0001
     31  N         82.4880   12.5300   18.4690 N.am  109  LYS109     -0.1980
     32  CA        82.9700   11.1900   18.1490 C.3   109  LYS109      0.1596
     33  C         83.7660   10.6280   19.3230 C.2   109  LYS109      0.2287
     34  O         84.4740   11.3610   20.0210 O.2   109  LYS109     -0.2864
     35  CB        83.8530   11.2090   16.8940 C.3   109  LYS109      0.0298
     36  CG        83.1550   11.5970   15.5950 C.3   109  LYS109      0.0038
     37  CD        83.7970   12.8680   14.9690 C.3   109  LYS109      0.0206
     38  CE        84.5940   12.6010   13.6590 C.3   109  LYS109      0.1093
     39  NZ        85.0080   13.8550   12.9230 N.3   109  LYS109     -0.1314
     40  N         86.4730    9.3520   21.5420 N.3   111  ALA111     -0.1231
     41  CA        87.8600    9.7610   21.4440 C.3   111  ALA111      0.1694
     42  C         88.7230    8.5600   21.1190 C.2   111  ALA111      0.2592
     43  O         88.5440    7.4720   21.6740 O.2   111  ALA111     -0.2718
     44  CB        88.3230   10.4040   22.7510 C.3   111  ALA111      0.0304
     45  N         89.6420    8.7520   20.1840 N.am  112  SER112     -0.1952
     46  CA        90.6400    7.7300   19.9420 C.3   112  SER112      0.1924
     47  C         91.5860    7.6250   21.1360 C.2   112  SER112      0.2314
     48  O         91.6740    8.5200   21.9900 O.2   112  SER112     -0.2863
     49  CB        91.4340    8.0420   18.6760 C.3   112  SER112      0.2116
     50  OG        92.5920    7.2260   18.5960 O.3   112  SER112     -0.2180
     51  N        101.9580   11.0450   15.0360 N.3   119  ASP119     -0.1225
     52  CA       100.6680   11.0170   14.3580 C.3   119  ASP119      0.1805
     53  C         99.7760   12.1830   14.7840 C.2   119  ASP119      0.2597
     54  O         98.5490   12.0660   14.7650 O.2   119  ASP119     -0.2718
     55  CB        99.9380    9.6980   14.6210 C.3   119  ASP119      0.1424
     56  CG       100.8280    8.4830   14.4270 C.2   119  ASP119      0.3668
     57  OD1      101.3910    8.3680   13.3210 O.co2 119  ASP119     -0.2456
     58  OD2      100.9590    7.6500   15.3710 O.co2 119  ASP119     -0.2456
     59  N        100.3650   13.3000   15.1990 N.am  120  LEU120     -0.1979
     60  CA        99.5700   14.4570   15.5840 C.3   120  LEU120      0.1596
     61  C         99.2620   15.3710   14.4170 C.2   120  LEU120      0.2287
     62  O         98.6010   16.3900   14.6250 O.2   120  LEU120     -0.2864
     63  CB       100.2800   15.2740   16.6610 C.3   120  LEU120      0.0297
     64  CG       100.1030   14.7960   18.0910 C.3   120  LEU120      0.0022
     65  CD1      100.9970   15.6330   19.0020 C.3   120  LEU120      0.0001
     66  CD2       98.6660   14.9090   18.4800 C.3   120  LEU120      0.0001
     67  N         87.9900   26.9080   22.1650 N.3   147  THR147     -0.1203
     68  CA        87.3590   25.7600   22.7990 C.3   147  THR147      0.1994
     69  C         87.2250   24.6000   21.8220 C.2   147  THR147      0.2618
     70  O         86.8800   24.7910   20.6560 O.2   147  THR147     -0.2717
     71  CB        85.9930   26.1680   23.3320 C.3   147  THR147      0.1784
     72  OG1       86.1690   27.2600   24.2460 O.3   147  THR147     -0.2211
     73  CG2       85.3370   25.0180   24.0130 C.3   147  THR147      0.0376
     74  N         87.5310   23.3930   22.3010 N.am  148  GLY148     -0.1942
     75  CA        87.3400   22.1870   21.5230 C.3   148  GLY148      0.2014
     76  C         88.3200   21.9840   20.3970 C.2   148  GLY148      0.2640
     77  O         88.0790   21.1420   19.5310 O.2   148  GLY148     -0.2714
     78  N         89.4450   22.6970   20.3920 N.am  149  SER149     -0.1935
     79  CA        90.3490   22.6550   19.2500 C.3   149  SER149      0.2055
     80  C         91.4670   21.6260   19.3800 C.2   149  SER149      0.2644
     81  O         92.4220   21.6910   18.6000 O.2   149  SER149     -0.2714
     82  CB        90.9490   24.0470   18.9970 C.3   149  SER149      0.2130
     83  OG        91.6950   24.5010   20.1040 O.3   149  SER149     -0.2179
     84  N         91.3670   20.6760   20.3180 N.am  150  GLY150     -0.1939
     85  CA        92.3370   19.5910   20.4250 C.3   150  GLY150      0.2014
     86  C         93.4680   19.8000   21.4230 C.2   150  GLY150      0.2639
     87  O         94.4630   19.0590   21.3720 O.2   150  GLY150     -0.2714
     88  N         93.3350   20.7700   22.3390 N.am  151  LYS151     -0.1963
     89  CA        94.4190   21.1130   23.2540 C.3   151  LYS151      0.1728
     90  C         94.7730   19.9450   24.1710 C.2   151  LYS151      0.2617
     91  O         95.9450   19.5930   24.3210 O.2   151  LYS151     -0.2715
     92  CB        94.0380   22.3360   24.0900 C.3   151  LYS151      0.0311
     93  CG        93.8430   23.6330   23.3180 C.3   151  LYS151      0.0038
     94  CD        93.2650   24.7100   24.2460 C.3   151  LYS151      0.0206
     95  CE        91.8010   25.0290   23.8830 C.3   151  LYS151      0.1093
     96  NZ        90.7600   24.3100   24.6880 N.3   151  LYS151     -0.1314
     97  N         93.7740   19.3510   24.8210 N.am  152  SER152     -0.1936
     98  CA        94.0630   18.2580   25.7380 C.3   152  SER152      0.2055
     99  C         94.6020   17.0330   25.0000 C.2   152  SER152      0.2643
    100  O         95.4900   16.3350   25.5010 O.2   152  SER152     -0.2714
    101  CB        92.8190   17.9200   26.5380 C.3   152  SER152      0.2130
    102  OG        92.6060   18.9510   27.4670 O.3   152  SER152     -0.2179
    103  N         94.0920   16.7610   23.8060 N.am  153  PHE153     -0.1959
    104  CA        94.5720   15.6140   23.0500 C.3   153  PHE153      0.1771
    105  C         96.0400   15.7820   22.6910 C.2   153  PHE153      0.2620
    106  O         96.8340   14.8470   22.8300 O.2   153  PHE153     -0.2715
    107  CB        93.7170   15.4460   21.8030 C.3   153  PHE153      0.0574
    108  CG        93.8920   14.1420   21.1000 C.ar  153  PHE153     -0.0200
    109  CD1       93.1820   13.0150   21.5100 C.ar  153  PHE153     -0.0042
    110  CD2       94.7090   14.0530   19.9720 C.ar  153  PHE153     -0.0042
    111  CE1       93.3000   11.8000   20.8260 C.ar  153  PHE153     -0.0003
    112  CE2       94.8300   12.8510   19.2800 C.ar  153  PHE153     -0.0003
    113  CZ        94.1270   11.7180   19.7080 C.ar  153  PHE153     -0.0000
    114  N         96.4230   16.9760   22.2340 N.am  154  THR154     -0.1951
    115  CA        97.8350   17.2510   21.9680 C.3   154  THR154      0.1897
    116  C         98.6680   17.1500   23.2440 C.2   154  THR154      0.2313
    117  O         99.7430   16.5360   23.2490 O.2   154  THR154     -0.2863
    118  CB        97.9780   18.6400   21.3390 C.3   154  THR154      0.1794
    119  OG1       97.5230   18.5790   19.9890 O.3   154  THR154     -0.2208
    120  CG2       99.4320   19.1370   21.3770 C.3   154  THR154      0.0378
    121  N         90.3530   13.6810   32.3590 N.3   177  GLU177     -0.1231
    122  CA        89.6970   12.9840   31.2310 C.3   177  GLU177      0.1699
    123  C         90.3640   11.6320   30.9910 C.2   177  GLU177      0.2592
    124  O         89.8380   10.6240   31.3930 O.2   177  GLU177     -0.2718
    125  CB        89.8890   13.7960   29.9550 C.3   177  GLU177      0.0402
    126  CG        89.0390   15.0380   29.8530 C.3   177  GLU177      0.1161
    127  CD        89.4620   15.9700   28.7340 C.2   177  GLU177      0.3649
    128  OE1       89.1530   15.6810   27.5970 O.co2 177  GLU177     -0.2457
    129  OE2       90.0980   16.9680   29.0110 O.co2 177  GLU177     -0.2457
    130  N         91.4680   11.6240   30.3120 N.am  178  TYR178     -0.1976
    131  CA        92.1660   10.3910   30.0290 C.3   178  TYR178      0.1639
    132  C         92.9480    9.9220   31.2520 C.2   178  TYR178      0.2290
    133  O         93.2660   10.7000   32.1570 O.2   178  TYR178     -0.2864
    134  CB        93.1110   10.5840   28.8410 C.3   178  TYR178      0.0560
    135  CG        92.4730   11.2550   27.6330 C.ar  178  TYR178     -0.0198
    136  CD1       92.3330   12.6420   27.5680 C.ar  178  TYR178     -0.0009
    137  CD2       92.0290   10.5000   26.5450 C.ar  178  TYR178     -0.0009
    138  CE1       91.7490   13.2590   26.4550 C.ar  178  TYR178      0.0417
    139  CE2       91.4450   11.1060   25.4220 C.ar  178  TYR178      0.0417
    140  CZ        91.3050   12.4810   25.3820 C.ar  178  TYR178      0.1957
    141  OH        90.7240   13.0790   24.2690 O.3   178  TYR178     -0.2866
    142  N         97.6100   24.7590   29.3980 N.3   238  THR238     -0.1218
    143  CA        96.6130   25.0740   28.3840 C.3   238  THR238      0.1862
    144  C         96.0720   26.4750   28.6400 C.2   238  THR238      0.2287
    145  O         95.7640   26.8250   29.7810 O.2   238  THR238     -0.2866
    146  CB        95.4870   24.0350   28.3990 C.3   238  THR238      0.1770
    147  OG1       95.9340   22.8530   27.7390 O.3   238  THR238     -0.2211
    148  CG2       94.2620   24.5280   27.6870 C.3   238  THR238      0.0375
    149  N         93.5410   29.7170   26.7580 N.3   240  HIS240     -0.1241
    150  CA        92.5270   30.0370   25.7560 C.3   240  HIS240      0.1621
    151  C         92.8540   31.3930   25.1360 C.2   240  HIS240      0.2264
    152  O         92.6420   32.4430   25.7530 O.2   240  HIS240     -0.2867
    153  CB        91.1410   30.0080   26.3750 C.3   240  HIS240      0.0745
    154  CG        90.7430   28.6480   26.8500 C.ar  240  HIS240      0.0817
    155  ND1       91.2830   28.0650   27.9800 N.ar  240  HIS240     -0.2268
    156  CD2       89.8750   27.7400   26.3330 C.ar  240  HIS240      0.1154
    157  CE1       90.7550   26.8640   28.1460 C.ar  240  HIS240      0.1986
    158  NE2       89.8950   26.6440   27.1630 N.ar  240  HIS240     -0.2212
    159  N         96.4560   25.8020   17.8940 N.3   271  GLN271     -0.1245
    160  CA        95.9900   24.8530   16.8980 C.3   271  GLN271      0.1566
    161  C         94.4910   24.9760   16.6270 C.2   271  GLN271      0.2260
    162  O         93.7390   25.6110   17.3730 O.2   271  GLN271     -0.2867
    163  CB        96.3650   23.4170   17.2990 C.3   271  GLN271      0.0367
    164  CG        95.7990   22.8770   18.6030 C.3   271  GLN271      0.0905
    165  CD        96.2230   21.4140   18.8000 C.2   271  GLN271      0.2608
    166  OE1       97.3920   21.1170   19.0560 O.2   271  GLN271     -0.2717
    167  NE2       95.2760   20.5010   18.6480 N.am  271  GLN271     -0.0878
    168  N         91.1980   22.4140   14.6090 N.3   273  LEU273     -0.1245
    169  CA        90.7910   21.2000   13.9090 C.3   273  LEU273      0.1561
    170  C         90.0230   21.5580   12.6280 C.2   273  LEU273      0.2260
    171  O         89.0580   22.3330   12.6640 O.2   273  LEU273     -0.2867
    172  CB        89.9580   20.3120   14.8340 C.3   273  LEU273      0.0270
    173  CG        90.6800   19.7240   16.0620 C.3   273  LEU273      0.0019
    174  CD1       89.8100   18.6860   16.7730 C.3   273  LEU273      0.0001
    175  CD2       92.0180   19.0970   15.6930 C.3   273  LEU273      0.0001
    176  N         88.7680   14.3920   11.3560 N.3   324  ARG324     -0.1231
    177  CA        89.3350   15.7150   11.5280 C.3   324  ARG324      0.1694
    178  C         90.8500   15.6000   11.5480 C.2   324  ARG324      0.2592
    179  O         91.4090   14.5090   11.7090 O.2   324  ARG324     -0.2718
    180  CB        88.8020   16.3930   12.8020 C.3   324  ARG324      0.0321
    181  CG        87.3000   16.2390   12.9780 C.3   324  ARG324      0.0489
    182  CD        86.8180   16.5570   14.3930 C.3   324  ARG324      0.2205
    183  NE        86.6310   17.9930   14.5500 N.pl3 324  ARG324     -0.0865
    184  CZ        86.3840   18.6020   15.7050 C.cat 324  ARG324      0.5346
    185  NH1       86.2800   17.9070   16.8360 N.pl3 324  ARG324      0.1354
    186  NH2       86.2430   19.9200   15.7230 N.pl3 324  ARG324      0.1354
    187  N         91.5060   16.7450   11.3560 N.am  325  TYR325     -0.1962
    188  CA        92.9560   16.8460   11.2400 C.3   325  TYR325      0.1771
    189  C         93.3800   18.2000   11.7860 C.2   325  TYR325      0.2619
    190  O         92.6450   19.1820   11.6710 O.2   325  TYR325     -0.2715
    191  CB        93.3980   16.6860    9.7880 C.3   325  TYR325      0.0574
    192  CG        94.8060   16.1770    9.5510 C.ar  325  TYR325     -0.0198
    193  CD1       95.8860   17.0410    9.5680 C.ar  325  TYR325     -0.0009
    194  CD2       95.0400   14.8410    9.2380 C.ar  325  TYR325     -0.0009
    195  CE1       97.1660   16.5960    9.3030 C.ar  325  TYR325      0.0417
    196  CE2       96.3120   14.3810    8.9720 C.ar  325  TYR325      0.0417
    197  CZ        97.3800   15.2650    9.0050 C.ar  325  TYR325      0.1957
    198  OH        98.6680   14.8240    8.7540 O.3   325  TYR325     -0.2866
    199  N         94.5440   18.2460   12.4100 N.am  326  ALA326     -0.1977
    200  CA        94.9590   19.4460   13.1120 C.3   326  ALA326      0.1597
    201  C         95.8580   20.2870   12.2230 C.2   326  ALA326      0.2287
    202  O         96.5740   19.7630   11.3650 O.2   326  ALA326     -0.2864
    203  CB        95.6900   19.0990   14.4070 C.3   326  ALA326      0.0319
@<TRIPOS>BOND
     1   198   197    1
     2   196   197   ar
     3   196   194   ar
     4   197   195   ar
     5   194   192   ar
     6   195   193   ar
     7   192   193   ar
     8   192   191    1
     9   191   188    1
    10   188   187    1
    11   188   189    1
    12   176   177    1
    13   187   178   am
    14   202   201    2
    15   177   178    1
    16   177   180    1
    17   178   179    2
    18   190   189    2
    19   189   199   am
    20   201   200    1
    21   199   200    1
    22   170   171    2
    23   170   169    1
    24   180   181    1
    25    39    38    1
    26   181   182    1
    27   200   203    1
    28    57    56   ar
    29    38    37    1
    30   169   168    1
    31   169   172    1
    32    52    55    1
    33    52    53    1
    34    52    51    1
    35   182   183    1
    36    61    62    2
    37    61    60    1
    38    56    55    1
    39    56    58   ar
    40   183   184    2
    41    54    53    2
    42    53    59   am
    43   172   173    1
    44    37    36    1
    45    59    60    1
    46    60    63    1
    47    36    35    1
    48   175   173    1
    49   184   186    1
    50   184   185    1
    51   173   174    1
    52   161   160    1
    53   161   162    2
    54    63    64    1
    55    35    32    1
    56   160   163    1
    57   160   159    1
    58   163   164    1
    59    64    66    1
    60    64    65    1
    61    32    31    1
    62    32    33    1
    63    31    25   am
    64    50    49    1
    65    81    80    2
    66   164   165    1
    67   167   165   am
    68    49    46    1
    69   165   166    2
    70    82    79    1
    71    82    83    1
    72    79    80    1
    73    79    78    1
    74   112   113   ar
    75   112   110   ar
    76    33    34    2
    77    80    84   am
    78    25    24    1
    79    25    26    2
    80    77    76    2
    81   113   111   ar
    82    24    23    1
    83    24    27    1
    84    46    45    1
    85    46    47    1
    86   110   108   ar
    87   119   118    1
    88    45    42   am
    89    30    28    1
    90    84    85    1
    91    78    76   am
    92    76    75    1
    93    85    86    1
    94    70    69    2
    95    27    28    1
    96   111   109   ar
    97   108   109   ar
    98   108   107    1
    99    42    41    1
   100    42    43    2
   101    47    48    2
   102   118   120    1
   103   118   115    1
   104    87    86    2
   105    28    29    1
   106    86    88   am
   107    41    40    1
   108    41    44    1
   109    75    74    1
   110   107   104    1
   111    69    74   am
   112    69    68    1
   113   115   114    1
   114   115   116    1
   115    67    68    1
   116   114   105   am
   117    88    89    1
   118   105   106    2
   119   105   104    1
   120    68    71    1
   121   104   103    1
   122   116   117    2
   123    89    92    1
   124    89    90    1
   125    93    92    1
   126    93    94    1
   127    71    73    1
   128    71    72    1
   129   103    99   am
   130    95    94    1
   131    95    96    1
   132    90    91    2
   133    90    97   am
   134    11     9    1
   135   141   140    1
   136    97    98    1
   137     9    10    1
   138     9     8    2
   139    99   100    2
   140    99    98    1
   141   151   152    2
   142   151   150    1
   143   140   139   ar
   144   140   138   ar
   145   139   137   ar
   146     8     7    1
   147    98   101    1
   148   150   153    1
   149   150   149    1
   150   156   154   ar
   151   156   158   ar
   152   153   154    1
   153   138   136   ar
   154     6     7    1
   155     6     5    1
   156   101   102    1
   157   137   135   ar
   158   154   155   ar
   159   158   157   ar
   160     5     2    1
   161   136   135   ar
   162   128   127   ar
   163   135   134    1
   164     2     1    1
   165     2     3    1
   166   148   146    1
   167   147   146    1
   168   155   157   ar
   169   143   146    1
   170   143   144    1
   171   143   142    1
   172   144   145    2
   173     3     4    2
   174   127   129   ar
   175   127   126    1
   176   134   131    1
   177    22    20    1
   178   126   125    1
   179    13    12    1
   180    13    14    1
   181    13    16    1
   182   125   122    1
   183   131   130    1
   184   131   132    1
   185    20    19    2
   186    20    21    1
   187    19    18    1
   188   130   123   am
   189    17    16    1
   190    17    18    1
   191    14    15    2
   192   123   122    1
   193   123   124    2
   194   122   121    1
   195   132   133    2
