@<TRIPOS>MOLECULE
tmp/5oivA00.pdb
 133 132 0 0 0
SMALL
GASTEIGER

@<TRIPOS>ATOM
      1  N         32.9670   13.8790   30.2950 N.3    35  TYR35      -0.1241
      2  CA        34.1780   14.6730   30.1090 C.3    35  TYR35       0.1605
      3  C         35.2630   13.7840   29.5270 C.2    35  TYR35       0.2264
      4  O         36.2380   13.4760   30.2020 O.2    35  TYR35      -0.2867
      5  CB        34.6340   15.2590   31.4450 C.3    35  TYR35       0.0534
      6  CG        33.5950   16.0860   32.1890 C.ar   35  TYR35      -0.0201
      7  CD1       33.0610   17.2390   31.6460 C.ar   35  TYR35      -0.0009
      8  CD2       33.2180   15.7330   33.4990 C.ar   35  TYR35      -0.0009
      9  CE1       32.1170   18.0070   32.3520 C.ar   35  TYR35       0.0417
     10  CE2       32.2810   16.4970   34.2050 C.ar   35  TYR35       0.0417
     11  CZ        31.7660   17.6260   33.6640 C.ar   35  TYR35       0.1957
     12  OH        30.8240   18.3830   34.3680 O.3    35  TYR35      -0.2866
     13  N         41.1420   17.5550   31.1350 N.3    39  TRP39      -0.1241
     14  CA        41.0020   18.9280   31.5990 C.3    39  TRP39       0.1605
     15  C         42.2330   19.2850   32.4150 C.2    39  TRP39       0.2264
     16  O         42.7920   18.4420   33.1250 O.2    39  TRP39      -0.2867
     17  CB        39.7320   19.1240   32.4500 C.3    39  TRP39       0.0550
     18  CG        38.5100   19.5970   31.6770 C.ar   39  TRP39       0.0003
     19  CD1       37.9490   20.8480   31.7000 C.ar   39  TRP39       0.0946
     20  CD2       37.7160   18.8260   30.7650 C.ar   39  TRP39       0.0152
     21  NE1       36.8590   20.9020   30.8810 N.ar   39  TRP39      -0.2442
     22  CE2       36.6980   19.6750   30.2820 C.ar   39  TRP39       0.0810
     23  CE3       37.7890   17.5040   30.2830 C.ar   39  TRP39       0.0012
     24  CZ2       35.7520   19.2560   29.3410 C.ar   39  TRP39       0.0191
     25  CZ3       36.8290   17.0880   29.3520 C.ar   39  TRP39       0.0001
     26  CH2       35.8300   17.9510   28.9090 C.ar   39  TRP39       0.0015
     27  N         42.5990   24.7440   28.9370 N.3    77  HIS77      -0.1241
     28  CA        41.8390   23.9980   29.9390 C.3    77  HIS77       0.1621
     29  C         41.3830   22.6280   29.4480 C.2    77  HIS77       0.2264
     30  O         41.0330   21.7880   30.2740 O.2    77  HIS77      -0.2867
     31  CB        40.6580   24.8350   30.4650 C.3    77  HIS77       0.0745
     32  CG        39.3670   24.6830   29.7300 C.ar   77  HIS77       0.0817
     33  ND1       39.2450   24.9120   28.3740 N.ar   77  HIS77      -0.2268
     34  CD2       38.1160   24.4060   30.1780 C.ar   77  HIS77       0.1154
     35  CE1       37.9810   24.7520   28.0140 C.ar   77  HIS77       0.1986
     36  NE2       37.2740   24.4480   29.0880 N.ar   77  HIS77      -0.2212
     37  N         31.4940   15.1930   23.4280 N.3    87  TYR87      -0.1227
     38  CA        31.6370   16.3950   24.2420 C.3    87  TYR87       0.1736
     39  C         31.4860   17.6330   23.3590 C.2    87  TYR87       0.2595
     40  O         32.1160   17.7140   22.3020 O.2    87  TYR87      -0.2718
     41  CB        32.9710   16.4380   24.9620 C.3    87  TYR87       0.0548
     42  CG        33.1400   17.7530   25.6860 C.ar   87  TYR87      -0.0200
     43  CD1       32.5510   17.9610   26.9270 C.ar   87  TYR87      -0.0009
     44  CD2       33.8260   18.8080   25.0980 C.ar   87  TYR87      -0.0009
     45  CE1       32.6680   19.1590   27.5750 C.ar   87  TYR87       0.0417
     46  CE2       33.9440   20.0330   25.7420 C.ar   87  TYR87       0.0417
     47  CZ        33.3610   20.2010   26.9780 C.ar   87  TYR87       0.1957
     48  OH        33.4800   21.4110   27.6150 O.3    87  TYR87      -0.2866
     49  N         30.6610   18.6000   23.7930 N.am   88  PHE88      -0.1976
     50  CA        30.5540   19.8870   23.1010 C.3    88  PHE88       0.1639
     51  C         30.7850   21.0390   24.0740 C.2    88  PHE88       0.2290
     52  O         30.2160   21.0450   25.1750 O.2    88  PHE88      -0.2864
     53  CB        29.1850   20.0310   22.4230 C.3    88  PHE88       0.0560
     54  CG        29.0190   21.3190   21.6880 C.ar   88  PHE88      -0.0200
     55  CD1       29.3430   21.4140   20.3330 C.ar   88  PHE88      -0.0042
     56  CD2       28.5670   22.4550   22.3460 C.ar   88  PHE88      -0.0042
     57  CE1       29.2170   22.6090   19.6700 C.ar   88  PHE88      -0.0003
     58  CE2       28.4270   23.6560   21.6680 C.ar   88  PHE88      -0.0003
     59  CZ        28.7580   23.7300   20.3420 C.ar   88  PHE88      -0.0000
     60  N         42.7790   27.6300   32.9790 N.3   114  GLN114     -0.1245
     61  CA        42.1320   27.1060   34.1860 C.3   114  GLN114      0.1566
     62  C         43.1270   27.2020   35.3480 C.2   114  GLN114      0.2260
     63  O         44.3030   27.5020   35.1270 O.2   114  GLN114     -0.2867
     64  CB        41.6570   25.6450   33.9660 C.3   114  GLN114      0.0367
     65  CG        40.0960   25.5550   33.8220 C.3   114  GLN114      0.0905
     66  CD        39.6080   24.0970   33.9240 C.2   114  GLN114      0.2608
     67  OE1       40.4020   23.1470   33.9050 O.2   114  GLN114     -0.2717
     68  NE2       38.3150   23.9360   34.0320 N.am  114  GLN114     -0.0878
     69  N         34.3130   29.6160   32.4520 N.3   176  TRP176     -0.1241
     70  CA        34.8910   28.2690   32.4680 C.3   176  TRP176      0.1605
     71  C         36.3100   28.2740   33.0150 C.2   176  TRP176      0.2264
     72  O         36.7680   27.2720   33.5820 O.2   176  TRP176     -0.2867
     73  CB        34.8840   27.6640   31.0620 C.3   176  TRP176      0.0550
     74  CG        33.5660   27.1020   30.6440 C.ar  176  TRP176      0.0003
     75  CD1       32.5480   26.6950   31.4530 C.ar  176  TRP176      0.0946
     76  CD2       33.1300   26.8830   29.3020 C.ar  176  TRP176      0.0152
     77  NE1       31.5030   26.2100   30.6950 N.ar  176  TRP176     -0.2442
     78  CE2       31.8360   26.3080   29.3680 C.ar  176  TRP176      0.0810
     79  CE3       33.7160   27.0870   28.0520 C.ar  176  TRP176      0.0012
     80  CZ2       31.1000   25.9670   28.2180 C.ar  176  TRP176      0.0191
     81  CZ3       32.9760   26.7570   26.9070 C.ar  176  TRP176      0.0001
     82  CH2       31.6860   26.1990   27.0070 C.ar  176  TRP176      0.0015
     83  N         31.8120   26.7730   36.6330 N.3   181  ASP181     -0.1239
     84  CA        31.1500   27.2690   35.4240 C.3   181  ASP181      0.1674
     85  C         29.9660   28.1860   35.7210 C.2   181  ASP181      0.2266
     86  O         29.8600   29.2920   35.1680 O.2   181  ASP181     -0.2867
     87  CB        30.6430   26.1100   34.5570 C.3   181  ASP181      0.1410
     88  CG        31.7040   25.0740   34.2550 C.2   181  ASP181      0.3668
     89  OD1       32.8290   25.1450   34.7950 O.co2 181  ASP181     -0.2456
     90  OD2       31.3810   24.1810   33.4460 O.co2 181  ASP181     -0.2456
     91  N         26.2130   17.7530   26.7990 N.3   205  ASP205     -0.1239
     92  CA        26.3670   17.4730   28.2230 C.3   205  ASP205      0.1674
     93  C         25.0590   16.9910   28.8400 C.2   205  ASP205      0.2266
     94  O         25.0600   16.0650   29.6620 O.2   205  ASP205     -0.2867
     95  CB        26.8830   18.7170   28.9370 C.3   205  ASP205      0.1410
     96  CG        25.8920   19.8700   28.8890 C.2   205  ASP205      0.3668
     97  OD1       25.5390   20.3110   27.7640 O.co2 205  ASP205     -0.2456
     98  OD2       25.4490   20.3100   29.9750 O.co2 205  ASP205     -0.2456
     99  N         22.5530   20.6680   35.8530 N.3   215  ARG215     -0.1245
    100  CA        23.4590   21.2780   34.8880 C.3   215  ARG215      0.1563
    101  C         23.0160   22.7050   34.5890 C.2   215  ARG215      0.2260
    102  O         21.8670   23.0720   34.8600 O.2   215  ARG215     -0.2867
    103  CB        23.4820   20.4740   33.5740 C.3   215  ARG215      0.0307
    104  CG        23.8940   18.9820   33.7190 C.3   215  ARG215      0.0489
    105  CD        25.3890   18.7740   33.6630 C.3   215  ARG215      0.2205
    106  NE        26.0970   19.5390   32.6290 N.pl3 215  ARG215     -0.0865
    107  CZ        27.4140   19.7470   32.6600 C.cat 215  ARG215      0.5346
    108  NH1       28.1150   19.2310   33.6490 N.pl3 215  ARG215      0.1354
    109  NH2       28.0360   20.4730   31.7300 N.pl3 215  ARG215      0.1354
    110  N         24.4570   28.4060   28.5870 N.3   221  TYR221     -0.1241
    111  CA        25.2890   27.8620   27.5220 C.3   221  TYR221      0.1605
    112  C         25.3750   28.8170   26.3300 C.2   221  TYR221      0.2264
    113  O         26.4420   28.9440   25.7200 O.2   221  TYR221     -0.2867
    114  CB        24.7630   26.4940   27.0760 C.3   221  TYR221      0.0534
    115  CG        25.6240   25.3800   27.6060 C.ar  221  TYR221     -0.0201
    116  CD1       25.5000   24.9830   28.9280 C.ar  221  TYR221     -0.0009
    117  CD2       26.5930   24.7560   26.8200 C.ar  221  TYR221     -0.0009
    118  CE1       26.2740   23.9850   29.4680 C.ar  221  TYR221      0.0417
    119  CE2       27.4090   23.7230   27.3770 C.ar  221  TYR221      0.0417
    120  CZ        27.2230   23.3590   28.7060 C.ar  221  TYR221      0.1957
    121  OH        27.9740   22.3760   29.3120 O.3   221  TYR221     -0.2866
    122  N         24.9380   22.0130   40.1370 N.3   374  TYR374     -0.1241
    123  CA        26.3450   22.1780   39.7430 C.3   374  TYR374      0.1605
    124  C         27.1260   23.0210   40.7710 C.2   374  TYR374      0.2264
    125  O         27.4130   22.5360   41.8730 O.2   374  TYR374     -0.2867
    126  CB        26.3620   22.7790   38.3170 C.3   374  TYR374      0.0534
    127  CG        27.5110   22.3680   37.3880 C.ar  374  TYR374     -0.0201
    128  CD1       28.1410   21.1260   37.4850 C.ar  374  TYR374     -0.0009
    129  CD2       27.9320   23.2400   36.3750 C.ar  374  TYR374     -0.0009
    130  CE1       29.1900   20.7810   36.6050 C.ar  374  TYR374      0.0417
    131  CE2       28.9610   22.9040   35.5150 C.ar  374  TYR374      0.0417
    132  CZ        29.5770   21.6800   35.6250 C.ar  374  TYR374      0.1957
    133  OH        30.6000   21.3740   34.7550 O.3   374  TYR374     -0.2866
@<TRIPOS>BOND
     1    57    55   ar
     2    57    59   ar
     3    55    54   ar
     4    59    58   ar
     5    58    56   ar
     6    54    56   ar
     7    54    53    1
     8    40    39    2
     9    53    50    1
    10    50    49    1
    11    50    51    1
    12    39    49   am
    13    39    38    1
    14    37    38    1
    15    51    52    2
    16    38    41    1
    17    41    42    1
    18    44    42   ar
    19    44    46   ar
    20    42    43   ar
    21   113   112    2
    22    46    47   ar
    23   112   111    1
    24    91    92    1
    25   117   119   ar
    26   117   115   ar
    27    81    82   ar
    28    81    79   ar
    29    43    45   ar
    30    47    45   ar
    31    47    48    1
    32    82    80   ar
    33   114   111    1
    34   114   115    1
    35   119   120   ar
    36   111   110    1
    37   115   116   ar
    38    97    96   ar
    39    35    33   ar
    40    35    36   ar
    41    79    76   ar
    42    80    78   ar
    43    92    93    1
    44    92    95    1
    45    33    32   ar
    46   120   121    1
    47   120   118   ar
    48    93    94    2
    49    96    95    1
    50    96    98   ar
    51    26    24   ar
    52    26    25   ar
    53   116   118   ar
    54    27    28    1
    55    36    34   ar
    56    76    78   ar
    57    76    74   ar
    58    24    22   ar
    59    25    23   ar
    60    78    77   ar
    61    29    28    1
    62    29    30    2
    63     3     2    1
    64     3     4    2
    65    32    34   ar
    66    32    31    1
    67    28    31    1
    68     2     1    1
    69     2     5    1
    70    22    20   ar
    71    22    21   ar
    72    23    20   ar
    73    74    73    1
    74    74    75   ar
    75    77    75   ar
    76    20    18   ar
    77    21    19   ar
    78    73    70    1
    79    13    14    1
    80     5     6    1
    81    14    15    1
    82    14    17    1
    83     7     6   ar
    84     7     9   ar
    85    18    19   ar
    86    18    17    1
    87   109   107    1
    88     6     8   ar
    89     9    11   ar
    90    15    16    2
    91    69    70    1
    92    70    71    1
    93   106   107    2
    94   106   105    1
    95   107   108    1
    96    60    61    1
    97    71    72    2
    98    90    88   ar
    99     8    10   ar
   100   103   104    1
   101   103   100    1
   102   105   104    1
   103    11    10   ar
   104    11    12    1
   105    65    66    1
   106    65    64    1
   107    67    66    2
   108    66    68   am
   109    64    61    1
   110    61    62    1
   111    88    87    1
   112    88    89   ar
   113    87    84    1
   114   101   102    2
   115   101   100    1
   116   133   132    1
   117   100    99    1
   118    63    62    2
   119    86    85    2
   120    84    85    1
   121    84    83    1
   122   131   132   ar
   123   131   129   ar
   124   132   130   ar
   125   129   127   ar
   126   130   128   ar
   127   127   128   ar
   128   127   126    1
   129   126   123    1
   130   123   122    1
   131   123   124    1
   132   124   125    2
