@<TRIPOS>MOLECULE
tmp/5oiwA02.pdb
 202 202 0 0 0
SMALL
GASTEIGER

@<TRIPOS>ATOM
      1  N         38.2530   12.9970   33.8380 N.3    30  ALA30      -0.1245
      2  CA        37.7170   13.4880   35.0970 C.3    30  ALA30       0.1562
      3  C         36.5230   12.6480   35.5480 C.2    30  ALA30       0.2260
      4  O         36.2540   12.5490   36.7520 O.2    30  ALA30      -0.2867
      5  CB        37.3230   14.9870   34.9670 C.3    30  ALA30       0.0290
      6  N         32.6010   13.7150   31.7380 N.3    35  TYR35      -0.1241
      7  CA        33.8240   14.4930   31.5630 C.3    35  TYR35       0.1605
      8  C         34.9040   13.5830   30.9980 C.2    35  TYR35       0.2264
      9  O         35.8660   13.2510   31.6990 O.2    35  TYR35      -0.2867
     10  CB        34.2820   15.0850   32.9010 C.3    35  TYR35       0.0534
     11  CG        33.2610   15.9640   33.6110 C.ar   35  TYR35      -0.0201
     12  CD1       32.7370   17.0940   33.0000 C.ar   35  TYR35      -0.0009
     13  CD2       32.8660   15.6850   34.9320 C.ar   35  TYR35      -0.0009
     14  CE1       31.8090   17.9060   33.6740 C.ar   35  TYR35       0.0417
     15  CE2       31.9680   16.5010   35.6170 C.ar   35  TYR35       0.0417
     16  CZ        31.4410   17.6100   34.9830 C.ar   35  TYR35       0.1957
     17  OH        30.5440   18.4010   35.6650 O.3    35  TYR35      -0.2866
     18  N         40.8120   17.3400   32.5360 N.3    39  TRP39      -0.1241
     19  CA        40.6460   18.7140   33.0180 C.3    39  TRP39       0.1605
     20  C         41.8430   19.1060   33.8670 C.2    39  TRP39       0.2264
     21  O         42.4690   18.2710   34.5250 O.2    39  TRP39      -0.2867
     22  CB        39.3710   18.8800   33.8550 C.3    39  TRP39       0.0550
     23  CG        38.1620   19.3660   33.0710 C.ar   39  TRP39       0.0003
     24  CD1       37.6050   20.6130   33.1110 C.ar   39  TRP39       0.0946
     25  CD2       37.3660   18.5930   32.1500 C.ar   39  TRP39       0.0152
     26  NE1       36.5030   20.6650   32.2760 N.ar   39  TRP39      -0.2442
     27  CE2       36.3460   19.4430   31.6650 C.ar   39  TRP39       0.0810
     28  CE3       37.4400   17.2730   31.6660 C.ar   39  TRP39       0.0012
     29  CZ2       35.3960   19.0250   30.7170 C.ar   39  TRP39       0.0191
     30  CZ3       36.4820   16.8510   30.7160 C.ar   39  TRP39       0.0001
     31  CH2       35.4670   17.7250   30.2640 C.ar   39  TRP39       0.0015
     32  N         42.5050   21.3410   36.7010 N.3    41  TRP41      -0.1227
     33  CA        42.6880   21.1970   38.1440 C.3    41  TRP41       0.1737
     34  C         42.2930   19.7950   38.5960 C.2    41  TRP41       0.2595
     35  O         42.9260   19.2700   39.5120 O.2    41  TRP41      -0.2718
     36  CB        42.0120   22.3300   38.9670 C.3    41  TRP41       0.0564
     37  CG        40.5100   22.4900   39.1250 C.ar   41  TRP41       0.0003
     38  CD1       39.4970   22.1170   38.2600 C.ar   41  TRP41       0.0946
     39  CD2       39.8710   23.1220   40.2390 C.ar   41  TRP41       0.0152
     40  NE1       38.2680   22.4930   38.7830 N.ar   41  TRP41      -0.2442
     41  CE2       38.4730   23.0900   40.0060 C.ar   41  TRP41       0.0810
     42  CE3       40.3500   23.7190   41.4140 C.ar   41  TRP41       0.0012
     43  CZ2       37.5480   23.6390   40.9100 C.ar   41  TRP41       0.0191
     44  CZ3       39.4320   24.2340   42.3340 C.ar   41  TRP41       0.0001
     45  CH2       38.0420   24.2050   42.0670 C.ar   41  TRP41       0.0015
     46  N         41.4000   19.1130   37.8610 N.am   42  ASP42      -0.1974
     47  CA        41.1710   17.6900   38.1670 C.3    42  ASP42       0.1709
     48  C         42.4550   16.8860   38.0440 C.2    42  ASP42       0.2293
     49  O         42.7100   15.9810   38.8550 O.2    42  ASP42      -0.2864
     50  CB        40.1260   17.0380   37.2410 C.3    42  ASP42       0.1436
     51  CG        38.7760   17.7230   37.3020 C.2    42  ASP42       0.3671
     52  OD1       38.7600   18.9570   37.0610 O.co2  42  ASP42      -0.2456
     53  OD2       37.7290   17.0350   37.5770 O.co2  42  ASP42      -0.2456
     54  N         42.1420   24.5340   30.3700 N.3    77  HIS77      -0.1241
     55  CA        41.4080   23.7910   31.3840 C.3    77  HIS77       0.1621
     56  C         40.9490   22.4320   30.9010 C.2    77  HIS77       0.2264
     57  O         40.6490   21.5890   31.7560 O.2    77  HIS77      -0.2867
     58  CB        40.2270   24.6140   31.9400 C.3    77  HIS77       0.0745
     59  CG        38.9270   24.4650   31.2110 C.ar   77  HIS77       0.0817
     60  ND1       38.7720   24.7440   29.8690 N.ar   77  HIS77      -0.2268
     61  CD2       37.6850   24.1820   31.6820 C.ar   77  HIS77       0.1154
     62  CE1       37.5060   24.5730   29.5280 C.ar   77  HIS77       0.1986
     63  NE2       36.8200   24.2510   30.6120 N.ar   77  HIS77      -0.2212
     64  N         31.3640   15.2200   25.0610 N.3    87  TYR87      -0.1241
     65  CA        31.4100   16.4180   25.8850 C.3    87  TYR87       0.1605
     66  C         31.2080   17.6290   24.9930 C.2    87  TYR87       0.2264
     67  O         31.8010   17.6960   23.9210 O.2    87  TYR87      -0.2867
     68  CB        32.7450   16.5780   26.6070 C.3    87  TYR87       0.0534
     69  CG        32.7660   17.8560   27.4120 C.ar   87  TYR87      -0.0201
     70  CD1       32.1570   17.9110   28.6550 C.ar   87  TYR87      -0.0009
     71  CD2       33.3390   19.0210   26.9100 C.ar   87  TYR87      -0.0009
     72  CE1       32.1310   19.0740   29.3830 C.ar   87  TYR87       0.0417
     73  CE2       33.3320   20.1690   27.6450 C.ar   87  TYR87       0.0417
     74  CZ        32.7370   20.2000   28.8660 C.ar   87  TYR87       0.1957
     75  OH        32.7020   21.3680   29.6030 O.3    87  TYR87      -0.2866
     76  N         42.2500   27.4040   34.3920 N.3   114  GLN114     -0.1245
     77  CA        41.6260   26.8570   35.6010 C.3   114  GLN114      0.1566
     78  C         42.5980   27.0370   36.7740 C.2   114  GLN114      0.2260
     79  O         43.7710   27.3650   36.5630 O.2   114  GLN114     -0.2867
     80  CB        41.2610   25.3660   35.4090 C.3   114  GLN114      0.0367
     81  CG        39.7410   25.1510   35.4020 C.3   114  GLN114      0.0905
     82  CD        39.3780   23.6620   35.3950 C.2   114  GLN114      0.2608
     83  OE1       40.2670   22.7930   35.3490 O.2   114  GLN114     -0.2717
     84  NE2       38.0820   23.3650   35.4650 N.am  114  GLN114     -0.0878
     85  N         33.9270   29.5710   33.8670 N.3   176  TRP176     -0.1241
     86  CA        34.5150   28.2310   33.9070 C.3   176  TRP176      0.1605
     87  C         35.9550   28.2450   34.4150 C.2   176  TRP176      0.2264
     88  O         36.4330   27.2160   34.9370 O.2   176  TRP176     -0.2867
     89  CB        34.4650   27.5700   32.5230 C.3   176  TRP176      0.0550
     90  CG        33.1350   26.9360   32.1440 C.ar  176  TRP176      0.0003
     91  CD1       32.1970   26.4180   32.9990 C.ar  176  TRP176      0.0946
     92  CD2       32.6340   26.7290   30.8160 C.ar  176  TRP176      0.0152
     93  NE1       31.1290   25.8950   32.2740 N.ar  176  TRP176     -0.2442
     94  CE2       31.3770   26.0780   30.9330 C.ar  176  TRP176      0.0810
     95  CE3       33.1250   27.0310   29.5320 C.ar  176  TRP176      0.0012
     96  CZ2       30.6040   25.7230   29.8180 C.ar  176  TRP176      0.0191
     97  CZ3       32.3590   26.6850   28.4230 C.ar  176  TRP176      0.0001
     98  CH2       31.1060   26.0300   28.5660 C.ar  176  TRP176      0.0015
     99  N         36.5160   27.3180   38.0360 N.3   179  GLY179     -0.1225
    100  CA        36.1160   25.9770   38.4350 C.3   179  GLY179      0.1811
    101  C         34.6620   25.8480   38.8660 C.2   179  GLY179      0.2280
    102  O         34.1790   24.7160   39.0310 O.2   179  GLY179     -0.2866
    103  N         31.2620   26.8770   37.5950 N.3   181  ALA181     -0.1245
    104  CA        30.4880   27.4270   36.4720 C.3   181  ALA181      0.1562
    105  C         29.3160   28.3180   36.8870 C.2   181  ALA181      0.2260
    106  O         29.1690   29.4550   36.4080 O.2   181  ALA181     -0.2867
    107  CB        29.9520   26.2700   35.6100 C.3   181  ALA181      0.0290
    108  N         22.0580   20.5890   37.0590 N.3   215  ARG215     -0.1245
    109  CA        22.9480   21.2500   36.1110 C.3   215  ARG215      0.1563
    110  C         22.4670   22.6660   35.8350 C.2   215  ARG215      0.2260
    111  O         21.3260   23.0140   36.1430 O.2   215  ARG215     -0.2867
    112  CB        23.0420   20.4860   34.7730 C.3   215  ARG215      0.0307
    113  CG        23.5540   19.0370   34.9070 C.3   215  ARG215      0.0489
    114  CD        25.0490   18.9650   35.1130 C.3   215  ARG215      0.2205
    115  NE        25.8370   19.7280   34.1310 N.pl3 215  ARG215     -0.0865
    116  CZ        27.1680   19.8690   34.2040 C.cat 215  ARG215      0.5346
    117  NH1       27.8540   19.2990   35.2050 N.pl3 215  ARG215      0.1354
    118  NH2       27.8200   20.5780   33.2770 N.pl3 215  ARG215      0.1354
    119  N         23.9800   28.3750   29.8210 N.3   221  TYR221     -0.1241
    120  CA        24.8520   27.8560   28.7730 C.3   221  TYR221      0.1605
    121  C         24.9480   28.8220   27.5870 C.2   221  TYR221      0.2264
    122  O         26.0150   28.9410   26.9710 O.2   221  TYR221     -0.2867
    123  CB        24.3750   26.4670   28.3100 C.3   221  TYR221      0.0534
    124  CG        25.1820   25.3890   28.9660 C.ar  221  TYR221     -0.0201
    125  CD1       24.9150   25.0030   30.2960 C.ar  221  TYR221     -0.0009
    126  CD2       26.2630   24.8080   28.3060 C.ar  221  TYR221     -0.0009
    127  CE1       25.7040   24.0330   30.9340 C.ar  221  TYR221      0.0417
    128  CE2       27.0490   23.8190   28.9270 C.ar  221  TYR221      0.0417
    129  CZ        26.7640   23.4560   30.2380 C.ar  221  TYR221      0.1957
    130  OH        27.5490   22.5090   30.8620 O.3   221  TYR221     -0.2866
    131  N         24.4900   21.9150   41.5450 N.3   374  TYR374     -0.1227
    132  CA        25.8740   22.0490   41.0750 C.3   374  TYR374      0.1736
    133  C         26.7060   22.9040   42.0460 C.2   374  TYR374      0.2595
    134  O         27.0400   22.4280   43.1280 O.2   374  TYR374     -0.2718
    135  CB        25.8220   22.6040   39.6480 C.3   374  TYR374      0.0548
    136  CG        27.0200   22.4480   38.7310 C.ar  374  TYR374     -0.0200
    137  CD1       27.9310   21.4090   38.8650 C.ar  374  TYR374     -0.0009
    138  CD2       27.1930   23.3400   37.6780 C.ar  374  TYR374     -0.0009
    139  CE1       29.0140   21.2990   37.9830 C.ar  374  TYR374      0.0417
    140  CE2       28.2490   23.2400   36.8150 C.ar  374  TYR374      0.0417
    141  CZ        29.1460   22.2200   36.9600 C.ar  374  TYR374      0.1957
    142  OH        30.1860   22.1670   36.0810 O.3   374  TYR374     -0.2866
    143  N         27.0620   24.1480   41.6950 N.am  375  TRP375     -0.1976
    144  CA        27.8230   24.9870   42.6170 C.3   375  TRP375      0.1640
    145  C         26.9470   25.9150   43.4640 C.2   375  TRP375      0.2290
    146  O         27.4860   26.7590   44.1920 O.2   375  TRP375     -0.2864
    147  CB        28.8820   25.8250   41.8690 C.3   375  TRP375      0.0576
    148  CG        30.0360   24.9610   41.3500 C.ar  375  TRP375      0.0006
    149  CD1       30.1680   24.4470   40.0930 C.ar  375  TRP375      0.0946
    150  CD2       31.1610   24.4820   42.1030 C.ar  375  TRP375      0.0152
    151  NE1       31.3430   23.6990   40.0090 N.ar  375  TRP375     -0.2442
    152  CE2       31.9580   23.6980   41.2250 C.ar  375  TRP375      0.0810
    153  CE3       31.5790   24.6420   43.4340 C.ar  375  TRP375      0.0012
    154  CZ2       33.1760   23.0910   41.6370 C.ar  375  TRP375      0.0191
    155  CZ3       32.7570   24.0320   43.8530 C.ar  375  TRP375      0.0001
    156  CH2       33.5540   23.2810   42.9550 C.ar  375  TRP375      0.0015
    157  N         31.0380   19.5930   47.7890 N.3   380  TRP380     -0.1241
    158  CA        31.9880   19.0190   46.8210 C.3   380  TRP380      0.1605
    159  C         33.1580   18.3780   47.5400 C.2   380  TRP380      0.2264
    160  O         33.8990   19.0910   48.2490 O.2   380  TRP380     -0.2867
    161  CB        32.5030   20.1190   45.8990 C.3   380  TRP380      0.0550
    162  CG        31.4890   20.5870   44.9270 C.ar  380  TRP380      0.0003
    163  CD1       30.3550   21.3230   45.1860 C.ar  380  TRP380      0.0946
    164  CD2       31.5210   20.3680   43.5230 C.ar  380  TRP380      0.0152
    165  NE1       29.6710   21.5420   44.0140 N.ar  380  TRP380     -0.2442
    166  CE2       30.3790   20.9910   42.9750 C.ar  380  TRP380      0.0810
    167  CE3       32.4180   19.6970   42.6640 C.ar  380  TRP380      0.0012
    168  CZ2       30.0960   20.9740   41.6110 C.ar  380  TRP380      0.0191
    169  CZ3       32.1310   19.6830   41.2950 C.ar  380  TRP380      0.0001
    170  CH2       30.9910   20.3310   40.7810 C.ar  380  TRP380      0.0015
    171  N         30.4630   13.3520   42.2690 N.3   418  GLU418     -0.1245
    172  CA        31.0020   14.6770   41.9770 C.3   418  GLU418      0.1567
    173  C         30.6650   15.6750   43.0890 C.2   418  GLU418      0.2260
    174  O         31.5220   16.4660   43.5120 O.2   418  GLU418     -0.2867
    175  CB        30.4070   15.1180   40.6340 C.3   418  GLU418      0.0388
    176  CG        31.0370   16.3730   40.0020 C.3   418  GLU418      0.1160
    177  CD        30.2890   16.8160   38.7460 C.2   418  GLU418      0.3649
    178  OE1       29.3450   16.1240   38.2990 O.co2 418  GLU418     -0.2457
    179  OE2       30.6650   17.8660   38.1850 O.co2 418  GLU418     -0.2457
    180  N         33.6260    9.9380   39.9430 N.3   433  GLN433     -0.1245
    181  CA        34.3690   11.1580   39.6520 C.3   433  GLN433      0.1566
    182  C         35.8040   11.0240   40.1560 C.2   433  GLN433      0.2260
    183  O         36.0230   10.7410   41.3380 O.2   433  GLN433     -0.2867
    184  CB        33.6610   12.3280   40.3370 C.3   433  GLN433      0.0367
    185  CG        34.2780   13.7160   40.0470 C.3   433  GLN433      0.0905
    186  CD        33.8930   14.2800   38.6730 C.2   433  GLN433      0.2608
    187  OE1       32.9550   13.8090   38.0370 O.2   433  GLN433     -0.2717
    188  NE2       34.6190   15.3230   38.2260 N.am  433  GLN433     -0.0878
    189  N         38.4090   13.0150   40.9080 N.3   435  TRP435     -0.1241
    190  CA        39.0230   13.7070   42.0300 C.3   435  TRP435      0.1605
    191  C         38.3580   13.3760   43.3710 C.2   435  TRP435      0.2264
    192  O         38.9650   13.5870   44.4310 O.2   435  TRP435     -0.2867
    193  CB        39.0670   15.2370   41.7600 C.3   435  TRP435      0.0550
    194  CG        37.7970   15.9770   41.5930 C.ar  435  TRP435      0.0003
    195  CD1       36.5100   15.5670   41.8270 C.ar  435  TRP435      0.0946
    196  CD2       37.7150   17.3360   41.1290 C.ar  435  TRP435      0.0152
    197  NE1       35.6230   16.6090   41.5170 N.ar  435  TRP435     -0.2442
    198  CE2       36.3520   17.6980   41.1020 C.ar  435  TRP435      0.0810
    199  CE3       38.6800   18.2830   40.7700 C.ar  435  TRP435      0.0012
    200  CZ2       35.9230   18.9710   40.6920 C.ar  435  TRP435      0.0191
    201  CZ3       38.2600   19.5390   40.3810 C.ar  435  TRP435      0.0001
    202  CH2       36.8940   19.8620   40.3030 C.ar  435  TRP435      0.0015
@<TRIPOS>BOND
     1    67    66    2
     2    66    65    1
     3    64    65    1
     4    65    68    1
     5    68    69    1
     6    71    69   ar
     7    71    73   ar
     8   122   121    2
     9    69    70   ar
    10   121   120    1
    11    73    74   ar
    12   126   128   ar
    13   126   124   ar
    14   123   120    1
    15   123   124    1
    16    97    98   ar
    17    97    95   ar
    18    98    96   ar
    19    70    72   ar
    20   120   119    1
    21    74    72   ar
    22    74    75    1
    23   128   129   ar
    24   124   125   ar
    25    62    60   ar
    26    62    63   ar
    27    95    92   ar
    28    96    94   ar
    29    60    59   ar
    30   129   130    1
    31   129   127   ar
    32    31    30   ar
    33    31    29   ar
    34   125   127   ar
    35    54    55    1
    36    63    61   ar
    37    30    28   ar
    38    29    27   ar
    39    92    94   ar
    40    92    90   ar
    41    56    55    1
    42    56    57    2
    43    94    93   ar
    44     8     7    1
    45     8     9    2
    46    59    61   ar
    47    59    58    1
    48    55    58    1
    49     7     6    1
    50     7    10    1
    51    27    25   ar
    52    27    26   ar
    53    28    25   ar
    54    90    89    1
    55    90    91   ar
    56    25    23   ar
    57    93    91   ar
    58    26    24   ar
    59    89    86    1
    60    18    19    1
    61    10    11    1
    62    12    11   ar
    63    12    14   ar
    64    19    22    1
    65    19    20    1
    66    23    24   ar
    67    23    22    1
    68   118   116    1
    69    11    13   ar
    70    14    16   ar
    71     1     2    1
    72    85    86    1
    73    20    21    2
    74    86    87    1
    75   115   116    2
    76   115   114    1
    77   116   117    1
    78    76    77    1
    79    87    88    2
    80   112   113    1
    81   112   109    1
    82   113   114    1
    83    13    15   ar
    84     5     2    1
    85    16    15   ar
    86    16    17    1
    87     2     3    1
    88    83    82    2
    89    82    81    1
    90    82    84   am
    91    81    80    1
    92    80    77    1
    93     3     4    2
    94    77    78    1
    95   107   104    1
    96   110   109    1
    97   110   111    2
    98   142   141    1
    99   109   108    1
   100   106   105    2
   101   104   105    1
   102   104   103    1
   103    79    78    2
   104    32    33    1
   105   140   141   ar
   106   140   138   ar
   107   141   139   ar
   108    52    51   ar
   109    50    51    1
   110    50    47    1
   111    51    53   ar
   112   138   136   ar
   113    46    47    1
   114    46    34   am
   115   139   137   ar
   116    99   100    1
   117   187   186    2
   118    48    47    1
   119    48    49    2
   120    33    34    1
   121    33    36    1
   122   179   177   ar
   123   188   186   am
   124    38    40   ar
   125    38    37   ar
   126   178   177   ar
   127   100   101    1
   128    34    35    2
   129   186   185    1
   130   136   137   ar
   131   136   135    1
   132   177   176    1
   133    40    41   ar
   134   101   102    2
   135    36    37    1
   136    37    39   ar
   137   135   132    1
   138   181   180    1
   139   181   182    1
   140   181   184    1
   141   176   175    1
   142    41    39   ar
   143    41    43   ar
   144   151   149   ar
   145   151   152   ar
   146   185   184    1
   147   149   148   ar
   148   182   183    2
   149    39    42   ar
   150   202   201   ar
   151   202   200   ar
   152   201   199   ar
   153   175   172    1
   154   200   198   ar
   155   199   196   ar
   156   170   169   ar
   157   170   168   ar
   158   189   190    1
   159    43    45   ar
   160   132   131    1
   161   132   133    1
   162   198   196   ar
   163   198   197   ar
   164   196   194   ar
   165   152   154   ar
   166   152   150   ar
   167   169   167   ar
   168   148   147    1
   169   148   150   ar
   170    42    44   ar
   171   197   195   ar
   172   194   193    1
   173   194   195   ar
   174   168   166   ar
   175   154   156   ar
   176   143   133   am
   177   143   144    1
   178   193   190    1
   179   147   144    1
   180   172   171    1
   181   172   173    1
   182   190   191    1
   183   133   134    2
   184    45    44   ar
   185   150   153   ar
   186   144   145    1
   187   167   164   ar
   188   156   155   ar
   189   166   164   ar
   190   166   165   ar
   191   173   174    2
   192   191   192    2
   193   153   155   ar
   194   145   146    2
   195   164   162   ar
   196   165   163   ar
   197   162   163   ar
   198   162   161    1
   199   161   158    1
   200   158   159    1
   201   158   157    1
   202   159   160    2
