@<TRIPOS>MOLECULE
tmp/5ojeA00.pdb
 163 149 0 0 0
SMALL
GASTEIGER

@<TRIPOS>ATOM
      1  N         -3.3940   -4.2080    3.3380 N.3    16  ALA16      -0.1245
      2  CA        -2.2740   -4.2410    4.2590 C.3    16  ALA16       0.1562
      3  C         -1.6370   -5.6000    4.0860 C.2    16  ALA16       0.2260
      4  O         -2.1760   -6.4720    3.4020 O.2    16  ALA16      -0.2867
      5  CB        -2.7030   -4.0020    5.7050 C.3    16  ALA16       0.0290
      6  N          1.5680   -6.4480   11.2900 N.3    33  ASP33      -0.1239
      7  CA         1.6970   -5.5080   10.1860 C.3    33  ASP33       0.1674
      8  C          3.0130   -4.7660   10.3680 C.2    33  ASP33       0.2266
      9  O          3.1410   -3.9240   11.2620 O.2    33  ASP33      -0.2867
     10  CB         0.4810   -4.5840   10.1900 C.3    33  ASP33       0.1410
     11  CG         0.4110   -3.6790    8.9930 C.2    33  ASP33       0.3668
     12  OD1        1.4320   -3.5000    8.3020 O.co2  33  ASP33      -0.2456
     13  OD2       -0.6960   -3.1140    8.7950 O.co2  33  ASP33      -0.2456
     14  N          5.5010   -2.0540    9.9610 N.3    35  ASP35      -0.1239
     15  CA         5.1240   -0.6580    9.7420 C.3    35  ASP35       0.1674
     16  C          6.3510    0.2500    9.7980 C.2    35  ASP35       0.2266
     17  O          6.7840    0.6480   10.8850 O.2    35  ASP35      -0.2867
     18  CB         4.0980   -0.2320   10.7840 C.3    35  ASP35       0.1410
     19  CG         3.6620    1.1960   10.6090 C.2    35  ASP35       0.3668
     20  OD1        3.8790    1.7400    9.5200 O.co2  35  ASP35      -0.2456
     21  OD2        3.0960    1.7820   11.5660 O.co2  35  ASP35      -0.2456
     22  N          6.3960    3.2340    9.2100 N.3    37  GLY37      -0.1225
     23  CA         5.9420    4.5180    9.6780 C.3    37  GLY37       0.1811
     24  C          5.7500    4.6620   11.1800 C.2    37  GLY37       0.2280
     25  O          5.3070    5.7230   11.6280 O.2    37  GLY37      -0.2866
     26  N         -2.2310    7.1660   15.7900 N.3    79  TYR79      -0.1227
     27  CA        -1.8310    7.2840   14.4020 C.3    79  TYR79       0.1736
     28  C         -2.6020    8.4260   13.7420 C.2    79  TYR79       0.2596
     29  O         -3.6820    8.8210   14.1910 O.2    79  TYR79      -0.2718
     30  CB        -2.0590    5.9640   13.6670 C.3    79  TYR79       0.0548
     31  CG        -1.3370    4.7680   14.3090 C.ar   79  TYR79      -0.0200
     32  CD1        0.0030    4.5210   14.0550 C.ar   79  TYR79      -0.0009
     33  CD2       -2.0070    3.8930   15.1590 C.ar   79  TYR79      -0.0009
     34  CE1        0.6580    3.4340   14.6310 C.ar   79  TYR79       0.0417
     35  CE2       -1.3530    2.7950   15.7380 C.ar   79  TYR79       0.0417
     36  CZ        -0.0220    2.5820   15.4820 C.ar   79  TYR79       0.1957
     37  OH         0.6230    1.5050   16.0750 O.3    79  TYR79      -0.2866
     38  N         -2.0200    8.9640   12.6700 N.am   80  GLY80      -0.1942
     39  CA        -2.5280   10.1960   12.0840 C.3    80  GLY80       0.2014
     40  C         -3.9200   10.0880   11.4990 C.2    80  GLY80       0.2638
     41  O         -4.5760   11.1200   11.2960 O.2    80  GLY80      -0.2714
     42  N         -4.3790    8.8650   11.2130 N.am   81  ASP81      -0.1971
     43  CA        -5.6960    8.5770   10.6510 C.3    81  ASP81       0.1709
     44  C         -6.7920    8.5230   11.7060 C.2    81  ASP81       0.2293
     45  O         -7.9640    8.3180   11.3570 O.2    81  ASP81      -0.2864
     46  CB        -5.6650    7.2380    9.8920 C.3    81  ASP81       0.1436
     47  CG        -5.5620    6.0350   10.8160 C.2    81  ASP81       0.3671
     48  OD1       -5.0420    6.1810   11.9430 O.co2  81  ASP81      -0.2456
     49  OD2       -5.9930    4.9350   10.4210 O.co2  81  ASP81      -0.2456
     50  N         -6.7660    6.2990   14.3530 N.3    83  SER83      -0.1217
     51  CA        -6.7750    5.0580   15.1120 C.3    83  SER83       0.1889
     52  C         -5.7410    5.1320   16.2390 C.2    83  SER83       0.2288
     53  O         -4.8700    6.0100   16.2700 O.2    83  SER83      -0.2866
     54  CB        -6.5130    3.8610   14.2080 C.3    83  SER83       0.2089
     55  OG        -5.2180    3.9180   13.6650 O.3    83  SER83      -0.2183
     56  N        -11.2240    0.5260   14.6250 N.3   115  SER115     -0.1202
     57  CA       -10.6900    0.0500   13.3540 C.3   115  SER115      0.2020
     58  C         -9.8000   -1.1730   13.5390 C.2   115  SER115      0.2618
     59  O         -9.7750   -2.0630   12.6820 O.2   115  SER115     -0.2717
     60  CB        -9.9140    1.1620   12.6540 C.3   115  SER115      0.2103
     61  OG        -8.7810    1.5040   13.3940 O.3   115  SER115     -0.2182
     62  N         -9.0360   -1.2290   14.6370 N.am  116  PHE116     -0.1975
     63  CA        -8.2230   -2.4250   14.8710 C.3   116  PHE116      0.1639
     64  C         -9.1030   -3.6160   15.2450 C.2   116  PHE116      0.2290
     65  O         -8.9220   -4.7190   14.7140 O.2   116  PHE116     -0.2864
     66  CB        -7.1590   -2.1480   15.9520 C.3   116  PHE116      0.0560
     67  CG        -6.0400   -1.2420   15.4880 C.ar  116  PHE116     -0.0200
     68  CD1       -5.1810   -1.6450   14.4850 C.ar  116  PHE116     -0.0042
     69  CD2       -5.8480    0.0070   16.0580 C.ar  116  PHE116     -0.0042
     70  CE1       -4.1730   -0.8240   14.0320 C.ar  116  PHE116     -0.0003
     71  CE2       -4.8280    0.8420   15.6200 C.ar  116  PHE116     -0.0003
     72  CZ        -3.9870    0.4350   14.6080 C.ar  116  PHE116     -0.0000
     73  N        -10.6520   -5.3060   12.2490 N.3   119  ASP119     -0.1239
     74  CA        -9.7880   -5.9970   11.3020 C.3   119  ASP119      0.1674
     75  C         -9.2020   -7.2480   11.9540 C.2   119  ASP119      0.2266
     76  O         -8.1150   -7.2210   12.5430 O.2   119  ASP119     -0.2867
     77  CB        -8.7170   -5.1220   10.8190 C.3   119  ASP119      0.1410
     78  CG        -7.7900   -5.8530    9.9310 C.2   119  ASP119      0.3668
     79  OD1       -8.1920   -6.9490    9.4440 O.co2 119  ASP119     -0.2456
     80  OD2       -6.6710   -5.3590    9.7450 O.co2 119  ASP119     -0.2456
     81  N         -5.2330   -8.6280   11.4930 N.3   122  ILE122     -0.1245
     82  CA        -4.0260   -7.9680   11.9820 C.3   122  ILE122      0.1561
     83  C         -3.9750   -8.1080   13.4990 C.2   122  ILE122      0.2260
     84  O         -4.8150   -7.5600   14.2240 O.2   122  ILE122     -0.2867
     85  CB        -3.9770   -6.5070   11.5340 C.3   122  ILE122      0.0252
     86  CG1       -3.7900   -6.4690   10.0230 C.3   122  ILE122      0.0019
     87  CG2       -2.8690   -5.7420   12.2370 C.3   122  ILE122      0.0019
     88  CD1       -3.7500   -5.0980    9.4250 C.3   122  ILE122      0.0001
     89  N          1.0820   -4.5370   15.3120 N.3   125  LEU125     -0.1245
     90  CA         2.0080   -3.8630   14.4070 C.3   125  LEU125      0.1561
     91  C          3.4340   -4.0980   14.8870 C.2   125  LEU125      0.2260
     92  O          3.6920   -4.1800   16.0910 O.2   125  LEU125     -0.2867
     93  CB         1.7430   -2.3480   14.3280 C.3   125  LEU125      0.0270
     94  CG         0.7690   -1.9070   13.2340 C.3   125  LEU125      0.0019
     95  CD1       -0.6130   -2.5170   13.4020 C.3   125  LEU125      0.0001
     96  CD2        0.6990   -0.3790   13.2220 C.3   125  LEU125      0.0001
     97  N          7.5530   10.2310    3.2200 N.3   217  ILE217     -0.1245
     98  CA         8.0500    9.0950    3.9990 C.3   217  ILE217      0.1561
     99  C          7.7430    7.7880    3.2820 C.2   217  ILE217      0.2260
    100  O          6.7420    7.6560    2.5660 O.2   217  ILE217     -0.2867
    101  CB         7.4790    9.0750    5.4330 C.3   217  ILE217      0.0252
    102  CG1        5.9530    8.8980    5.4280 C.3   217  ILE217      0.0019
    103  CG2        7.8870   10.3540    6.1810 C.3   217  ILE217      0.0019
    104  CD1        5.3360    8.6670    6.8120 C.3   217  ILE217      0.0001
    105  N          6.4460    4.3520    3.9530 N.3   219  ASP219     -0.1239
    106  CA         5.5950    3.8600    5.0370 C.3   219  ASP219      0.1674
    107  C          4.8810    2.5810    4.6070 C.2   219  ASP219      0.2266
    108  O          3.8160    2.6380    3.9790 O.2   219  ASP219     -0.2867
    109  CB         4.5900    4.9320    5.4550 C.3   219  ASP219      0.1410
    110  CG         3.7690    4.5260    6.6370 C.2   219  ASP219      0.3668
    111  OD1        3.9760    3.3970    7.1160 O.co2 219  ASP219     -0.2456
    112  OD2        2.9040    5.3250    7.0630 O.co2 219  ASP219     -0.2456
    113  N          3.2190    0.6950    6.3870 N.3   221  GLY221     -0.1210
    114  CA         1.9760    0.5900    7.1250 C.3   221  GLY221      0.1956
    115  C          0.8300    1.4250    6.6120 C.2   221  GLY221      0.2612
    116  O         -0.2440    1.4030    7.2220 O.2   221  GLY221     -0.2717
    117  N          1.0220    2.1670    5.5220 N.am  222  THR222     -0.1952
    118  CA        -0.0350    2.9410    4.8810 C.3   222  THR222      0.1897
    119  C         -0.3510    2.2930    3.5440 C.2   222  THR222      0.2313
    120  O          0.5530    1.9080    2.8080 O.2   222  THR222     -0.2863
    121  CB         0.3950    4.4050    4.6920 C.3   222  THR222      0.1794
    122  OG1        0.4490    5.0530    5.9690 O.3   222  THR222     -0.2208
    123  CG2       -0.5730    5.1900    3.8130 C.3   222  THR222      0.0378
    124  N          0.0810    8.9970   -1.1430 N.3   226  TYR226     -0.1241
    125  CA        -0.4630   10.3140   -0.8280 C.3   226  TYR226      0.1605
    126  C          0.5400   11.3640   -1.2660 C.2   226  TYR226      0.2264
    127  O          1.6680   11.3960   -0.7580 O.2   226  TYR226     -0.2867
    128  CB        -0.7710   10.4480    0.6570 C.3   226  TYR226      0.0534
    129  CG        -1.8900    9.5440    1.1310 C.ar  226  TYR226     -0.0201
    130  CD1       -3.2240    9.9540    1.0600 C.ar  226  TYR226     -0.0009
    131  CD2       -1.6220    8.2920    1.6640 C.ar  226  TYR226     -0.0009
    132  CE1       -4.2340    9.1440    1.4780 C.ar  226  TYR226      0.0417
    133  CE2       -2.6410    7.4770    2.0900 C.ar  226  TYR226      0.0417
    134  CZ        -3.9420    7.9110    2.0000 C.ar  226  TYR226      0.1957
    135  OH        -4.9750    7.1020    2.4200 O.3   226  TYR226     -0.2866
    136  N         -4.5090   17.1270    3.4180 N.3   299  GLY299     -0.1210
    137  CA        -4.9460   17.0870    4.8040 C.3   299  GLY299      0.1956
    138  C         -4.0650   16.3280    5.7800 C.2   299  GLY299      0.2611
    139  O         -4.4450   16.1710    6.9440 O.2   299  GLY299     -0.2717
    140  N         -2.8920   15.8630    5.3650 N.am  300  ILE300     -0.1979
    141  CA        -2.0540   14.9940    6.1930 C.3   300  ILE300      0.1595
    142  C         -0.8700   15.7460    6.7840 C.2   300  ILE300      0.2287
    143  O         -0.4710   15.4870    7.9200 O.2   300  ILE300     -0.2864
    144  CB        -1.5680   13.7780    5.3700 C.3   300  ILE300      0.0276
    145  CG1       -2.7480   12.9110    4.9460 C.3   300  ILE300      0.0022
    146  CG2       -0.5450   12.9320    6.1710 C.3   300  ILE300      0.0022
    147  CD1       -2.3840   11.7930    3.9930 C.3   300  ILE300      0.0001
    148  N          2.1770   15.6630    5.2560 N.3   302  ILE302     -0.1245
    149  CA         3.3720   15.0500    4.6930 C.3   302  ILE302      0.1561
    150  C          2.9060   14.1280    3.5800 C.2   302  ILE302      0.2260
    151  O          1.7920   13.6030    3.6200 O.2   302  ILE302     -0.2867
    152  CB         4.1820   14.2970    5.7830 C.3   302  ILE302      0.0252
    153  CG1        5.6130   14.0180    5.2980 C.3   302  ILE302      0.0019
    154  CG2        3.4520   13.0350    6.1970 C.3   302  ILE302      0.0019
    155  CD1        6.6030   13.7150    6.4140 C.3   302  ILE302      0.0001
    156  N          3.1350   10.5820    1.6080 N.3   304  ILE304     -0.1245
    157  CA         3.3290    9.2300    2.1180 C.3   304  ILE304      0.1561
    158  C          3.4420    8.2730    0.9430 C.2   304  ILE304      0.2260
    159  O          2.4650    8.0420    0.2100 O.2   304  ILE304     -0.2867
    160  CB         2.2190    8.7810    3.0720 C.3   304  ILE304      0.0252
    161  CG1        2.0600    9.7690    4.2280 C.3   304  ILE304      0.0019
    162  CG2        2.5440    7.3730    3.5610 C.3   304  ILE304      0.0019
    163  CD1        0.9810    9.3860    5.2350 C.3   304  ILE304      0.0001
@<TRIPOS>BOND
     1   126   125    1
     2   126   127    2
     3   124   125    1
     4   125   128    1
     5   159   158    2
     6   128   129    1
     7   158   157    1
     8   130   129   ar
     9   130   132   ar
    10   129   131   ar
    11   132   134   ar
    12   156   157    1
    13   131   133   ar
    14   134   133   ar
    15   134   135    1
    16   157   160    1
    17   100    99    2
    18   120   119    2
    19   160   162    1
    20   160   161    1
    21    97    98    1
    22    99    98    1
    23     1     2    1
    24     4     3    2
    25   136   137    1
    26   119   118    1
    27   150   151    2
    28   150   149    1
    29   123   121    1
    30   105   106    1
    31   108   107    2
    32   147   145    1
    33    98   101    1
    34     3     2    1
    35   161   163    1
    36     2     5    1
    37   107   106    1
    38   121   118    1
    39   121   122    1
    40   149   148    1
    41   149   152    1
    42   137   138    1
    43   118   117    1
    44   145   144    1
    45   106   109    1
    46   153   152    1
    47   153   155    1
    48   140   138   am
    49   140   141    1
    50   144   146    1
    51   144   141    1
    52   102   101    1
    53   102   104    1
    54   101   103    1
    55   109   110    1
    56   117   115   am
    57   138   139    2
    58   152   154    1
    59   141   142    1
    60   113   114    1
    61   115   114    1
    62   115   116    2
    63   110   112   ar
    64   110   111   ar
    65   142   143    2
    66    12    11   ar
    67    13    11   ar
    68    11    10    1
    69    22    23    1
    70    88    86    1
    71    79    78   ar
    72    20    19   ar
    73    23    24    1
    74    15    16    1
    75    15    14    1
    76    15    18    1
    77    80    78   ar
    78    16    17    2
    79    46    43    1
    80    46    47    1
    81    78    77    1
    82    86    85    1
    83     7    10    1
    84     7     8    1
    85     7     6    1
    86     8     9    2
    87    49    47   ar
    88    19    18    1
    89    19    21   ar
    90    43    42    1
    91    43    44    1
    92    47    48   ar
    93    77    74    1
    94    24    25    2
    95    42    40   am
    96    41    40    2
    97    74    75    1
    98    74    73    1
    99    45    44    2
   100    81    82    1
   101    40    39    1
   102    85    82    1
   103    85    87    1
   104    75    76    2
   105    82    83    1
   106    39    38    1
   107    60    57    1
   108    60    61    1
   109    38    28   am
   110    59    58    2
   111    96    94    1
   112    94    95    1
   113    94    93    1
   114    57    58    1
   115    57    56    1
   116    83    84    2
   117    58    62   am
   118    55    54    1
   119    30    31    1
   120    30    27    1
   121    28    29    2
   122    28    27    1
   123    70    68   ar
   124    70    72   ar
   125    32    31   ar
   126    32    34   ar
   127    54    51    1
   128    31    33   ar
   129    93    90    1
   130    50    51    1
   131    27    26    1
   132    90    91    1
   133    90    89    1
   134    68    67   ar
   135    72    71   ar
   136    34    36   ar
   137    62    63    1
   138    65    64    2
   139    63    64    1
   140    63    66    1
   141    91    92    2
   142    51    52    1
   143    33    35   ar
   144    36    35   ar
   145    36    37    1
   146    67    66    1
   147    67    69   ar
   148    71    69   ar
   149    52    53    2
