@<TRIPOS>MOLECULE
tmp/5ojiB01.pdb
 107 103 0 0 0
SMALL
GASTEIGER

@<TRIPOS>ATOM
      1  N        -37.7540   10.7760  -76.3560 N.3    99  ASN99      -0.1240
      2  CA       -38.9260   11.5890  -76.0760 C.3    99  ASN99       0.1653
      3  C        -38.9060   12.7940  -76.9930 C.2    99  ASN99       0.2266
      4  O        -38.3440   13.8410  -76.6480 O.2    99  ASN99      -0.2867
      5  CB       -38.9810   12.0410  -74.6200 C.3    99  ASN99       0.1155
      6  CG       -40.2660   12.7820  -74.2840 C.2    99  ASN99       0.2627
      7  OD1      -40.3680   13.3570  -73.2110 O.2    99  ASN99      -0.2716
      8  ND2      -41.2570   12.7650  -75.1950 N.am   99  ASN99      -0.0877
      9  N        -37.9930    4.8750  -66.0160 N.3   148  SER148     -0.1202
     10  CA       -37.9900    6.2520  -65.5480 C.3   148  SER148      0.2020
     11  C        -38.8900    6.3950  -64.3350 C.2   148  SER148      0.2619
     12  O        -39.8750    5.6600  -64.2020 O.2   148  SER148     -0.2717
     13  CB       -38.5020    7.2050  -66.6180 C.3   148  SER148      0.2103
     14  OG       -38.7580    8.4820  -66.0640 O.3   148  SER148     -0.2182
     15  N        -38.6100    7.3720  -63.4740 N.am  149  TYR149     -0.1961
     16  CA       -39.5460    7.6350  -62.3900 C.3   149  TYR149      0.1771
     17  C        -40.8860    8.1090  -62.9320 C.2   149  TYR149      0.2620
     18  O        -41.9090    7.9470  -62.2570 O.2   149  TYR149     -0.2715
     19  CB       -38.9610    8.6450  -61.3930 C.3   149  TYR149      0.0574
     20  CG       -39.0550   10.1130  -61.7640 C.ar  149  TYR149     -0.0198
     21  CD1      -38.8290   10.5540  -63.0640 C.ar  149  TYR149     -0.0009
     22  CD2      -39.3410   11.0670  -60.7930 C.ar  149  TYR149     -0.0009
     23  CE1      -38.9080   11.9010  -63.3850 C.ar  149  TYR149      0.0417
     24  CE2      -39.4170   12.4130  -61.1090 C.ar  149  TYR149      0.0417
     25  CZ       -39.1950   12.8220  -62.4080 C.ar  149  TYR149      0.1957
     26  OH       -39.2680   14.1540  -62.7440 O.3   149  TYR149     -0.2866
     27  N        -40.9170    8.6420  -64.1610 N.am  150  SER150     -0.1950
     28  CA       -42.1810    9.0290  -64.7760 C.3   150  SER150      0.1924
     29  C        -43.0480    7.8200  -65.1200 C.2   150  SER150      0.2314
     30  O        -44.2160    7.9930  -65.4950 O.2   150  SER150     -0.2863
     31  CB       -41.9280    9.8800  -66.0310 C.3   150  SER150      0.2116
     32  OG       -41.3430    9.1230  -67.0750 O.3   150  SER150     -0.2180
     33  N        -44.6630   15.4030  -71.0180 N.3   158  ILE158     -0.1245
     34  CA       -44.0960   14.1980  -71.6120 C.3   158  ILE158      0.1561
     35  C        -44.8570   12.9930  -71.0790 C.2   158  ILE158      0.2260
     36  O        -44.2830   11.9210  -70.8540 O.2   158  ILE158     -0.2867
     37  CB       -42.5840   14.1080  -71.3350 C.3   158  ILE158      0.0252
     38  CG1      -42.2970   14.0340  -69.8330 C.3   158  ILE158      0.0019
     39  CG2      -41.8900   15.3120  -71.9650 C.3   158  ILE158      0.0019
     40  CD1      -40.8040   14.0240  -69.4870 C.3   158  ILE158      0.0001
     41  N        -44.6010    9.7170  -73.2230 N.3   161  TYR161     -0.1241
     42  CA       -43.3310    9.0970  -72.8770 C.3   161  TYR161      0.1605
     43  C        -43.4370    8.3710  -71.5380 C.2   161  TYR161      0.2264
     44  O        -43.0340    7.2080  -71.4070 O.2   161  TYR161     -0.2867
     45  CB       -42.2460   10.1720  -72.8520 C.3   161  TYR161      0.0534
     46  CG       -40.9770    9.8380  -72.1060 C.ar  161  TYR161     -0.0201
     47  CD1      -39.9060    9.2510  -72.7560 C.ar  161  TYR161     -0.0009
     48  CD2      -40.8360   10.1490  -70.7600 C.ar  161  TYR161     -0.0009
     49  CE1      -38.7450    8.9720  -72.1010 C.ar  161  TYR161      0.0417
     50  CE2      -39.6640    9.8670  -70.0860 C.ar  161  TYR161      0.0417
     51  CZ       -38.6190    9.2810  -70.7660 C.ar  161  TYR161      0.1957
     52  OH       -37.4330    8.9790  -70.1270 O.3   161  TYR161     -0.2866
     53  N        -34.9240    6.1630  -63.1740 N.3   191  PRO191     -0.2102
     54  CA       -34.2440    7.3700  -62.7100 C.3   191  PRO191      0.1504
     55  C        -35.1900    8.5510  -62.6590 C.2   191  PRO191      0.2576
     56  O        -36.1660    8.6340  -63.4130 O.2   191  PRO191     -0.2718
     57  CB       -33.1430    7.5860  -63.7570 C.3   191  PRO191      0.0282
     58  CG       -33.0170    6.2560  -64.4610 C.3   191  PRO191      0.0208
     59  CD       -34.3840    5.7100  -64.4680 C.3   191  PRO191      0.0893
     60  N        -34.8950    9.4530  -61.7280 N.am  192  GLY192     -0.1943
     61  CA       -35.5190   10.7610  -61.6920 C.3   192  GLY192      0.2014
     62  C        -34.8620   11.6690  -62.7080 C.2   192  GLY192      0.2639
     63  O        -34.3960   11.2260  -63.7640 O.2   192  GLY192     -0.2714
     64  N        -34.7870   12.9540  -62.3810 N.am  193  VAL193     -0.1963
     65  CA       -34.1520   13.9060  -63.2900 C.3   193  VAL193      0.1727
     66  C        -32.6420   13.6790  -63.2320 C.2   193  VAL193      0.2616
     67  O        -32.0060   13.9020  -62.1980 O.2   193  VAL193     -0.2715
     68  CB       -34.5230   15.3540  -62.9450 C.3   193  VAL193      0.0290
     69  CG1      -33.8240   16.3320  -63.8820 C.3   193  VAL193      0.0023
     70  CG2      -36.0320   15.5460  -63.0340 C.3   193  VAL193      0.0023
     71  N        -32.0730   13.2000  -64.3370 N.am  194  ILE194     -0.1977
     72  CA       -30.6330   13.0210  -64.4840 C.3   194  ILE194      0.1596
     73  C        -30.1450   14.0370  -65.5020 C.2   194  ILE194      0.2287
     74  O        -30.7470   14.1900  -66.5700 O.2   194  ILE194     -0.2864
     75  CB       -30.2580   11.5980  -64.9440 C.3   194  ILE194      0.0276
     76  CG1      -30.9500   10.5350  -64.0860 C.3   194  ILE194      0.0022
     77  CG2      -28.7510   11.4250  -64.8930 C.3   194  ILE194      0.0022
     78  CD1      -30.5720   10.5770  -62.6180 C.3   194  ILE194      0.0001
     79  N        -31.0000   14.7980  -72.8210 N.3   198  MET198     -0.1230
     80  CA       -32.4260   14.5180  -72.9400 C.3   198  MET198      0.1702
     81  C        -33.2580   15.3930  -72.0110 C.2   198  MET198      0.2593
     82  O        -34.3730   15.7950  -72.3620 O.2   198  MET198     -0.2718
     83  CB       -32.6960   13.0460  -72.6420 C.3   198  MET198      0.0401
     84  CG       -33.9000   12.5070  -73.3790 C.3   198  MET198      0.0596
     85  SD       -34.4300   10.9170  -72.7340 S.3   198  MET198     -0.1393
     86  CE       -35.2690   11.4370  -71.2680 C.3   198  MET198      0.0692
     87  N        -32.7530   15.6750  -70.8120 N.am  199  SER199     -0.1952
     88  CA       -33.5270   16.3880  -69.8060 C.3   199  SER199      0.1924
     89  C        -33.1300   17.8540  -69.6890 C.2   199  SER199      0.2314
     90  O        -33.6050   18.5420  -68.7800 O.2   199  SER199     -0.2863
     91  CB       -33.3740   15.7020  -68.4490 C.3   199  SER199      0.2116
     92  OG       -32.0380   15.8010  -67.9890 O.3   199  SER199     -0.2180
     93  N        -33.8400   20.6810  -71.0600 N.3   201  VAL201     -0.1231
     94  CA       -34.8660   21.7200  -70.9930 C.3   201  VAL201      0.1692
     95  C        -35.2960   21.9670  -69.5510 C.2   201  VAL201      0.2591
     96  O        -35.5300   23.1130  -69.1480 O.2   201  VAL201     -0.2718
     97  CB       -36.0700   21.3600  -71.8880 C.3   201  VAL201      0.0266
     98  CG1      -35.7740   21.7110  -73.3460 C.3   201  VAL201      0.0020
     99  CG2      -36.4820   19.8840  -71.7350 C.3   201  VAL201      0.0020
    100  N        -35.3940   20.9020  -68.7460 N.am  202  LEU202     -0.1980
    101  CA       -35.9120   21.0490  -67.3850 C.3   202  LEU202      0.1596
    102  C        -34.9170   21.7510  -66.4640 C.2   202  LEU202      0.2287
    103  O        -35.3140   22.5910  -65.6470 O.2   202  LEU202     -0.2864
    104  CB       -36.2830   19.6810  -66.8050 C.3   202  LEU202      0.0297
    105  CG       -37.7190   19.1860  -66.9890 C.3   202  LEU202      0.0022
    106  CD1      -37.8190   17.7630  -66.4790 C.3   202  LEU202      0.0001
    107  CD2      -38.7360   20.0660  -66.2680 C.3   202  LEU202      0.0001
@<TRIPOS>BOND
     1     3     4    2
     2     3     2    1
     3     1     2    1
     4     2     5    1
     5     8     6   am
     6     5     6    1
     7     6     7    2
     8    84    85    1
     9    84    83    1
    10    98    97    1
    11    41    42    1
    12    80    79    1
    13    80    83    1
    14    80    81    1
    15    42    45    1
    16    42    43    1
    17    45    46    1
    18    47    46   ar
    19    47    49   ar
    20    85    86    1
    21    82    81    2
    22    46    48   ar
    23    49    51   ar
    24    81    87   am
    25    39    37    1
    26    97    99    1
    27    97    94    1
    28    34    37    1
    29    34    35    1
    30    34    33    1
    31    43    44    2
    32    37    38    1
    33    35    36    2
    34    93    94    1
    35    94    95    1
    36    87    88    1
    37    51    52    1
    38    51    50   ar
    39    48    50   ar
    40    38    40    1
    41    88    89    1
    42    88    91    1
    43    89    90    2
    44    95    96    2
    45    95   100   am
    46   100   101    1
    47    91    92    1
    48   101   104    1
    49   101   102    1
    50    32    31    1
    51   105   104    1
    52   105   106    1
    53   105   107    1
    54    13    14    1
    55    13    10    1
    56    74    73    2
    57   102   103    2
    58    31    28    1
    59     9    10    1
    60    10    11    1
    61    73    72    1
    62    30    29    2
    63    29    28    1
    64    75    77    1
    65    75    72    1
    66    75    76    1
    67    28    27    1
    68    72    71    1
    69    59    58    1
    70    59    53    1
    71    58    57    1
    72    71    66   am
    73    11    12    2
    74    11    15   am
    75    27    17   am
    76    76    78    1
    77    69    68    1
    78    63    62    2
    79    57    54    1
    80    15    16    1
    81    56    55    2
    82    23    21   ar
    83    23    25   ar
    84    65    66    1
    85    65    68    1
    86    65    64    1
    87    66    67    2
    88    53    54    1
    89    21    20   ar
    90    70    68    1
    91    17    16    1
    92    17    18    2
    93    26    25    1
    94    54    55    1
    95    62    64   am
    96    62    61    1
    97    55    60   am
    98    25    24   ar
    99    16    19    1
   100    20    19    1
   101    20    22   ar
   102    60    61    1
   103    24    22   ar
