@<TRIPOS>MOLECULE
tmp/5ojkA02.pdb
 77 73 0 0 0
SMALL
GASTEIGER

@<TRIPOS>ATOM
      1  N         16.3810   14.3800   62.7190 N.3   160  SER160     -0.1217
      2  CA        15.1450   13.6240   62.8460 C.3   160  SER160      0.1889
      3  C         15.3630   12.1660   62.4670 C.2   160  SER160      0.2288
      4  O         16.1310   11.8540   61.5550 O.2   160  SER160     -0.2866
      5  CB        14.0460   14.2380   61.9810 C.3   160  SER160      0.2089
      6  OG        12.8380   13.5100   62.1110 O.3   160  SER160     -0.2183
      7  N         12.7200   10.1650   61.7830 N.3   162  GLY162     -0.1210
      8  CA        11.5160    9.7510   61.0830 C.3   162  GLY162      0.1956
      9  C         10.4790    9.1640   62.0220 C.2   162  GLY162      0.2612
     10  O          9.5100    8.5460   61.5820 O.2   162  GLY162     -0.2717
     11  N         10.6900    9.3660   63.3200 N.am  163  ASP163     -0.1959
     12  CA         9.8300    8.8070   64.3600 C.3   163  ASP163      0.1840
     13  C          9.3850    9.8920   65.3320 C.2   163  ASP163      0.2621
     14  O          9.7260   11.0640   65.1710 O.2   163  ASP163     -0.2715
     15  CB        10.5550    7.7000   65.1330 C.3   163  ASP163      0.1450
     16  CG        10.7440    6.4400   64.3190 C.2   163  ASP163      0.3671
     17  OD1       10.5090    6.4720   63.0940 O.co2 163  ASP163     -0.2456
     18  OD2       11.1220    5.4080   64.9130 O.co2 163  ASP163     -0.2456
     19  N          8.6160    9.4920   66.3390 N.am  164  GLN164     -0.1977
     20  CA         8.2870   10.3800   67.4440 C.3   164  GLN164      0.1601
     21  C          9.4820   10.4990   68.3900 C.2   164  GLN164      0.2287
     22  O          9.4870   11.3370   69.2910 O.2   164  GLN164     -0.2864
     23  CB         7.0530    9.8790   68.1980 C.3   164  GLN164      0.0394
     24  CG         6.5960   10.8070   69.3150 C.3   164  GLN164      0.0908
     25  CD         5.2460   10.4230   69.8850 C.2   164  GLN164      0.2608
     26  OE1        4.4510    9.7460   69.2320 O.2   164  GLN164     -0.2717
     27  NE2        4.9810   10.8500   71.1170 N.am  164  GLN164     -0.0878
     28  N         11.3140   14.1340   66.2510 N.3   167  LYS167     -0.1245
     29  CA        10.4120   14.6170   65.2080 C.3   167  LYS167      0.1561
     30  C         11.0050   15.7700   64.3970 C.2   167  LYS167      0.2260
     31  O         10.5000   16.1030   63.3230 O.2   167  LYS167     -0.2867
     32  CB         9.0800   15.0410   65.8270 C.3   167  LYS167      0.0271
     33  CG         8.3710   13.9150   66.5620 C.3   167  LYS167      0.0035
     34  CD         6.9330   14.2720   66.9020 C.3   167  LYS167      0.0206
     35  CE         6.8490   15.3690   67.9520 C.3   167  LYS167      0.1093
     36  NZ         7.4010   14.9290   69.2620 N.3   167  LYS167     -0.1314
     37  N         14.5600   15.5050   53.0970 N.3   248  PHE248     -0.1241
     38  CA        13.6230   14.4370   52.7590 C.3   248  PHE248      0.1605
     39  C         14.1110   13.0550   53.2030 C.2   248  PHE248      0.2264
     40  O         13.3260   12.1050   53.2530 O.2   248  PHE248     -0.2867
     41  CB        13.3590   14.4330   51.2520 C.3   248  PHE248      0.0534
     42  CG        12.5780   15.6240   50.7700 C.ar  248  PHE248     -0.0203
     43  CD1       11.2010   15.6720   50.9210 C.ar  248  PHE248     -0.0042
     44  CD2       13.2190   16.6940   50.1670 C.ar  248  PHE248     -0.0042
     45  CE1       10.4780   16.7650   50.4780 C.ar  248  PHE248     -0.0003
     46  CE2       12.5000   17.7880   49.7210 C.ar  248  PHE248     -0.0003
     47  CZ        11.1280   17.8230   49.8780 C.ar  248  PHE248     -0.0000
     48  N         15.7990   12.3910   56.3810 N.3   250  PRO250     -0.2116
     49  CA        16.3780   12.7290   57.6840 C.3   250  PRO250      0.1372
     50  C         16.8680   11.5120   58.4600 C.2   250  PRO250      0.2244
     51  O         17.9100   11.5840   59.1090 O.2   250  PRO250     -0.2868
     52  CB        15.2140   13.3980   58.4160 C.3   250  PRO250      0.0268
     53  CG        13.9950   12.8050   57.7970 C.3   250  PRO250      0.0207
     54  CD        14.3390   12.5840   56.3560 C.3   250  PRO250      0.0892
     55  N         11.8120   19.3120   58.2780 N.3   300  VAL300     -0.1231
     56  CA        11.3070   18.0170   57.8260 C.3   300  VAL300      0.1692
     57  C          9.7920   17.9860   57.8370 C.2   300  VAL300      0.2592
     58  O          9.1350   18.7890   58.4990 O.2   300  VAL300     -0.2718
     59  CB        11.8240   16.8470   58.6960 C.3   300  VAL300      0.0266
     60  CG1       13.3190   16.6490   58.5190 C.3   300  VAL300      0.0020
     61  CG2       11.4450   17.0450   60.1640 C.3   300  VAL300      0.0020
     62  N          9.2510   17.0380   57.0850 N.am  301  ILE301     -0.1966
     63  CA         7.8170   16.8760   56.9510 C.3   301  ILE301      0.1727
     64  C          7.3840   15.9150   58.0480 C.2   301  ILE301      0.2616
     65  O          7.3970   14.6980   57.8640 O.2   301  ILE301     -0.2715
     66  CB         7.4470   16.3730   55.5490 C.3   301  ILE301      0.0290
     67  CG1        7.8590   17.4140   54.5010 C.3   301  ILE301      0.0022
     68  CG2        5.9580   16.0720   55.4620 C.3   301  ILE301      0.0023
     69  CD1        7.9450   16.8690   53.0970 C.3   301  ILE301      0.0001
     70  N          7.0060   16.4800   59.1900 N.am  302  ASP302     -0.1971
     71  CA         6.7040   15.7010   60.3870 C.3   302  ASP302      0.1709
     72  C          5.2050   15.4940   60.5950 C.2   302  ASP302      0.2293
     73  O          4.7920   14.7490   61.4870 O.2   302  ASP302     -0.2864
     74  CB         7.3010   16.3930   61.6150 C.3   302  ASP302      0.1436
     75  CG         6.7550   17.7960   61.8150 C.2   302  ASP302      0.3671
     76  OD1        6.2640   18.3860   60.8300 O.co2 302  ASP302     -0.2456
     77  OD2        6.8180   18.3120   62.9530 O.co2 302  ASP302     -0.2456
@<TRIPOS>BOND
     1    46    47   ar
     2    46    44   ar
     3    47    45   ar
     4    44    42   ar
     5    45    43   ar
     6    42    43   ar
     7    42    41    1
     8    41    38    1
     9    38    37    1
    10    38    39    1
    11    69    67    1
    12    39    40    2
    13    67    66    1
    14    68    66    1
    15    66    63    1
    16    54    48    1
    17    54    53    1
    18    48    49    1
    19    63    62    1
    20    63    64    1
    21    62    57   am
    22    49    52    1
    23    49    50    1
    24    53    52    1
    25    56    57    1
    26    56    55    1
    27    56    59    1
    28    57    58    2
    29    65    64    2
    30    64    70   am
    31    50    51    2
    32    60    59    1
    33    59    61    1
    34    70    71    1
    35    71    72    1
    36    71    74    1
    37    72    73    2
    38    76    75   ar
    39     8     7    1
    40     8     9    1
    41     4     3    2
    42    10     9    2
    43    74    75    1
    44    75    77   ar
    45     5     6    1
    46     5     2    1
    47     9    11   am
    48     3     2    1
    49     1     2    1
    50    17    16   ar
    51    11    12    1
    52    31    30    2
    53    16    18   ar
    54    16    15    1
    55    12    15    1
    56    12    13    1
    57    30    29    1
    58    14    13    2
    59    29    32    1
    60    29    28    1
    61    13    19   am
    62    32    33    1
    63    19    20    1
    64    33    34    1
    65    34    35    1
    66    20    23    1
    67    20    21    1
    68    35    36    1
    69    23    24    1
    70    21    22    2
    71    26    25    2
    72    24    25    1
    73    25    27   am
