@<TRIPOS>MOLECULE
tmp/5ojyA01.pdb
 124 118 0 0 0
SMALL
GASTEIGER

@<TRIPOS>ATOM
      1  N         22.2880  -43.8460  -15.1940 N.3   157  SER157     -0.1202
      2  CA        20.8620  -44.1650  -15.2010 C.3   157  SER157      0.2020
      3  C         20.0320  -42.9170  -15.4310 C.2   157  SER157      0.2618
      4  O         19.0870  -42.9190  -16.2470 O.2   157  SER157     -0.2717
      5  CB        20.4610  -44.8440  -13.8870 C.3   157  SER157      0.2103
      6  OG        21.2600  -45.9910  -13.6460 O.3   157  SER157     -0.2182
      7  N         20.3600  -41.8410  -14.7120 N.am  158  GLU158     -0.1979
      8  CA        19.5800  -40.6230  -14.8190 C.3   158  GLU158      0.1602
      9  C         19.7700  -39.9550  -16.1650 C.2   158  GLU158      0.2287
     10  O         18.8230  -39.3700  -16.6980 O.2   158  GLU158     -0.2864
     11  CB        19.9180  -39.6570  -13.6780 C.3   158  GLU158      0.0415
     12  CG        19.6530  -40.1970  -12.2710 C.3   158  GLU158      0.1163
     13  CD        18.1510  -40.3080  -11.9350 C.2   158  GLU158      0.3649
     14  OE1       17.3210  -39.7050  -12.6270 O.co2 158  GLU158     -0.2457
     15  OE2       17.8260  -41.0380  -10.9910 O.co2 158  GLU158     -0.2457
     16  N         17.5970  -41.9370  -18.5480 N.3   161  TRP161     -0.1241
     17  CA        16.2050  -41.5590  -18.3030 C.3   161  TRP161      0.1605
     18  C         15.8960  -40.2010  -18.9070 C.2   161  TRP161      0.2264
     19  O         14.9120  -40.0430  -19.6400 O.2   161  TRP161     -0.2867
     20  CB        15.8980  -41.5280  -16.8050 C.3   161  TRP161      0.0550
     21  CG        14.5640  -40.8760  -16.4950 C.ar  161  TRP161      0.0003
     22  CD1       14.3230  -39.5840  -16.0840 C.ar  161  TRP161      0.0946
     23  CD2       13.3000  -41.5060  -16.5900 C.ar  161  TRP161      0.0152
     24  NE1       12.9660  -39.3820  -15.9280 N.ar  161  TRP161     -0.2442
     25  CE2       12.3200  -40.5580  -16.2200 C.ar  161  TRP161      0.0810
     26  CE3       12.8990  -42.7930  -16.9450 C.ar  161  TRP161      0.0012
     27  CZ2       10.9700  -40.8570  -16.2130 C.ar  161  TRP161      0.0191
     28  CZ3       11.5570  -43.0890  -16.9320 C.ar  161  TRP161      0.0001
     29  CH2       10.6060  -42.1290  -16.5710 C.ar  161  TRP161      0.0015
     30  N          7.9840  -38.9820  -14.4860 N.3   172  GLU172     -0.1245
     31  CA         7.9090  -40.1970  -13.6810 C.3   172  GLU172      0.1567
     32  C          6.4580  -40.5290  -13.3450 C.2   172  GLU172      0.2260
     33  O          6.0180  -41.6780  -13.4720 O.2   172  GLU172     -0.2867
     34  CB         8.7230  -40.0250  -12.3970 C.3   172  GLU172      0.0388
     35  CG        10.2660  -39.9410  -12.5820 C.3   172  GLU172      0.1160
     36  CD        10.7930  -38.5130  -12.7190 C.2   172  GLU172      0.3649
     37  OE1       10.0100  -37.6340  -13.1200 O.co2 172  GLU172     -0.2457
     38  OE2       11.9910  -38.2740  -12.4220 O.co2 172  GLU172     -0.2457
     39  N          4.7700  -41.8330  -16.3920 N.3   175  TRP175     -0.1227
     40  CA         5.1880  -43.1730  -16.7860 C.3   175  TRP175      0.1737
     41  C          4.4950  -44.2130  -15.9070 C.2   175  TRP175      0.2595
     42  O          3.9430  -45.1970  -16.4090 O.2   175  TRP175     -0.2718
     43  CB         6.7210  -43.2790  -16.7210 C.3   175  TRP175      0.0564
     44  CG         7.2260  -44.6310  -17.1080 C.ar  175  TRP175      0.0003
     45  CD1        7.5980  -45.0630  -18.3480 C.ar  175  TRP175      0.0946
     46  CD2        7.3840  -45.7310  -16.2310 C.ar  175  TRP175      0.0152
     47  NE1        7.9880  -46.3820  -18.2850 N.ar  175  TRP175     -0.2442
     48  CE2        7.8700  -46.8030  -16.9870 C.ar  175  TRP175      0.0810
     49  CE3        7.1830  -45.9020  -14.8620 C.ar  175  TRP175      0.0012
     50  CZ2        8.1290  -48.0450  -16.4320 C.ar  175  TRP175      0.0191
     51  CZ3        7.4540  -47.1360  -14.3100 C.ar  175  TRP175      0.0001
     52  CH2        7.9220  -48.1850  -15.0960 C.ar  175  TRP175      0.0015
     53  N          4.4760  -43.9880  -14.5970 N.am  176  VAL176     -0.1980
     54  CA         3.7900  -44.9160  -13.7070 C.3   176  VAL176      0.1595
     55  C          2.3230  -45.0290  -14.1010 C.2   176  VAL176      0.2287
     56  O          1.7270  -46.1110  -14.0370 O.2   176  VAL176     -0.2864
     57  CB         3.9510  -44.4660  -12.2460 C.3   176  VAL176      0.0276
     58  CG1        3.0550  -45.2860  -11.3260 C.3   176  VAL176      0.0022
     59  CG2        5.3870  -44.6070  -11.8110 C.3   176  VAL176      0.0022
     60  N          1.4180  -52.8300  -14.4490 N.3   183  LEU183     -0.1245
     61  CA         2.0320  -52.9230  -13.1340 C.3   183  LEU183      0.1561
     62  C          1.0410  -53.3870  -12.0820 C.2   183  LEU183      0.2260
     63  O          1.4180  -54.0820  -11.1300 O.2   183  LEU183     -0.2867
     64  CB         2.6110  -51.5790  -12.7110 C.3   183  LEU183      0.0270
     65  CG         3.8620  -51.1160  -13.4590 C.3   183  LEU183      0.0019
     66  CD1        4.2520  -49.6630  -13.0540 C.3   183  LEU183      0.0001
     67  CD2        5.0200  -52.0380  -13.1770 C.3   183  LEU183      0.0001
     68  N          2.4170  -56.6810  -10.1500 N.3   187  THR187     -0.1218
     69  CA         2.8410  -56.5880   -8.7600 C.3   187  THR187      0.1862
     70  C          1.9380  -57.3880   -7.8240 C.2   187  THR187      0.2287
     71  O          2.2850  -57.5480   -6.6490 O.2   187  THR187     -0.2866
     72  CB         2.8800  -55.1370   -8.2720 C.3   187  THR187      0.1770
     73  OG1        1.5800  -54.5410   -8.4410 O.3   187  THR187     -0.2211
     74  CG2        3.9620  -54.3340   -9.0330 C.3   187  THR187      0.0375
     75  N          6.2070  -54.2350   -2.6650 N.3   194  LEU194     -0.1245
     76  CA         6.6230  -53.9760   -4.0440 C.3   194  LEU194      0.1561
     77  C          5.7450  -52.9150   -4.7100 C.2   194  LEU194      0.2260
     78  O          6.2470  -51.9400   -5.2870 O.2   194  LEU194     -0.2867
     79  CB         6.5910  -55.2820   -4.8650 C.3   194  LEU194      0.0270
     80  CG         6.9580  -55.1250   -6.3500 C.3   194  LEU194      0.0019
     81  CD1        8.4220  -54.7540   -6.5010 C.3   194  LEU194      0.0001
     82  CD2        6.6350  -56.3870   -7.1850 C.3   194  LEU194      0.0001
     83  N          6.4850  -49.5280   -3.1710 N.3   197  TYR197     -0.1227
     84  CA         7.6900  -48.9190   -3.7410 C.3   197  TYR197      0.1736
     85  C          7.3820  -48.2710   -5.0770 C.2   197  TYR197      0.2595
     86  O          7.7990  -47.1360   -5.3430 O.2   197  TYR197     -0.2718
     87  CB         8.8010  -49.9660   -3.8840 C.3   197  TYR197      0.0548
     88  CG        10.0740  -49.3970   -4.4860 C.ar  197  TYR197     -0.0200
     89  CD1       11.0570  -48.8490   -3.6810 C.ar  197  TYR197     -0.0009
     90  CD2       10.2810  -49.3970   -5.8690 C.ar  197  TYR197     -0.0009
     91  CE1       12.2250  -48.3120   -4.2320 C.ar  197  TYR197      0.0417
     92  CE2       11.4710  -48.8720   -6.4270 C.ar  197  TYR197      0.0417
     93  CZ        12.4080  -48.3130   -5.5980 C.ar  197  TYR197      0.1957
     94  OH        13.5700  -47.7790   -6.1450 O.3   197  TYR197     -0.2866
     95  N          6.6570  -48.9740   -5.9440 N.am  198  VAL198     -0.1980
     96  CA         6.3530  -48.4240   -7.2570 C.3   198  VAL198      0.1595
     97  C          5.5070  -47.1550   -7.1360 C.2   198  VAL198      0.2287
     98  O          5.6840  -46.1990   -7.9090 O.2   198  VAL198     -0.2864
     99  CB         5.6790  -49.4800   -8.1440 C.3   198  VAL198      0.0276
    100  CG1        5.3320  -48.8770   -9.4890 C.3   198  VAL198      0.0022
    101  CG2        6.6070  -50.7130   -8.3270 C.3   198  VAL198      0.0022
    102  N          7.5670  -44.2660   -6.2260 N.3   201  SER201     -0.1217
    103  CA         8.5080  -43.8730   -7.2730 C.3   201  SER201      0.1889
    104  C          7.9190  -42.8030   -8.1720 C.2   201  SER201      0.2288
    105  O          8.6680  -42.0100   -8.7610 O.2   201  SER201     -0.2866
    106  CB         8.9240  -45.1000   -8.1010 C.3   201  SER201      0.2089
    107  OG         8.0360  -45.3580   -9.1880 O.3   201  SER201     -0.2183
    108  N          9.1980  -39.3030   -7.3090 N.3   204  SER204     -0.1217
    109  CA        10.6270  -39.0640   -7.1960 C.3   204  SER204      0.1889
    110  C         11.0960  -38.1730   -8.3440 C.2   204  SER204      0.2288
    111  O         10.4420  -38.0450   -9.3770 O.2   204  SER204     -0.2866
    112  CB        11.4170  -40.3800   -7.2110 C.3   204  SER204      0.2089
    113  OG        11.2790  -40.9930   -8.4890 O.3   204  SER204     -0.2183
    114  N         16.4900  -38.2950   -6.0310 N.3   209  ARG209     -0.1245
    115  CA        16.9980  -39.6700   -6.0500 C.3   209  ARG209      0.1563
    116  C         18.4840  -39.7000   -5.7850 C.2   209  ARG209      0.2260
    117  O         18.9670  -40.4880   -4.9660 O.2   209  ARG209     -0.2867
    118  CB        16.6920  -40.3600   -7.3790 C.3   209  ARG209      0.0307
    119  CG        15.2010  -40.6880   -7.5720 C.3   209  ARG209      0.0489
    120  CD        14.9430  -41.5070   -8.8360 C.3   209  ARG209      0.2205
    121  NE        15.1870  -40.8050  -10.1080 N.pl3 209  ARG209     -0.0865
    122  CZ        14.2890  -40.1430  -10.8170 C.cat 209  ARG209      0.5346
    123  NH1       13.0170  -39.9960  -10.3920 N.pl3 209  ARG209      0.1354
    124  NH2       14.6700  -39.5960  -11.9600 N.pl3 209  ARG209      0.1354
@<TRIPOS>BOND
     1    19    18    2
     2    18    17    1
     3    16    17    1
     4    45    47   ar
     5    45    44   ar
     6    17    20    1
     7    47    48   ar
     8    44    43    1
     9    44    46   ar
    10    48    50   ar
    11    48    46   ar
    12    26    28   ar
    13    26    23   ar
    14    28    29   ar
    15    20    21    1
    16    40    43    1
    17    40    39    1
    18    40    41    1
    19    10     9    2
    20    23    21   ar
    21    23    25   ar
    22    29    27   ar
    23    21    22   ar
    24    50    52   ar
    25    42    41    2
    26     4     3    2
    27    46    49   ar
    28    25    27   ar
    29    25    24   ar
    30     9     8    1
    31    22    24   ar
    32    41    53   am
    33     3     2    1
    34     3     7   am
    35     2     1    1
    36     2     5    1
    37    52    51   ar
    38    49    51   ar
    39     8     7    1
    40     8    11    1
    41    53    54    1
    42    30    31    1
    43    60    61    1
    44    55    56    2
    45    55    54    1
    46     5     6    1
    47    54    57    1
    48    31    32    1
    49    31    34    1
    50    11    12    1
    51    33    32    2
    52    65    67    1
    53    65    66    1
    54    65    64    1
    55    61    64    1
    56    61    62    1
    57    37    36   ar
    58    36    35    1
    59    36    38   ar
    60    14    13   ar
    61    35    34    1
    62    12    13    1
    63    57    59    1
    64    57    58    1
    65    62    63    2
    66   124   122    1
    67    13    15   ar
    68   122   123    1
    69   122   121    2
    70    68    69    1
    71   121   120    1
    72   100    99    1
    73   111   110    2
    74   107   106    1
    75    74    72    1
    76   120   119    1
    77   105   104    2
    78    69    72    1
    79    69    70    1
    80   113   112    1
    81    73    72    1
    82   110   109    1
    83   101    99    1
    84   104   103    1
    85    99    96    1
    86   106   103    1
    87    98    97    2
    88    70    71    2
    89   119   118    1
    90   118   115    1
    91   108   109    1
    92   103   102    1
    93    96    97    1
    94    96    95    1
    95   112   109    1
    96    82    80    1
    97    81    80    1
    98    92    90   ar
    99    92    93   ar
   100    80    79    1
   101    94    93    1
   102   115   114    1
   103   115   116    1
   104    95    85   am
   105    90    88   ar
   106   116   117    2
   107    93    91   ar
   108    86    85    2
   109    78    77    2
   110    85    84    1
   111    79    76    1
   112    77    76    1
   113    88    87    1
   114    88    89   ar
   115    91    89   ar
   116    76    75    1
   117    87    84    1
   118    84    83    1
