@<TRIPOS>MOLECULE
tmp/5okdC00.pdb
 97 89 0 0 0
SMALL
GASTEIGER

@<TRIPOS>ATOM
      1  N        -62.2880  -53.8700   36.3850 N.3    28  SER28      -0.1217
      2  CA       -61.3260  -54.8520   35.8720 C.3    28  SER28       0.1889
      3  C        -61.3090  -56.1640   36.6300 C.2    28  SER28       0.2288
      4  O        -60.8440  -57.1680   36.0980 O.2    28  SER28      -0.2866
      5  CB       -59.9130  -54.2740   35.8990 C.3    28  SER28       0.2089
      6  OG       -59.8310  -53.1560   35.0340 O.3    28  SER28      -0.2183
      7  N        -63.1700  -59.0810   34.9030 N.3    31  ASN31      -0.1225
      8  CA       -62.5660  -59.7350   33.7380 C.3    31  ASN31       0.1785
      9  C        -62.0040  -61.1180   34.0210 C.2    31  ASN31       0.2597
     10  O        -61.8320  -61.9000   33.0830 O.2    31  ASN31      -0.2718
     11  CB       -61.4620  -58.8710   33.1210 C.3    31  ASN31       0.1169
     12  CG       -62.0160  -57.7640   32.2510 C.2    31  ASN31       0.2627
     13  OD1      -62.5790  -56.7850   32.7470 O.2    31  ASN31      -0.2716
     14  ND2      -61.8660  -57.9180   30.9380 N.am   31  ASN31      -0.0877
     15  N        -61.7170  -61.4270   35.2890 N.am   32  PHE32      -0.1976
     16  CA       -61.0530  -62.6870   35.6270 C.3    32  PHE32       0.1639
     17  C        -61.8710  -63.9510   35.3660 C.2    32  PHE32       0.2290
     18  O        -61.2870  -65.0060   35.1360 O.2    32  PHE32      -0.2864
     19  CB       -60.5190  -62.6620   37.0520 C.3    32  PHE32       0.0560
     20  CG       -59.3700  -61.7300   37.2230 C.ar   32  PHE32      -0.0200
     21  CD1      -58.1190  -62.0750   36.7330 C.ar   32  PHE32      -0.0042
     22  CD2      -59.5410  -60.4970   37.8350 C.ar   32  PHE32      -0.0042
     23  CE1      -57.0480  -61.2150   36.8700 C.ar   32  PHE32      -0.0003
     24  CE2      -58.4770  -59.6270   37.9780 C.ar   32  PHE32      -0.0003
     25  CZ       -57.2260  -59.9870   37.4960 C.ar   32  PHE32      -0.0000
     26  N        -61.1130  -64.6800   31.7500 N.3    35  LEU35      -0.1245
     27  CA       -59.7120  -65.0620   31.7150 C.3    35  LEU35       0.1561
     28  C        -59.4550  -66.4460   32.2920 C.2    35  LEU35       0.2260
     29  O        -58.5240  -67.1170   31.8430 O.2    35  LEU35      -0.2867
     30  CB       -58.8430  -64.0230   32.4260 C.3    35  LEU35       0.0270
     31  CG       -58.7220  -62.6550   31.7390 C.3    35  LEU35       0.0019
     32  CD1      -57.6470  -61.8220   32.4270 C.3    35  LEU35       0.0001
     33  CD2      -58.4280  -62.7810   30.2460 C.3    35  LEU35       0.0001
     34  N        -50.5700  -68.7220   35.6730 N.3    88  MET88      -0.1245
     35  CA       -51.5380  -67.7130   35.2390 C.3    88  MET88       0.1570
     36  C        -52.9640  -68.0820   35.6430 C.2    88  MET88       0.2261
     37  O        -53.7520  -67.1990   35.9790 O.2    88  MET88      -0.2867
     38  CB       -51.4530  -67.4760   33.7250 C.3    88  MET88       0.0387
     39  CG       -50.1430  -66.8530   33.2390 C.3    88  MET88       0.0595
     40  SD       -49.5270  -65.4560   34.2090 S.3    88  MET88      -0.1393
     41  CE       -50.9150  -64.3330   34.1040 C.3    88  MET88       0.0692
     42  N        -53.1230  -67.2710   39.5060 N.3    91  ILE91      -0.1231
     43  CA       -53.1670  -65.8250   39.6790 C.3    91  ILE91       0.1692
     44  C        -54.6060  -65.4090   39.4130 C.2    91  ILE91       0.2592
     45  O        -55.2580  -64.8540   40.2890 O.2    91  ILE91      -0.2718
     46  CB       -52.1750  -65.0700   38.7610 C.3    91  ILE91       0.0266
     47  CG1      -50.7320  -65.3410   39.2080 C.3    91  ILE91       0.0019
     48  CG2      -52.4280  -63.5640   38.8070 C.3    91  ILE91       0.0020
     49  CD1      -49.6660  -64.8530   38.2450 C.3    91  ILE91       0.0001
     50  N        -55.1060  -65.7460   38.2270 N.am   92  CYS92      -0.1970
     51  CA       -56.4750  -65.4080   37.8400 C.3    92  CYS92       0.1712
     52  C        -57.5230  -65.8860   38.8500 C.2    92  CYS92       0.2296
     53  O        -58.4620  -65.1510   39.1350 O.2    92  CYS92      -0.2864
     54  CB       -56.7940  -65.9280   36.4300 C.3    92  CYS92       0.0983
     55  SG       -56.0180  -64.9570   35.1090 S.3    92  CYS92      -0.0798
     56  N        -63.7960  -55.3530   26.0240 N.3   226  LYS226     -0.1245
     57  CA       -62.9650  -55.3990   27.2380 C.3   226  LYS226      0.1561
     58  C        -62.3040  -56.7600   27.4100 C.2   226  LYS226      0.2260
     59  O        -61.1230  -56.8370   27.7500 O.2   226  LYS226     -0.2867
     60  CB       -63.7500  -55.0260   28.5130 C.3   226  LYS226      0.0271
     61  CG       -63.4400  -53.6220   29.0160 C.3   226  LYS226      0.0035
     62  CD       -64.2820  -53.2140   30.2170 C.3   226  LYS226      0.0206
     63  CE       -63.6770  -53.7010   31.5240 C.3   226  LYS226      0.1093
     64  NZ       -64.6890  -53.8150   32.6200 N.3   226  LYS226     -0.1314
     65  N        -59.3160  -57.1310   25.2300 N.3   229  LEU229     -0.1231
     66  CA       -58.2130  -56.4010   25.8540 C.3   229  LEU229      0.1693
     67  C        -57.6280  -57.1740   27.0360 C.2   229  LEU229      0.2592
     68  O        -56.4080  -57.2570   27.1940 O.2   229  LEU229     -0.2718
     69  CB       -58.6900  -55.0220   26.3110 C.3   229  LEU229      0.0284
     70  CG       -57.6970  -54.0930   27.0040 C.3   229  LEU229      0.0019
     71  CD1      -56.4710  -53.8410   26.1360 C.3   229  LEU229      0.0001
     72  CD2      -58.3970  -52.7890   27.3400 C.3   229  LEU229      0.0001
     73  N        -58.5120  -57.7360   27.8550 N.am  230  GLY230     -0.1957
     74  CA       -58.1100  -58.5550   28.9860 C.3   230  GLY230      0.1869
     75  C        -57.2900  -59.7510   28.5530 C.2   230  GLY230      0.2309
     76  O        -56.2030  -59.9880   29.0880 O.2   230  GLY230     -0.2863
     77  N        -53.8570  -58.7960   27.5760 N.3   233  LEU233     -0.1231
     78  CA       -53.0080  -58.5790   28.7580 C.3   233  LEU233      0.1693
     79  C        -52.6420  -59.8620   29.5020 C.2   233  LEU233      0.2591
     80  O        -51.5780  -59.9350   30.1250 O.2   233  LEU233     -0.2718
     81  CB       -53.6890  -57.6210   29.7350 C.3   233  LEU233      0.0284
     82  CG       -53.7790  -56.1720   29.2580 C.3   233  LEU233      0.0019
     83  CD1      -54.8380  -55.4200   30.0510 C.3   233  LEU233      0.0001
     84  CD2      -52.4230  -55.4800   29.3580 C.3   233  LEU233      0.0001
     85  N        -53.5340  -60.8520   29.4680 N.am  234  LEU234     -0.1980
     86  CA       -53.2340  -62.1790   30.0160 C.3   234  LEU234      0.1596
     87  C        -52.1290  -62.8510   29.2100 C.2   234  LEU234      0.2287
     88  O        -51.2190  -63.4510   29.7800 O.2   234  LEU234     -0.2864
     89  CB       -54.4800  -63.0770   30.0290 C.3   234  LEU234      0.0297
     90  CG       -54.3130  -64.5170   30.5480 C.3   234  LEU234      0.0022
     91  CD1      -53.9410  -64.5470   32.0210 C.3   234  LEU234      0.0001
     92  CD2      -55.5790  -65.3270   30.3110 C.3   234  LEU234      0.0001
     93  N        -48.6910  -61.3080   30.0740 N.3   237  ALA237     -0.1245
     94  CA       -48.1630  -61.8510   31.3220 C.3   237  ALA237      0.1562
     95  C        -47.5940  -63.2510   31.1060 C.2   237  ALA237      0.2260
     96  O        -46.4550  -63.5300   31.5040 O.2   237  ALA237     -0.2867
     97  CB       -49.2400  -61.8720   32.3940 C.3   237  ALA237      0.0290
@<TRIPOS>BOND
     1    65    66    1
     2    66    69    1
     3    66    67    1
     4    56    57    1
     5    71    70    1
     6    69    70    1
     7    70    72    1
     8    67    68    2
     9    67    73   am
    10    57    58    1
    11    57    60    1
    12    58    59    2
    13    77    78    1
    14    73    74    1
    15    60    61    1
    16    75    74    1
    17    75    76    2
    18    78    79    1
    19    78    81    1
    20    61    62    1
    21    87    88    2
    22    87    86    1
    23    82    84    1
    24    82    81    1
    25    82    83    1
    26    85    79   am
    27    85    86    1
    28    79    80    2
    29    86    89    1
    30    89    90    1
    31    93    94    1
    32    62    63    1
    33    33    31    1
    34    92    90    1
    35    90    91    1
    36    14    12   am
    37    95    94    1
    38    95    96    2
    39    94    97    1
    40    63    64    1
    41    27    26    1
    42    27    28    1
    43    27    30    1
    44    31    30    1
    45    31    32    1
    46    29    28    2
    47    12    13    2
    48    12    11    1
    49    10     9    2
    50    11     8    1
    51    39    38    1
    52    39    40    1
    53    38    35    1
    54     8     9    1
    55     8     7    1
    56     9    15   am
    57    41    40    1
    58     6     5    1
    59    55    54    1
    60    18    17    2
    61    35    36    1
    62    35    34    1
    63    15    16    1
    64    17    16    1
    65    16    19    1
    66    36    37    2
    67     2     5    1
    68     2     1    1
    69     2     3    1
    70     4     3    2
    71    54    51    1
    72    21    23   ar
    73    21    20   ar
    74    23    25   ar
    75    19    20    1
    76    20    22   ar
    77    25    24   ar
    78    22    24   ar
    79    51    50    1
    80    51    52    1
    81    50    44   am
    82    49    47    1
    83    46    48    1
    84    46    47    1
    85    46    43    1
    86    52    53    2
    87    44    43    1
    88    44    45    2
    89    42    43    1
