@<TRIPOS>MOLECULE
tmp/5okdC06.pdb
 152 142 0 0 0
SMALL
GASTEIGER

@<TRIPOS>ATOM
      1  N        -76.9170  -65.4350   26.5990 N.3    16  ALA16      -0.1231
      2  CA       -75.8380  -65.6240   27.5720 C.3    16  ALA16       0.1694
      3  C        -74.5340  -64.9060   27.2070 C.2    16  ALA16       0.2592
      4  O        -73.5960  -64.9150   28.0130 O.2    16  ALA16      -0.2718
      5  CB       -75.5740  -67.1120   27.7710 C.3    16  ALA16       0.0304
      6  N        -74.4590  -64.3020   26.0140 N.am   17  PHE17      -0.1976
      7  CA       -73.1850  -63.7400   25.5180 C.3    17  PHE17       0.1639
      8  C        -73.2480  -62.4890   24.6160 C.2    17  PHE17       0.2290
      9  O        -72.1880  -61.9870   24.2320 O.2    17  PHE17      -0.2864
     10  CB       -72.4040  -64.8590   24.7870 C.3    17  PHE17       0.0560
     11  CG       -70.9030  -64.7800   24.9500 C.ar   17  PHE17      -0.0200
     12  CD1      -70.2980  -65.1460   26.1560 C.ar   17  PHE17      -0.0042
     13  CD2      -70.0860  -64.3660   23.8910 C.ar   17  PHE17      -0.0042
     14  CE1      -68.9150  -65.0840   26.3070 C.ar   17  PHE17      -0.0003
     15  CE2      -68.7010  -64.3030   24.0400 C.ar   17  PHE17      -0.0003
     16  CZ       -68.1150  -64.6630   25.2480 C.ar   17  PHE17      -0.0000
     17  N        -76.9520  -60.2870   26.7760 N.3    20  LEU20      -0.1245
     18  CA       -76.8200  -60.3860   28.2250 C.3    20  LEU20       0.1561
     19  C        -76.7610  -58.9870   28.8310 C.2    20  LEU20       0.2260
     20  O        -75.8530  -58.2250   28.4890 O.2    20  LEU20      -0.2867
     21  CB       -75.5470  -61.1580   28.5930 C.3    20  LEU20       0.0270
     22  CG       -75.0750  -61.1430   30.0500 C.3    20  LEU20       0.0019
     23  CD1      -76.0810  -61.8250   30.9550 C.3    20  LEU20       0.0001
     24  CD2      -73.7260  -61.8210   30.1430 C.3    20  LEU20       0.0001
     25  N        -75.5820  -56.5740   31.3360 N.3    22  ALA22      -0.1245
     26  CA       -74.4840  -56.4860   32.2940 C.3    22  ALA22       0.1562
     27  C        -74.5160  -55.1230   32.9850 C.2    22  ALA22       0.2260
     28  O        -74.9620  -54.1450   32.3850 O.2    22  ALA22      -0.2867
     29  CB       -73.1660  -56.6690   31.5740 C.3    22  ALA22       0.0290
     30  N        -69.1370  -52.4060   36.0620 N.3    26  ILE26      -0.1245
     31  CA       -68.2350  -53.4730   36.5440 C.3    26  ILE26       0.1561
     32  C        -66.8050  -53.1360   36.1520 C.2    26  ILE26       0.2260
     33  O        -66.5610  -52.6810   35.0310 O.2    26  ILE26      -0.2867
     34  CB       -68.6040  -54.9170   36.0880 C.3    26  ILE26       0.0252
     35  CG1      -68.9160  -55.0040   34.5890 C.3    26  ILE26       0.0019
     36  CG2      -69.7730  -55.4500   36.9060 C.3    26  ILE26       0.0019
     37  CD1      -68.7880  -56.4020   34.0190 C.3    26  ILE26       0.0001
     38  N        -63.8380  -57.8990   37.3130 N.3    30  TRP30      -0.1241
     39  CA       -64.8410  -58.7570   36.6670 C.3    30  TRP30       0.1605
     40  C        -64.3480  -59.4700   35.3990 C.2    30  TRP30       0.2264
     41  O        -65.0360  -60.3700   34.8840 O.2    30  TRP30      -0.2867
     42  CB       -66.1200  -57.9610   36.3800 C.3    30  TRP30       0.0550
     43  CG       -67.0790  -57.9890   37.5230 C.ar   30  TRP30       0.0003
     44  CD1      -68.2160  -58.7220   37.5980 C.ar   30  TRP30       0.0946
     45  CD2      -66.9780  -57.2770   38.7630 C.ar   30  TRP30       0.0152
     46  NE1      -68.8400  -58.5120   38.7960 N.ar   30  TRP30      -0.2442
     47  CE2      -68.1040  -57.6260   39.5350 C.ar   30  TRP30       0.0810
     48  CE3      -66.0450  -56.3800   39.3010 C.ar   30  TRP30       0.0012
     49  CZ2      -68.3330  -57.1070   40.8230 C.ar   30  TRP30       0.0191
     50  CZ3      -66.2700  -55.8600   40.5870 C.ar   30  TRP30       0.0001
     51  CH2      -67.4080  -56.2270   41.3270 C.ar   30  TRP30       0.0015
     52  N        -63.1980  -63.8510   35.3650 N.3    33  GLY33      -0.1210
     53  CA       -64.0390  -64.9720   34.9370 C.3    33  GLY33       0.1956
     54  C        -63.7280  -65.4450   33.5220 C.2    33  GLY33       0.2612
     55  O        -63.4780  -66.6230   33.2930 O.2    33  GLY33      -0.2717
     56  N        -63.7390  -64.5160   32.5730 N.am   34  SER34      -0.1952
     57  CA       -63.4560  -64.8310   31.1700 C.3    34  SER34       0.1924
     58  C        -62.0180  -65.2860   30.9890 C.2    34  SER34       0.2314
     59  O        -61.7380  -66.1630   30.1710 O.2    34  SER34      -0.2863
     60  CB       -63.7210  -63.6170   30.2740 C.3    34  SER34       0.2116
     61  OG       -64.8600  -62.8860   30.7150 O.3    34  SER34      -0.2180
     62  N        -61.7010  -68.9090   31.9940 N.3    37  GLY37      -0.1210
     63  CA       -62.1380  -69.7010   30.8630 C.3    37  GLY37       0.1956
     64  C        -61.0600  -69.8060   29.8050 C.2    37  GLY37       0.2611
     65  O        -60.8130  -70.8900   29.2820 O.2    37  GLY37      -0.2717
     66  N        -60.4030  -68.6910   29.4970 N.am   38  ILE38      -0.1979
     67  CA       -59.3150  -68.7080   28.5140 C.3    38  ILE38       0.1595
     68  C        -58.1690  -69.5840   29.0180 C.2    38  ILE38       0.2287
     69  O        -57.6580  -70.4040   28.2620 O.2    38  ILE38      -0.2864
     70  CB       -58.8340  -67.2900   28.1360 C.3    38  ILE38       0.0276
     71  CG1      -59.9280  -66.5840   27.3340 C.3    38  ILE38       0.0022
     72  CG2      -57.5540  -67.3460   27.3070 C.3    38  ILE38       0.0022
     73  CD1      -59.7650  -65.0840   27.2580 C.3    38  ILE38       0.0001
     74  N        -59.1220  -73.3040   28.5520 N.3    41  ILE41      -0.1245
     75  CA       -58.9810  -73.7150   27.1500 C.3    41  ILE41       0.1561
     76  C        -57.5030  -73.8000   26.7730 C.2    41  ILE41       0.2260
     77  O        -57.0920  -74.7240   26.0700 O.2    41  ILE41      -0.2867
     78  CB       -59.7180  -72.7530   26.1920 C.3    41  ILE41       0.0252
     79  CG1      -61.2300  -72.8540   26.4050 C.3    41  ILE41       0.0019
     80  CG2      -59.3840  -73.0590   24.7330 C.3    41  ILE41       0.0019
     81  CD1      -61.9790  -71.6090   25.9720 C.3    41  ILE41       0.0001
     82  N        -71.9620  -70.8930   35.5480 N.3   196  LEU196     -0.1245
     83  CA       -72.5380  -69.7800   34.7880 C.3   196  LEU196      0.1561
     84  C        -74.0360  -69.8880   34.6950 C.2   196  LEU196      0.2260
     85  O        -74.7270  -68.8780   34.7210 O.2   196  LEU196     -0.2867
     86  CB       -71.9520  -69.7330   33.3810 C.3   196  LEU196      0.0270
     87  CG       -70.4460  -69.4800   33.3820 C.3   196  LEU196      0.0019
     88  CD1      -69.8400  -69.9080   32.0540 C.3   196  LEU196      0.0001
     89  CD2      -70.1430  -68.0230   33.7050 C.3   196  LEU196      0.0001
     90  N        -75.1030  -68.2480   37.6280 N.3   199  LEU199     -0.1231
     91  CA       -74.8270  -66.8220   37.5130 C.3   199  LEU199      0.1693
     92  C        -75.8730  -66.0850   36.6740 C.2   199  LEU199      0.2592
     93  O        -76.2280  -64.9550   37.0040 O.2   199  LEU199     -0.2718
     94  CB       -73.4370  -66.5680   36.9300 C.3   199  LEU199      0.0284
     95  CG       -73.0380  -65.0870   36.8430 C.3   199  LEU199      0.0019
     96  CD1      -73.0000  -64.4280   38.2200 C.3   199  LEU199      0.0001
     97  CD2      -71.7040  -64.9450   36.1430 C.3   199  LEU199      0.0001
     98  N        -76.3640  -66.7160   35.6070 N.am  200  HIS200     -0.1976
     99  CA       -77.3430  -66.0720   34.7220 C.3   200  HIS200      0.1656
    100  C        -78.7590  -66.0020   35.2730 C.2   200  HIS200      0.2291
    101  O        -79.5970  -65.3510   34.6730 O.2   200  HIS200     -0.2864
    102  CB       -77.3300  -66.6980   33.3200 C.3   200  HIS200      0.0771
    103  CG       -76.0760  -66.4070   32.5530 C.ar  200  HIS200      0.0820
    104  ND1      -75.4340  -65.1870   32.6130 N.ar  200  HIS200     -0.2267
    105  CD2      -75.3420  -67.1740   31.7120 C.ar  200  HIS200      0.1154
    106  CE1      -74.3620  -65.2170   31.8450 C.ar  200  HIS200      0.1986
    107  NE2      -74.2800  -66.4110   31.2870 N.ar  200  HIS200     -0.2212
    108  N        -74.8260  -60.2510   37.0820 N.3   204  SER204     -0.1217
    109  CA       -73.6160  -59.9170   37.8080 C.3   204  SER204      0.1889
    110  C        -73.8750  -58.9020   38.9350 C.2   204  SER204      0.2288
    111  O        -74.7240  -58.0060   38.8220 O.2   204  SER204     -0.2866
    112  CB       -72.5590  -59.3850   36.8300 C.3   204  SER204      0.2089
    113  OG       -72.4960  -60.1890   35.6520 O.3   204  SER204     -0.2183
    114  N        -73.8860  -56.8540   26.8760 N.3   219  PHE219     -0.1241
    115  CA       -72.5310  -57.4000   26.9630 C.3   219  PHE219      0.1605
    116  C        -71.7190  -57.0980   25.6980 C.2   219  PHE219      0.2264
    117  O        -70.5470  -56.7530   25.7680 O.2   219  PHE219     -0.2867
    118  CB       -72.5890  -58.9070   27.2120 C.3   219  PHE219      0.0534
    119  CG       -71.2840  -59.4880   27.6220 C.ar  219  PHE219     -0.0203
    120  CD1      -70.4040  -59.9940   26.6700 C.ar  219  PHE219     -0.0042
    121  CD2      -70.9250  -59.5130   28.9540 C.ar  219  PHE219     -0.0042
    122  CE1      -69.1810  -60.5210   27.0450 C.ar  219  PHE219     -0.0003
    123  CE2      -69.7050  -60.0350   29.3390 C.ar  219  PHE219     -0.0003
    124  CZ       -68.8280  -60.5430   28.3870 C.ar  219  PHE219     -0.0000
    125  N        -67.4530  -57.4790   25.3710 N.3   224  THR224     -0.1218
    126  CA       -66.7050  -58.2910   24.4030 C.3   224  THR224      0.1862
    127  C        -65.3860  -57.5930   24.0700 C.2   224  THR224      0.2287
    128  O        -64.3490  -58.2440   24.0360 O.2   224  THR224     -0.2866
    129  CB       -67.4910  -58.6310   23.1110 C.3   224  THR224      0.1770
    130  OG1      -67.8280  -57.4400   22.3960 O.3   224  THR224     -0.2211
    131  CG2      -68.7520  -59.3990   23.4370 C.3   224  THR224      0.0375
    132  N        -63.0580  -57.8310   27.1750 N.3   227  ASP227     -0.1225
    133  CA       -62.5140  -59.1840   27.3250 C.3   227  ASP227      0.1805
    134  C        -61.4000  -59.4890   26.3050 C.2   227  ASP227      0.2597
    135  O        -60.4680  -60.2300   26.6180 O.2   227  ASP227     -0.2718
    136  CB       -63.6340  -60.2470   27.2820 C.3   227  ASP227      0.1424
    137  CG       -64.4760  -60.2990   28.5800 C.2   227  ASP227      0.3668
    138  OD1      -64.2910  -59.4510   29.4890 O.co2 227  ASP227     -0.2456
    139  OD2      -65.3410  -61.2020   28.6850 O.co2 227  ASP227     -0.2456
    140  N        -61.4920  -58.9140   25.1060 N.am  228  ILE228     -0.1980
    141  CA       -60.4080  -58.9890   24.1220 C.3   228  ILE228      0.1595
    142  C        -59.1530  -58.3330   24.6840 C.2   228  ILE228      0.2287
    143  O        -58.0630  -58.9050   24.6130 O.2   228  ILE228     -0.2864
    144  CB       -60.7960  -58.3270   22.7730 C.3   228  ILE228      0.0276
    145  CG1      -61.8240  -59.1930   22.0370 C.3   228  ILE228      0.0022
    146  CG2      -59.5760  -58.1300   21.8670 C.3   228  ILE228      0.0022
    147  CD1      -62.5420  -58.4860   20.9060 C.3   228  ILE228      0.0001
    148  N        -57.8160  -60.4980   27.5820 N.3   231  ALA231     -0.1245
    149  CA       -57.1260  -61.6640   27.0210 C.3   231  ALA231      0.1562
    150  C        -55.7550  -61.2800   26.4930 C.2   231  ALA231      0.2260
    151  O        -54.7820  -62.0110   26.6730 O.2   231  ALA231     -0.2867
    152  CB       -57.9520  -62.2950   25.9090 C.3   231  ALA231      0.0290
@<TRIPOS>BOND
     1   147   145    1
     2   146   144    1
     3   145   144    1
     4   130   129    1
     5   144   141    1
     6   129   131    1
     7   129   126    1
     8    13    15   ar
     9    13    11   ar
    10   128   127    2
    11    15    16   ar
    12   127   126    1
    13   141   142    1
    14   141   140    1
    15     9     8    2
    16   126   125    1
    17   143   142    2
    18     8     7    1
    19    80    78    1
    20    10    11    1
    21    10     7    1
    22    11    12   ar
    23   140   134   am
    24    16    14   ar
    25     7     6    1
    26   116   117    2
    27   116   115    1
    28   152   149    1
    29    81    79    1
    30     6     3   am
    31    77    76    2
    32    12    14   ar
    33    78    79    1
    34    78    75    1
    35   134   135    2
    36   134   133    1
    37   150   151    2
    38   150   149    1
    39     1     2    1
    40   120   122   ar
    41   120   119   ar
    42    76    75    1
    43    17    18    1
    44   114   115    1
    45   115   118    1
    46   149   148    1
    47   122   124   ar
    48    75    74    1
    49   132   133    1
    50     3     2    1
    51     3     4    2
    52   118   119    1
    53    73    71    1
    54   136   133    1
    55   136   137    1
    56    72    70    1
    57    71    70    1
    58     2     5    1
    59   119   121   ar
    60    70    67    1
    61    18    21    1
    62    18    19    1
    63    69    68    2
    64   124   123   ar
    65    20    19    2
    66    67    68    1
    67    67    66    1
    68   137   139   ar
    69   137   138   ar
    70    21    22    1
    71   121   123   ar
    72    65    64    2
    73    66    64   am
    74    64    63    1
    75    22    24    1
    76    22    23    1
    77    59    58    2
    78    60    61    1
    79    60    57    1
    80    63    62    1
    81    58    57    1
    82    57    56    1
    83   107   105   ar
    84   107   106   ar
    85    25    26    1
    86    29    26    1
    87   105   103   ar
    88   106   104   ar
    89    88    87    1
    90    26    27    1
    91    28    27    2
    92   103   104   ar
    93   103   102    1
    94    56    54   am
    95    55    54    2
    96   102    99    1
    97    86    87    1
    98    86    83    1
    99    87    89    1
   100    54    53    1
   101    37    35    1
   102    35    34    1
   103   101   100    2
   104    84    85    2
   105    84    83    1
   106    99   100    1
   107    99    98    1
   108    83    82    1
   109    41    40    2
   110    53    52    1
   111    33    32    2
   112    40    39    1
   113    98    92   am
   114   113   112    1
   115    30    31    1
   116    34    31    1
   117    34    36    1
   118    97    95    1
   119    32    31    1
   120    42    39    1
   121    42    43    1
   122    39    38    1
   123    92    93    2
   124    92    91    1
   125   112   109    1
   126    95    94    1
   127    95    96    1
   128    94    91    1
   129   108   109    1
   130    91    90    1
   131    43    44   ar
   132    43    45   ar
   133    44    46   ar
   134   109   110    1
   135    45    48   ar
   136    45    47   ar
   137    46    47   ar
   138   111   110    2
   139    48    50   ar
   140    47    49   ar
   141    50    51   ar
   142    49    51   ar
