@<TRIPOS>MOLECULE
tmp/5okdC11.pdb
 199 196 0 0 0
SMALL
GASTEIGER

@<TRIPOS>ATOM
      1  N        -61.8140  -56.1650   37.8600 N.3    29  TRP29      -0.1241
      2  CA       -61.8630  -57.3810   38.6700 C.3    29  TRP29       0.1605
      3  C        -62.9310  -58.3630   38.1810 C.2    29  TRP29       0.2264
      4  O        -62.9200  -59.5230   38.5910 O.2    29  TRP29      -0.2867
      5  CB       -62.0590  -57.0320   40.1540 C.3    29  TRP29       0.0550
      6  CG       -60.9750  -56.1240   40.6410 C.ar   29  TRP29       0.0003
      7  CD1      -61.0270  -54.7650   40.7560 C.ar   29  TRP29       0.0946
      8  CD2      -59.6550  -56.5050   41.0000 C.ar   29  TRP29       0.0152
      9  NE1      -59.8260  -54.2790   41.1910 N.ar   29  TRP29      -0.2442
     10  CE2      -58.9610  -55.3260   41.3490 C.ar   29  TRP29       0.0810
     11  CE3      -58.9890  -57.7330   41.0740 C.ar   29  TRP29       0.0012
     12  CZ2      -57.6300  -55.3390   41.7660 C.ar   29  TRP29       0.0191
     13  CZ3      -57.6780  -57.7500   41.4930 C.ar   29  TRP29       0.0001
     14  CH2      -57.0050  -56.5600   41.8330 C.ar   29  TRP29       0.0015
     15  N        -57.2100  -66.4840   42.2480 N.3    94  TYR94      -0.1227
     16  CA       -57.1740  -65.7860   43.5300 C.3    94  TYR94       0.1736
     17  C        -57.6550  -64.3510   43.4040 C.2    94  TYR94       0.2595
     18  O        -58.2400  -63.8200   44.3420 O.2    94  TYR94      -0.2718
     19  CB       -55.7740  -65.8310   44.1560 C.3    94  TYR94       0.0548
     20  CG       -55.2900  -67.2170   44.5380 C.ar   94  TYR94      -0.0200
     21  CD1      -56.1590  -68.1650   45.1010 C.ar   94  TYR94      -0.0009
     22  CD2      -53.9480  -67.5800   44.3680 C.ar   94  TYR94      -0.0009
     23  CE1      -55.7110  -69.4270   45.4550 C.ar   94  TYR94       0.0417
     24  CE2      -53.4910  -68.8450   44.7280 C.ar   94  TYR94       0.0417
     25  CZ       -54.3800  -69.7600   45.2720 C.ar   94  TYR94       0.1957
     26  OH       -53.9620  -71.0130   45.6350 O.3    94  TYR94      -0.2866
     27  N        -57.4230  -63.7340   42.2480 N.am   95  MET95      -0.1979
     28  CA       -57.9260  -62.3830   41.9700 C.3    95  MET95       0.1605
     29  C        -59.4540  -62.4250   41.8990 C.2    95  MET95       0.2287
     30  O        -60.1620  -61.5690   42.4600 O.2    95  MET95      -0.2864
     31  CB       -57.3840  -61.8720   40.6340 C.3    95  MET95       0.0413
     32  CG       -55.8700  -61.7950   40.5360 C.3    95  MET95       0.0598
     33  SD       -55.1860  -60.2330   41.0790 S.3    95  MET95      -0.1393
     34  CE       -53.4360  -60.6120   41.0450 C.3    95  MET95       0.0692
     35  N        -61.4980  -64.7220   43.2030 N.3    97  VAL97      -0.1231
     36  CA       -62.0660  -64.9940   44.5370 C.3    97  VAL97       0.1692
     37  C        -62.0070  -63.7510   45.4370 C.2    97  VAL97       0.2593
     38  O        -62.9680  -63.4390   46.1510 O.2    97  VAL97      -0.2718
     39  CB       -61.3470  -66.1910   45.2180 C.3    97  VAL97       0.0266
     40  CG1      -61.6970  -66.3140   46.7010 C.3    97  VAL97       0.0020
     41  CG2      -61.6970  -67.4790   44.4930 C.3    97  VAL97       0.0020
     42  N        -60.8710  -63.0630   45.4150 N.am   98  GLY98      -0.1942
     43  CA       -60.7000  -61.8380   46.1800 C.3    98  GLY98       0.2014
     44  C        -61.7490  -60.7990   45.8420 C.2    98  GLY98       0.2638
     45  O        -62.2780  -60.1350   46.7430 O.2    98  GLY98      -0.2714
     46  N        -62.0350  -60.6620   44.5430 N.am   99  ARG99      -0.1977
     47  CA       -63.1240  -59.8140   44.0550 C.3    99  ARG99       0.1597
     48  C        -64.4200  -60.2180   44.7340 C.2    99  ARG99       0.2287
     49  O        -65.1230  -59.3800   45.2970 O.2    99  ARG99      -0.2864
     50  CB       -63.2560  -59.9500   42.5360 C.3    99  ARG99       0.0334
     51  CG       -64.3200  -59.0780   41.8730 C.3    99  ARG99       0.0492
     52  CD       -65.7400  -59.6250   41.9790 C.3    99  ARG99       0.2205
     53  NE       -65.8440  -61.0420   41.6190 N.pl3  99  ARG99      -0.0865
     54  CZ       -66.0030  -61.5190   40.3790 C.cat  99  ARG99       0.5346
     55  NH1      -66.1060  -60.7130   39.3270 N.pl3  99  ARG99       0.1354
     56  NH2      -66.0840  -62.8350   40.1860 N.pl3  99  ARG99       0.1354
     57  N        -64.9000  -61.7990   47.5250 N.3   101  LEU101     -0.1231
     58  CA       -64.8750  -61.4850   48.9620 C.3   101  LEU101      0.1693
     59  C        -65.0940  -60.0000   49.2350 C.2   101  LEU101      0.2592
     60  O        -65.9380  -59.6420   50.0480 O.2   101  LEU101     -0.2718
     61  CB       -63.5450  -61.9180   49.5990 C.3   101  LEU101      0.0284
     62  CG       -63.2700  -63.4180   49.7400 C.3   101  LEU101      0.0019
     63  CD1      -61.8120  -63.6650   50.1140 C.3   101  LEU101      0.0001
     64  CD2      -64.2040  -64.0400   50.7690 C.3   101  LEU101      0.0001
     65  N        -64.3270  -59.1560   48.5480 N.am  102  TYR102     -0.1962
     66  CA       -64.3530  -57.7000   48.7480 C.3   102  TYR102      0.1771
     67  C        -65.7140  -57.0970   48.3980 C.2   102  TYR102      0.2619
     68  O        -66.2800  -56.3260   49.1760 O.2   102  TYR102     -0.2715
     69  CB       -63.2470  -57.0350   47.9110 C.3   102  TYR102      0.0574
     70  CG       -63.1120  -55.5350   48.0800 C.ar  102  TYR102     -0.0198
     71  CD1      -63.8050  -54.6680   47.2550 C.ar  102  TYR102     -0.0009
     72  CD2      -62.2750  -54.9880   49.0440 C.ar  102  TYR102     -0.0009
     73  CE1      -63.6900  -53.2920   47.3890 C.ar  102  TYR102      0.0417
     74  CE2      -62.1430  -53.6110   49.1860 C.ar  102  TYR102      0.0417
     75  CZ       -62.8570  -52.7650   48.3590 C.ar  102  TYR102      0.1957
     76  OH       -62.7480  -51.3990   48.4730 O.3   102  TYR102     -0.2866
     77  N        -66.2340  -57.4680   47.2340 N.am  103  TYR103     -0.1974
     78  CA       -67.5030  -56.9410   46.7460 C.3   103  TYR103      0.1639
     79  C        -68.7350  -57.7810   47.1240 C.2   103  TYR103      0.2290
     80  O        -69.8450  -57.4800   46.6820 O.2   103  TYR103     -0.2864
     81  CB       -67.4180  -56.7890   45.2390 C.3   103  TYR103      0.0560
     82  CG       -66.3890  -55.7870   44.8100 C.ar  103  TYR103     -0.0198
     83  CD1      -66.6100  -54.4350   45.0000 C.ar  103  TYR103     -0.0009
     84  CD2      -65.1960  -56.1850   44.2060 C.ar  103  TYR103     -0.0009
     85  CE1      -65.6780  -53.4900   44.6030 C.ar  103  TYR103      0.0417
     86  CE2      -64.2480  -55.2530   43.7980 C.ar  103  TYR103      0.0417
     87  CZ       -64.4870  -53.8990   43.9990 C.ar  103  TYR103      0.1957
     88  OH       -63.5590  -52.9620   43.5940 O.3   103  TYR103     -0.2866
     89  N        -69.2870  -53.2410   41.6500 N.3   207  PRO207     -0.2116
     90  CA       -68.5290  -52.6800   42.7790 C.3   207  PRO207      0.1372
     91  C        -69.2940  -51.9830   43.9130 C.2   207  PRO207      0.2244
     92  O        -68.8720  -52.0860   45.0660 O.2   207  PRO207     -0.2868
     93  CB       -67.5880  -51.6950   42.0970 C.3   207  PRO207      0.0268
     94  CG       -67.2770  -52.3790   40.8090 C.3   207  PRO207      0.0207
     95  CD       -68.5860  -52.9810   40.3750 C.3   207  PRO207      0.0892
     96  N        -49.2690  -71.0200   50.7500 N.3   275  PHE275     -0.1241
     97  CA       -50.0310  -70.4260   51.8520 C.3   275  PHE275      0.1605
     98  C        -50.6410  -71.5180   52.7390 C.2   275  PHE275      0.2264
     99  O        -50.5580  -71.4450   53.9620 O.2   275  PHE275     -0.2867
    100  CB       -51.1050  -69.4290   51.3450 C.3   275  PHE275      0.0534
    101  CG       -52.3920  -70.0750   50.8950 C.ar  275  PHE275     -0.0203
    102  CD1      -52.4940  -70.6710   49.6370 C.ar  275  PHE275     -0.0042
    103  CD2      -53.5030  -70.1030   51.7370 C.ar  275  PHE275     -0.0042
    104  CE1      -53.6740  -71.2770   49.2280 C.ar  275  PHE275     -0.0003
    105  CE2      -54.6850  -70.7060   51.3330 C.ar  275  PHE275     -0.0003
    106  CZ       -54.7680  -71.2950   50.0770 C.ar  275  PHE275     -0.0000
    107  N        -63.8770  -71.0400   52.6720 N.3   300  LEU300     -0.1245
    108  CA       -64.5600  -70.2840   51.6120 C.3   300  LEU300      0.1561
    109  C        -66.0600  -70.5650   51.5560 C.2   300  LEU300      0.2260
    110  O        -66.8430  -69.6450   51.3460 O.2   300  LEU300     -0.2867
    111  CB       -63.9340  -70.5490   50.2380 C.3   300  LEU300      0.0270
    112  CG       -62.5670  -69.9150   49.9600 C.3   300  LEU300      0.0019
    113  CD1      -62.0180  -70.4480   48.6490 C.3   300  LEU300      0.0001
    114  CD2      -62.6360  -68.3960   49.9250 C.3   300  LEU300      0.0001
    115  N        -66.9290  -51.3860   49.3830 N.3   315  MET315     -0.1245
    116  CA       -66.6970  -50.0430   48.8570 C.3   315  MET315      0.1570
    117  C        -66.9420  -48.9440   49.8930 C.2   315  MET315      0.2261
    118  O        -66.1310  -48.0280   50.0210 O.2   315  MET315     -0.2867
    119  CB       -67.5820  -49.7980   47.6260 C.3   315  MET315      0.0387
    120  CG       -67.3260  -48.4720   46.9220 C.3   315  MET315      0.0595
    121  SD       -68.3550  -48.2260   45.4680 S.3   315  MET315     -0.1393
    122  CE       -67.3170  -48.9440   44.1900 C.3   315  MET315      0.0692
    123  N        -62.3890  -52.8920   54.5700 N.3   321  GLN321     -0.1245
    124  CA       -61.3310  -52.6760   53.5760 C.3   321  GLN321      0.1566
    125  C        -59.9330  -52.9360   54.1340 C.2   321  GLN321      0.2260
    126  O        -59.1480  -53.6590   53.5270 O.2   321  GLN321     -0.2867
    127  CB       -61.3730  -51.2460   53.0270 C.3   321  GLN321      0.0367
    128  CG       -62.3920  -51.0010   51.9300 C.3   321  GLN321      0.0905
    129  CD       -61.8780  -50.0190   50.9000 C.2   321  GLN321      0.2608
    130  OE1      -60.7860  -50.2050   50.3380 O.2   321  GLN321     -0.2717
    131  NE2      -62.6630  -48.9830   50.6210 N.am  321  GLN321     -0.0878
    132  N        -59.5240  -56.5390   55.0510 N.3   324  PHE324     -0.1227
    133  CA       -59.3900  -57.2950   53.8060 C.3   324  PHE324      0.1736
    134  C        -57.9530  -57.2500   53.2980 C.2   324  PHE324      0.2595
    135  O        -57.3660  -58.2870   52.9950 O.2   324  PHE324     -0.2718
    136  CB       -60.3330  -56.7490   52.7310 C.3   324  PHE324      0.0547
    137  CG       -60.2040  -57.4430   51.4110 C.ar  324  PHE324     -0.0202
    138  CD1      -60.8520  -58.6460   51.1920 C.ar  324  PHE324     -0.0042
    139  CD2      -59.4190  -56.9040   50.3930 C.ar  324  PHE324     -0.0042
    140  CE1      -60.7350  -59.3010   49.9790 C.ar  324  PHE324     -0.0003
    141  CE2      -59.2930  -57.5560   49.1770 C.ar  324  PHE324     -0.0003
    142  CZ       -59.9580  -58.7570   48.9700 C.ar  324  PHE324     -0.0000
    143  N        -57.3960  -56.0470   53.2020 N.am  325  TRP325     -0.1976
    144  CA       -56.0160  -55.8830   52.7510 C.3   325  TRP325      0.1640
    145  C        -54.9980  -56.4730   53.7380 C.2   325  TRP325      0.2290
    146  O        -53.9250  -56.9160   53.3210 O.2   325  TRP325     -0.2864
    147  CB       -55.7190  -54.4150   52.4170 C.3   325  TRP325      0.0576
    148  CG       -56.4330  -53.9650   51.1700 C.ar  325  TRP325      0.0006
    149  CD1      -57.4000  -53.0060   51.0710 C.ar  325  TRP325      0.0946
    150  CD2      -56.2460  -54.4800   49.8500 C.ar  325  TRP325      0.0152
    151  NE1      -57.8210  -52.8860   49.7680 N.ar  325  TRP325     -0.2442
    152  CE2      -57.1270  -53.7800   48.9970 C.ar  325  TRP325      0.0810
    153  CE3      -55.4140  -55.4670   49.3020 C.ar  325  TRP325      0.0012
    154  CZ2      -57.1990  -54.0330   47.6220 C.ar  325  TRP325      0.0191
    155  CZ3      -55.4890  -55.7230   47.9320 C.ar  325  TRP325      0.0001
    156  CH2      -56.3790  -55.0090   47.1100 C.ar  325  TRP325      0.0015
    157  N        -55.8150  -59.2930   55.3930 N.3   327  LEU327     -0.1231
    158  CA       -55.9840  -60.7020   54.9840 C.3   327  LEU327      0.1693
    159  C        -55.1900  -61.0620   53.7190 C.2   327  LEU327      0.2591
    160  O        -54.6970  -62.1850   53.6050 O.2   327  LEU327     -0.2718
    161  CB       -57.4750  -61.0540   54.7990 C.3   327  LEU327      0.0284
    162  CG       -57.8650  -62.4170   54.2040 C.3   327  LEU327      0.0019
    163  CD1      -57.3640  -63.5580   55.0720 C.3   327  LEU327      0.0001
    164  CD2      -59.3710  -62.5060   54.0430 C.3   327  LEU327      0.0001
    165  N        -55.0710  -60.1210   52.7820 N.am  328  VAL328     -0.1980
    166  CA       -54.2800  -60.3450   51.5660 C.3   328  VAL328      0.1595
    167  C        -52.7950  -60.3500   51.9140 C.2   328  VAL328      0.2287
    168  O        -52.0690  -61.2760   51.5480 O.2   328  VAL328     -0.2864
    169  CB       -54.5700  -59.2890   50.4750 C.3   328  VAL328      0.0276
    170  CG1      -53.6630  -59.4920   49.2600 C.3   328  VAL328      0.0022
    171  CG2      -56.0380  -59.3550   50.0630 C.3   328  VAL328      0.0022
    172  N        -51.8700  -63.5510   53.5740 N.3   331  LEU331     -0.1245
    173  CA       -51.7040  -64.6390   52.6000 C.3   331  LEU331      0.1561
    174  C        -50.3710  -64.5500   51.8610 C.2   331  LEU331      0.2260
    175  O        -49.7570  -65.5730   51.5610 O.2   331  LEU331     -0.2867
    176  CB       -52.8550  -64.6590   51.5880 C.3   331  LEU331      0.0270
    177  CG       -54.1470  -65.3050   52.0880 C.3   331  LEU331      0.0019
    178  CD1      -55.3490  -64.8290   51.2760 C.3   331  LEU331      0.0001
    179  CD2      -54.0260  -66.8240   52.0560 C.3   331  LEU331      0.0001
    180  N        -54.9210  -65.4310   59.9150 N.3   357  TYR357     -0.1241
    181  CA       -55.7610  -65.8340   58.7840 C.3   357  TYR357      0.1605
    182  C        -57.1750  -66.2000   59.2400 C.2   357  TYR357      0.2264
    183  O        -58.1540  -65.6030   58.7860 O.2   357  TYR357     -0.2867
    184  CB       -55.1150  -67.0180   58.0520 C.3   357  TYR357      0.0534
    185  CG       -55.9170  -67.5870   56.8970 C.ar  357  TYR357     -0.0201
    186  CD1      -55.9660  -66.9310   55.6660 C.ar  357  TYR357     -0.0009
    187  CD2      -56.6070  -68.7970   57.0280 C.ar  357  TYR357     -0.0009
    188  CE1      -56.6930  -67.4520   54.6050 C.ar  357  TYR357      0.0417
    189  CE2      -57.3290  -69.3250   55.9730 C.ar  357  TYR357      0.0417
    190  CZ       -57.3700  -68.6480   54.7660 C.ar  357  TYR357      0.1957
    191  OH       -58.0860  -69.1650   53.7180 O.3   357  TYR357     -0.2866
    192  N        -61.0040  -63.9770   59.2370 N.3   361  ILE361     -0.1245
    193  CA       -62.2280  -64.4890   58.6150 C.3   361  ILE361      0.1561
    194  C        -63.3280  -64.7770   59.6460 C.2   361  ILE361      0.2260
    195  O        -64.4660  -64.3760   59.4400 O.2   361  ILE361     -0.2867
    196  CB       -61.9520  -65.7430   57.7430 C.3   361  ILE361      0.0252
    197  CG1      -61.0400  -65.3850   56.5520 C.3   361  ILE361      0.0019
    198  CG2      -63.2520  -66.3470   57.2210 C.3   361  ILE361      0.0019
    199  CD1      -60.3050  -66.5680   55.9400 C.3   361  ILE361      0.0001
@<TRIPOS>BOND
     1     1     2    1
     2     3     4    2
     3     3     2    1
     4     2     5    1
     5    55    54    1
     6     5     6    1
     7    56    54    1
     8    95    94    1
     9    95    89    1
    10    54    53    2
    11    32    31    1
    12    32    33    1
    13    31    28    1
    14     6     7   ar
    15     6     8   ar
    16     7     9   ar
    17    94    93    1
    18     8    11   ar
    19     8    10   ar
    20    34    33    1
    21    11    13   ar
    22     9    10   ar
    23    10    12   ar
    24    13    14   ar
    25    53    52    1
    26    89    90    1
    27    12    14   ar
    28    51    52    1
    29    51    50    1
    30    29    28    1
    31    29    30    2
    32    28    27    1
    33    93    90    1
    34    27    17   am
    35    15    16    1
    36    50    47    1
    37    90    91    1
    38    35    36    1
    39    17    16    1
    40    17    18    2
    41    16    19    1
    42    88    87    1
    43    86    87   ar
    44    86    84   ar
    45    91    92    2
    46    87    85   ar
    47    47    46    1
    48    47    48    1
    49    19    20    1
    50   122   121    1
    51    84    82   ar
    52    22    20   ar
    53    22    24   ar
    54    41    39    1
    55    36    39    1
    56    36    37    1
    57    20    21   ar
    58    46    44   am
    59    85    83   ar
    60    24    25   ar
    61    48    49    2
    62    82    83   ar
    63    82    81    1
    64    21    23   ar
    65    39    40    1
    66    81    78    1
    67    25    23   ar
    68    25    26    1
    69    42    37   am
    70    42    43    1
    71    37    38    2
    72   121   120    1
    73    44    43    1
    74    44    45    2
    75    80    79    2
    76    78    79    1
    77    78    77    1
    78   120   119    1
    79   156   154   ar
    80   156   155   ar
    81    77    67   am
    82    71    73   ar
    83    71    70   ar
    84    73    75   ar
    85    57    58    1
    86   154   152   ar
    87   119   116    1
    88    69    70    1
    89    69    66    1
    90   155   153   ar
    91    70    72   ar
    92    75    76    1
    93    75    74   ar
    94    67    66    1
    95    67    68    2
    96    65    66    1
    97    65    59   am
    98   113   112    1
    99   116   115    1
   100   116   117    1
   101    58    59    1
   102    58    61    1
   103   142   141   ar
   104   142   140   ar
   105   152   151   ar
   106   152   150   ar
   107    72    74   ar
   108   141   139   ar
   109   104   102   ar
   110   104   106   ar
   111    59    60    2
   112   170   169    1
   113   153   150   ar
   114    61    62    1
   115   102   101   ar
   116    62    63    1
   117    62    64    1
   118   151   149   ar
   119   150   148   ar
   120   117   118    2
   121   114   112    1
   122   112   111    1
   123   140   138   ar
   124   171   169    1
   125   106   105   ar
   126   111   108    1
   127   130   129    2
   128   139   137   ar
   129   169   166    1
   130   131   129   am
   131    96    97    1
   132   101   100    1
   133   101   103   ar
   134   129   128    1
   135   149   148   ar
   136   148   147    1
   137   138   137   ar
   138   178   177    1
   139   105   103   ar
   140   100    97    1
   141   110   109    2
   142   137   136    1
   143   168   167    2
   144   109   108    1
   145   175   174    2
   146   166   167    1
   147   166   165    1
   148   176   177    1
   149   176   173    1
   150   108   107    1
   151    97    98    1
   152   174   173    1
   153   128   127    1
   154   179   177    1
   155   147   144    1
   156   173   172    1
   157   136   133    1
   158    98    99    2
   159   144   143    1
   160   144   145    1
   161   165   159   am
   162   135   134    2
   163   127   124    1
   164   143   134   am
   165   134   133    1
   166   146   145    2
   167   126   125    2
   168   124   125    1
   169   124   123    1
   170   160   159    2
   171   191   190    1
   172   159   158    1
   173   133   132    1
   174   164   162    1
   175   162   161    1
   176   162   163    1
   177   188   190   ar
   178   188   186   ar
   179   190   189   ar
   180   161   158    1
   181   158   157    1
   182   186   185   ar
   183   199   197    1
   184   189   187   ar
   185   197   196    1
   186   185   187   ar
   187   185   184    1
   188   198   196    1
   189   196   193    1
   190   184   181    1
   191   193   192    1
   192   193   194    1
   193   181   182    1
   194   181   180    1
   195   183   182    2
   196   195   194    2
