@<TRIPOS>MOLECULE
tmp/5okdE01.pdb
 84 83 0 0 0
SMALL
GASTEIGER

@<TRIPOS>ATOM
      1  N        -52.4590  -57.3820   12.7680 N.3    46  GLY46      -0.1210
      2  CA       -51.6370  -57.8150   13.9010 C.3    46  GLY46       0.1956
      3  C        -52.0630  -59.1590   14.4760 C.2    46  GLY46       0.2611
      4  O        -51.2280  -60.0380   14.6820 O.2    46  GLY46      -0.2717
      5  N        -53.3610  -59.3180   14.7220 N.am   47  VAL47      -0.1979
      6  CA       -53.9020  -60.5660   15.2670 C.3    47  VAL47       0.1595
      7  C        -53.7150  -61.7120   14.2680 C.2    47  VAL47       0.2287
      8  O        -53.4550  -62.8460   14.6650 O.2    47  VAL47      -0.2864
      9  CB       -55.3970  -60.4280   15.6670 C.3    47  VAL47       0.0276
     10  CG1      -56.0040  -61.7740   16.0580 C.3    47  VAL47       0.0022
     11  CG2      -55.5560  -59.4490   16.8230 C.3    47  VAL47       0.0022
     12  N        -51.2620  -61.9510   11.9950 N.3    49  TYR49      -0.1227
     13  CA       -49.8430  -62.3040   12.0800 C.3    49  TYR49       0.1736
     14  C        -49.5850  -63.2430   13.2490 C.2    49  TYR49       0.2595
     15  O        -48.8450  -64.2190   13.1120 O.2    49  TYR49      -0.2718
     16  CB       -48.9570  -61.0610   12.2170 C.3    49  TYR49       0.0548
     17  CG       -47.5100  -61.3920   12.5180 C.ar   49  TYR49      -0.0200
     18  CD1      -46.6700  -61.9130   11.5300 C.ar   49  TYR49      -0.0009
     19  CD2      -46.9890  -61.2090   13.7940 C.ar   49  TYR49      -0.0009
     20  CE1      -45.3500  -62.2310   11.8060 C.ar   49  TYR49       0.0417
     21  CE2      -45.6710  -61.5130   14.0790 C.ar   49  TYR49       0.0417
     22  CZ       -44.8520  -62.0280   13.0870 C.ar   49  TYR49       0.1957
     23  OH       -43.5390  -62.3330   13.3890 O.3    49  TYR49      -0.2866
     24  N        -50.2050  -62.9440   14.3860 N.am   50  ALA50      -0.1966
     25  CA       -50.0380  -63.7510   15.5780 C.3    50  ALA50       0.1728
     26  C        -50.6190  -65.1400   15.3710 C.2    50  ALA50       0.2616
     27  O        -49.8920  -66.1270   15.4080 O.2    50  ALA50      -0.2715
     28  CB       -50.6800  -63.0710   16.7730 C.3    50  ALA50       0.0334
     29  N        -51.9180  -65.2050   15.1020 N.am   51  ALA51      -0.1963
     30  CA       -52.6400  -66.4850   15.0150 C.3    51  ALA51       0.1728
     31  C        -52.0440  -67.4360   13.9800 C.2    51  ALA51       0.2616
     32  O        -52.0430  -68.6490   14.1770 O.2    51  ALA51      -0.2715
     33  CB       -54.1180  -66.2490   14.7240 C.3    51  ALA51       0.0334
     34  N        -51.5490  -66.8740   12.8820 N.am   52  LYS52      -0.1963
     35  CA       -50.8210  -67.6370   11.8740 C.3    52  LYS52       0.1728
     36  C        -49.6300  -68.3550   12.4870 C.2    52  LYS52       0.2616
     37  O        -49.4720  -69.5610   12.3150 O.2    52  LYS52      -0.2715
     38  CB       -50.3270  -66.7060   10.7710 C.3    52  LYS52       0.0311
     39  CG       -49.5180  -67.3890    9.6870 C.3    52  LYS52       0.0038
     40  CD       -49.1500  -66.3890    8.6130 C.3    52  LYS52       0.0206
     41  CE       -48.5210  -67.0730    7.4160 C.3    52  LYS52       0.1093
     42  NZ       -47.2280  -67.7200    7.7680 N.3    52  LYS52      -0.1314
     43  N        -48.7950  -67.5960   13.1920 N.am   53  ASN53      -0.1958
     44  CA       -47.6400  -68.1540   13.8820 C.3    53  ASN53       0.1819
     45  C        -47.9950  -69.1630   14.9650 C.2    53  ASN53       0.2621
     46  O        -47.3620  -70.2090   15.0530 O.2    53  ASN53      -0.2715
     47  CB       -46.7820  -67.0420   14.4740 C.3    53  ASN53       0.1195
     48  CG       -45.8620  -66.4250   13.4480 C.2    53  ASN53       0.2630
     49  OD1      -44.8910  -67.0510   13.0280 O.2    53  ASN53      -0.2716
     50  ND2      -46.1650  -65.2020   13.0280 N.am   53  ASN53      -0.0877
     51  N        -49.0200  -68.8650   15.7620 N.am   54  VAL54      -0.1963
     52  CA       -49.4140  -69.7480   16.8690 C.3    54  VAL54       0.1727
     53  C        -49.9020  -71.0770   16.3150 C.2    54  VAL54       0.2616
     54  O        -49.4000  -72.1280   16.7030 O.2    54  VAL54      -0.2715
     55  CB       -50.5270  -69.1550   17.7610 C.3    54  VAL54       0.0290
     56  CG1      -50.8440  -70.0910   18.9290 C.3    54  VAL54       0.0023
     57  CG2      -50.1250  -67.7900   18.2920 C.3    54  VAL54       0.0023
     58  N        -50.8640  -71.0160   15.3970 N.am   55  VAL55      -0.1977
     59  CA       -51.4490  -72.2210   14.8010 C.3    55  VAL55       0.1596
     60  C        -50.3580  -73.0170   14.0960 C.2    55  VAL55       0.2287
     61  O        -50.2500  -74.2270   14.2880 O.2    55  VAL55      -0.2864
     62  CB       -52.6060  -71.9000   13.8140 C.3    55  VAL55       0.0276
     63  CG1      -53.0800  -73.1540   13.0870 C.3    55  VAL55       0.0022
     64  CG2      -53.7840  -71.2660   14.5420 C.3    55  VAL55       0.0022
     65  N        -47.1340  -73.1790   14.5530 N.3    57  GLN57      -0.1231
     66  CA       -46.2920  -73.8930   15.5220 C.3    57  GLN57       0.1698
     67  C        -46.9540  -75.1520   16.0590 C.2    57  GLN57       0.2592
     68  O        -46.3500  -76.2220   16.0500 O.2    57  GLN57      -0.2718
     69  CB       -45.9260  -72.9910   16.6890 C.3    57  GLN57       0.0381
     70  CG       -44.9190  -71.9370   16.2990 C.3    57  GLN57       0.0905
     71  CD       -44.5890  -70.9650   17.4060 C.2    57  GLN57       0.2608
     72  OE1      -44.0100  -69.9260   17.1440 O.2    57  GLN57      -0.2717
     73  NE2      -44.9440  -71.2920   18.6390 N.am   57  GLN57      -0.0878
     74  N        -48.1890  -75.0200   16.5330 N.am   58  PHE58      -0.1976
     75  CA       -48.9510  -76.1700   17.0170 C.3    58  PHE58       0.1639
     76  C        -49.0320  -77.2700   15.9680 C.2    58  PHE58       0.2290
     77  O        -48.8990  -78.4430   16.3000 O.2    58  PHE58      -0.2864
     78  CB       -50.3560  -75.7590   17.4600 C.3    58  PHE58       0.0560
     79  CG       -50.4330  -75.3470   18.8970 C.ar   58  PHE58      -0.0200
     80  CD1      -50.5070  -76.3090   19.8900 C.ar   58  PHE58      -0.0042
     81  CD2      -50.4320  -74.0090   19.2630 C.ar   58  PHE58      -0.0042
     82  CE1      -50.5800  -75.9490   21.2270 C.ar   58  PHE58      -0.0003
     83  CE2      -50.5040  -73.6370   20.5950 C.ar   58  PHE58      -0.0003
     84  CZ       -50.5760  -74.6090   21.5820 C.ar   58  PHE58      -0.0000
@<TRIPOS>BOND
     1    41    42    1
     2    41    40    1
     3    40    39    1
     4    39    38    1
     5    38    35    1
     6    18    20   ar
     7    18    17   ar
     8    20    22   ar
     9    35    36    1
    10    35    34    1
    11    12    13    1
    12    13    16    1
    13    13    14    1
    14    16    17    1
    15    37    36    2
    16    36    43   am
    17    17    19   ar
    18     1     2    1
    19    34    31   am
    20    49    48    2
    21    50    48   am
    22    63    62    1
    23    22    23    1
    24    22    21   ar
    25    15    14    2
    26    43    44    1
    27    14    24   am
    28    48    47    1
    29    19    21   ar
    30    62    64    1
    31    62    59    1
    32    44    47    1
    33    44    45    1
    34     2     3    1
    35    31    32    2
    36    31    30    1
    37    60    61    2
    38    60    59    1
    39     7     8    2
    40     7     6    1
    41    24    25    1
    42     3     4    2
    43     3     5   am
    44    65    66    1
    45     5     6    1
    46    33    30    1
    47    59    58    1
    48    45    46    2
    49    45    51   am
    50    30    29    1
    51    29    26   am
    52     6     9    1
    53    26    27    2
    54    26    25    1
    55    58    53   am
    56    66    67    1
    57    66    69    1
    58    25    28    1
    59     9    10    1
    60     9    11    1
    61    51    52    1
    62    76    77    2
    63    76    75    1
    64    68    67    2
    65    67    74   am
    66    70    69    1
    67    70    71    1
    68    53    54    2
    69    53    52    1
    70    74    75    1
    71    52    55    1
    72    75    78    1
    73    72    71    2
    74    71    73   am
    75    78    79    1
    76    55    57    1
    77    55    56    1
    78    79    81   ar
    79    79    80   ar
    80    81    83   ar
    81    80    82   ar
    82    83    84   ar
    83    82    84   ar
