@<TRIPOS>MOLECULE
tmp/5okdC09.pdb
 125 121 0 0 0
SMALL
GASTEIGER

@<TRIPOS>ATOM
      1  N        -56.6040  -79.9390   42.5240 N.3   124  ALA124     -0.1245
      2  CA       -56.3760  -81.3710   42.3010 C.3   124  ALA124      0.1562
      3  C        -55.6890  -81.6160   40.9590 C.2   124  ALA124      0.2260
      4  O        -54.7360  -82.3970   40.8750 O.2   124  ALA124     -0.2867
      5  CB       -57.6840  -82.1420   42.3730 C.3   124  ALA124      0.0290
      6  N        -51.9960  -80.1700   41.1360 N.3   127  PHE127     -0.1227
      7  CA       -51.1700  -81.0020   42.0140 C.3   127  PHE127      0.1736
      8  C        -50.6550  -82.2300   41.2640 C.2   127  PHE127      0.2595
      9  O        -49.4650  -82.5350   41.3200 O.2   127  PHE127     -0.2718
     10  CB       -51.9530  -81.4330   43.2580 C.3   127  PHE127      0.0547
     11  CG       -51.2070  -82.3880   44.1470 C.ar  127  PHE127     -0.0202
     12  CD1      -50.1390  -81.9470   44.9240 C.ar  127  PHE127     -0.0042
     13  CD2      -51.5680  -83.7290   44.2100 C.ar  127  PHE127     -0.0042
     14  CE1      -49.4480  -82.8240   45.7470 C.ar  127  PHE127     -0.0003
     15  CE2      -50.8810  -84.6130   45.0310 C.ar  127  PHE127     -0.0003
     16  CZ       -49.8210  -84.1590   45.8020 C.ar  127  PHE127     -0.0000
     17  N        -51.5640  -82.9160   40.5680 N.am  128  MET128     -0.1979
     18  CA       -51.2340  -84.1160   39.7800 C.3   128  MET128      0.1605
     19  C        -50.4560  -83.8230   38.4950 C.2   128  MET128      0.2287
     20  O        -49.7550  -84.6950   37.9880 O.2   128  MET128     -0.2864
     21  CB       -52.5050  -84.9050   39.4450 C.3   128  MET128      0.0413
     22  CG       -53.1270  -85.5770   40.6570 C.3   128  MET128      0.0598
     23  SD       -54.5440  -86.6110   40.2530 S.3   128  MET128     -0.1393
     24  CE       -55.7910  -85.3590   39.9330 C.3   128  MET128      0.0692
     25  N        -47.3040  -84.9640   50.5560 N.3   145  ILE145     -0.1231
     26  CA       -48.6650  -84.4260   50.5500 C.3   145  ILE145      0.1692
     27  C        -49.7040  -85.5470   50.5780 C.2   145  ILE145      0.2592
     28  O        -50.6490  -85.4850   51.3580 O.2   145  ILE145     -0.2718
     29  CB       -48.9010  -83.4870   49.3380 C.3   145  ILE145      0.0266
     30  CG1      -47.9980  -82.2360   49.4260 C.3   145  ILE145      0.0019
     31  CG2      -50.3760  -83.0920   49.2100 C.3   145  ILE145      0.0020
     32  CD1      -48.3140  -81.2630   50.5500 C.3   145  ILE145      0.0001
     33  N        -49.5320  -86.5580   49.7320 N.am  146  THR146     -0.1953
     34  CA       -50.4230  -87.7200   49.7410 C.3   146  THR146      0.1897
     35  C        -50.4250  -88.3920   51.1160 C.2   146  THR146      0.2313
     36  O        -51.4840  -88.6520   51.6900 O.2   146  THR146     -0.2863
     37  CB       -50.0050  -88.7690   48.6890 C.3   146  THR146      0.1794
     38  OG1      -49.7130  -88.1260   47.4460 O.3   146  THR146     -0.2208
     39  CG2      -51.1140  -89.7830   48.4630 C.3   146  THR146      0.0378
     40  N        -49.9460  -87.3250   53.9960 N.3   148  LEU148     -0.1231
     41  CA       -50.7480  -86.6320   55.0080 C.3   148  LEU148      0.1693
     42  C        -52.0340  -87.3880   55.3890 C.2   148  LEU148      0.2591
     43  O        -52.4500  -87.3330   56.5440 O.2   148  LEU148     -0.2718
     44  CB       -51.1260  -85.2210   54.5350 C.3   148  LEU148      0.0284
     45  CG       -50.0320  -84.1680   54.3190 C.3   148  LEU148      0.0019
     46  CD1      -50.6830  -82.8420   53.9470 C.3   148  LEU148      0.0001
     47  CD2      -49.1290  -84.0170   55.5390 C.3   148  LEU148      0.0001
     48  N        -52.6530  -88.0810   54.4290 N.am  149  LEU149     -0.1980
     49  CA       -53.8870  -88.8450   54.6910 C.3   149  LEU149      0.1596
     50  C        -53.7260  -90.0440   55.6300 C.2   149  LEU149      0.2287
     51  O        -54.7230  -90.5510   56.1440 O.2   149  LEU149     -0.2864
     52  CB       -54.5550  -89.3020   53.3870 C.3   149  LEU149      0.0297
     53  CG       -55.5690  -88.3060   52.8300 C.3   149  LEU149      0.0022
     54  CD1      -54.8670  -87.0380   52.3750 C.3   149  LEU149      0.0001
     55  CD2      -56.3530  -88.9360   51.6900 C.3   149  LEU149      0.0001
     56  N        -53.8830  -97.0890   48.7480 N.3   162  TRP162     -0.1227
     57  CA       -54.8830  -97.2620   47.6890 C.3   162  TRP162      0.1737
     58  C        -54.7910  -96.1620   46.6170 C.2   162  TRP162      0.2595
     59  O        -54.9620  -96.4530   45.4340 O.2   162  TRP162     -0.2718
     60  CB       -56.2880  -97.3260   48.3010 C.3   162  TRP162      0.0564
     61  CG       -57.3650  -97.5690   47.3130 C.ar  162  TRP162      0.0003
     62  CD1      -57.6840  -98.7510   46.7190 C.ar  162  TRP162      0.0946
     63  CD2      -58.2720  -96.5980   46.7980 C.ar  162  TRP162      0.0152
     64  NE1      -58.7360  -98.5760   45.8600 N.ar  162  TRP162     -0.2442
     65  CE2      -59.1180  -97.2600   45.8880 C.ar  162  TRP162      0.0810
     66  CE3      -58.4520  -95.2250   47.0150 C.ar  162  TRP162      0.0012
     67  CZ2      -60.1350  -96.5970   45.1940 C.ar  162  TRP162      0.0191
     68  CZ3      -59.4630  -94.5630   46.3240 C.ar  162  TRP162      0.0001
     69  CH2      -60.2910  -95.2510   45.4260 C.ar  162  TRP162      0.0015
     70  N        -54.5240  -94.9180   47.0270 N.am  163  ILE163     -0.1980
     71  CA       -54.2210  -93.8350   46.0740 C.3   163  ILE163      0.1595
     72  C        -52.9740  -94.2050   45.2830 C.2   163  ILE163      0.2287
     73  O        -52.9470  -94.0700   44.0670 O.2   163  ILE163     -0.2864
     74  CB       -53.9150  -92.4550   46.7330 C.3   163  ILE163      0.0276
     75  CG1      -54.9970  -92.0050   47.7240 C.3   163  ILE163      0.0022
     76  CG2      -53.7110  -91.3810   45.6610 C.3   163  ILE163      0.0022
     77  CD1      -56.4040  -92.0630   47.1920 C.3   163  ILE163      0.0001
     78  N        -51.8370  -93.4490   36.8070 N.3   176  ARG176     -0.1231
     79  CA       -53.1850  -92.9710   37.1640 C.3   176  ARG176      0.1694
     80  C        -53.2500  -91.4590   37.3420 C.2   176  ARG176      0.2592
     81  O        -54.2670  -90.8510   37.0340 O.2   176  ARG176     -0.2718
     82  CB       -53.7420  -93.6760   38.4060 C.3   176  ARG176      0.0321
     83  CG       -53.1240  -93.2690   39.7320 C.3   176  ARG176      0.0489
     84  CD       -53.6440  -94.1350   40.8610 C.3   176  ARG176      0.2205
     85  NE       -53.3660  -95.5500   40.6350 N.pl3 176  ARG176     -0.0865
     86  CZ       -53.7670  -96.5430   41.4250 C.cat 176  ARG176      0.5346
     87  NH1      -54.4590  -96.3000   42.5380 N.pl3 176  ARG176      0.1354
     88  NH2      -53.4540  -97.7970   41.0970 N.pl3 176  ARG176      0.1354
     89  N        -52.1760  -90.8600   37.8400 N.am  177  PHE177     -0.1976
     90  CA       -52.0830  -89.4030   37.9080 C.3   177  PHE177      0.1639
     91  C        -52.1560  -88.7800   36.5190 C.2   177  PHE177      0.2290
     92  O        -52.7120  -87.7040   36.3800 O.2   177  PHE177     -0.2864
     93  CB       -50.8090  -88.9470   38.6410 C.3   177  PHE177      0.0560
     94  CG       -50.9570  -88.8430   40.1410 C.ar  177  PHE177     -0.0200
     95  CD1      -51.8430  -89.6620   40.8550 C.ar  177  PHE177     -0.0042
     96  CD2      -50.1800  -87.9370   40.8530 C.ar  177  PHE177     -0.0042
     97  CE1      -51.9580  -89.5570   42.2340 C.ar  177  PHE177     -0.0003
     98  CE2      -50.2910  -87.8300   42.2340 C.ar  177  PHE177     -0.0003
     99  CZ       -51.1790  -88.6410   42.9250 C.ar  177  PHE177     -0.0000
    100  N        -56.1190  -89.2460   35.5550 N.3   180  PHE180     -0.1241
    101  CA       -56.9660  -88.2970   36.3020 C.3   180  PHE180      0.1605
    102  C        -56.7170  -86.8550   35.8880 C.2   180  PHE180      0.2264
    103  O        -57.6400  -86.0480   35.8120 O.2   180  PHE180     -0.2867
    104  CB       -56.7430  -88.4160   37.8130 C.3   180  PHE180      0.0534
    105  CG       -57.2820  -89.6810   38.4130 C.ar  180  PHE180     -0.0203
    106  CD1      -58.6040  -90.0620   38.2060 C.ar  180  PHE180     -0.0042
    107  CD2      -56.4770  -90.4810   39.2160 C.ar  180  PHE180     -0.0042
    108  CE1      -59.1050  -91.2280   38.7670 C.ar  180  PHE180     -0.0003
    109  CE2      -56.9700  -91.6490   39.7810 C.ar  180  PHE180     -0.0003
    110  CZ       -58.2890  -92.0220   39.5580 C.ar  180  PHE180     -0.0000
    111  N        -53.5000  -81.3390   58.9820 N.3   290  VAL290     -0.1245
    112  CA       -54.2970  -81.6850   57.7890 C.3   290  VAL290      0.1561
    113  C        -55.6990  -81.0610   57.8540 C.2   290  VAL290      0.2260
    114  O        -56.1920  -80.5310   56.8560 O.2   290  VAL290     -0.2867
    115  CB       -54.3900  -83.2200   57.5870 C.3   290  VAL290      0.0252
    116  CG1      -55.3660  -83.5900   56.4720 C.3   290  VAL290      0.0019
    117  CG2      -53.0190  -83.7750   57.2640 C.3   290  VAL290      0.0019
    118  N        -55.1780  -77.3780   57.0980 N.3   293  LEU293     -0.1245
    119  CA       -54.9650  -77.2540   55.6390 C.3   293  LEU293      0.1561
    120  C        -56.2730  -77.4170   54.8710 C.2   293  LEU293      0.2260
    121  O        -56.5180  -76.7010   53.9030 O.2   293  LEU293     -0.2867
    122  CB       -53.9420  -78.2920   55.1350 C.3   293  LEU293      0.0270
    123  CG       -53.8850  -78.6540   53.6370 C.3   293  LEU293      0.0019
    124  CD1      -53.5490  -77.4550   52.7640 C.3   293  LEU293      0.0001
    125  CD2      -52.8730  -79.7650   53.3980 C.3   293  LEU293      0.0001
@<TRIPOS>BOND
     1   100   101    1
     2   103   102    2
     3   102   101    1
     4   101   104    1
     5    92    91    2
     6    91    90    1
     7    78    79    1
     8    81    80    2
     9    79    80    1
    10    79    82    1
    11    80    89   am
    12   104   105    1
    13    89    90    1
    14    90    93    1
    15    20    19    2
    16   106   105   ar
    17   106   108   ar
    18    82    83    1
    19   105   107   ar
    20    19    18    1
    21    93    94    1
    22   108   110   ar
    23   107   109   ar
    24    21    18    1
    25    21    22    1
    26   110   109   ar
    27    83    84    1
    28    18    17    1
    29    24    23    1
    30    94    96   ar
    31    94    95   ar
    32    23    22    1
    33    17     8   am
    34    85    84    1
    35    85    86    2
    36    96    98   ar
    37    95    97   ar
    38     4     3    2
    39     3     2    1
    40    88    86    1
    41     6     7    1
    42     8     9    2
    43     8     7    1
    44    86    87    1
    45     7    10    1
    46    97    99   ar
    47    98    99   ar
    48     2     5    1
    49     2     1    1
    50    10    11    1
    51    73    72    2
    52    11    13   ar
    53    11    12   ar
    54    13    15   ar
    55    12    14   ar
    56    15    16   ar
    57    67    69   ar
    58    67    65   ar
    59    72    71    1
    60    69    68   ar
    61    59    58    2
    62    76    74    1
    63    14    16   ar
    64    64    65   ar
    65    64    62   ar
    66    65    63   ar
    67    71    74    1
    68    71    70    1
    69    68    66   ar
    70    58    70   am
    71    58    57    1
    72    62    61   ar
    73    74    75    1
    74    63    66   ar
    75    63    61   ar
    76    77    75    1
    77    61    60    1
    78    38    37    1
    79    57    60    1
    80    57    56    1
    81    39    37    1
    82    37    34    1
    83    31    29    1
    84    29    30    1
    85    29    26    1
    86    30    32    1
    87    33    34    1
    88    33    27   am
    89    34    35    1
    90    26    25    1
    91    26    27    1
    92    27    28    2
    93    35    36    2
    94    55    53    1
    95    54    53    1
    96   124   123    1
    97    53    52    1
    98    52    49    1
    99   125   123    1
   100   123   122    1
   101   121   120    2
   102    46    45    1
   103    40    41    1
   104    45    44    1
   105    45    47    1
   106    48    49    1
   107    48    42   am
   108    44    41    1
   109    49    50    1
   110   120   119    1
   111    41    42    1
   112   122   119    1
   113    42    43    2
   114    50    51    2
   115   119   118    1
   116   116   115    1
   117   114   113    2
   118   117   115    1
   119   115   112    1
   120   112   113    1
   121   112   111    1
