@<TRIPOS>MOLECULE
tmp/5okdC08.pdb
 106 100 0 0 0
SMALL
GASTEIGER

@<TRIPOS>ATOM
      1  N        -61.1960  -76.2010   44.0930 N.3   120  LEU120     -0.1231
      2  CA       -60.6980  -77.4890   44.5670 C.3   120  LEU120      0.1693
      3  C        -60.3010  -78.4250   43.4280 C.2   120  LEU120      0.2592
      4  O        -59.3260  -79.1570   43.5570 O.2   120  LEU120     -0.2718
      5  CB       -61.7320  -78.1810   45.4620 C.3   120  LEU120      0.0284
      6  CG       -61.9580  -77.5470   46.8400 C.3   120  LEU120      0.0019
      7  CD1      -63.2940  -78.0000   47.4100 C.3   120  LEU120      0.0001
      8  CD2      -60.8240  -77.8740   47.8070 C.3   120  LEU120      0.0001
      9  N        -61.0460  -78.4030   42.3240 N.am  121  THR121     -0.1953
     10  CA       -60.7620  -79.2840   41.1940 C.3   121  THR121      0.1897
     11  C        -59.5210  -78.8350   40.4190 C.2   121  THR121      0.2313
     12  O        -58.7230  -79.6690   39.9880 O.2   121  THR121     -0.2863
     13  CB       -61.9470  -79.3750   40.2140 C.3   121  THR121      0.1794
     14  OG1      -63.1860  -79.2970   40.9230 O.3   121  THR121     -0.2208
     15  CG2      -61.8900  -80.6790   39.4440 C.3   121  THR121      0.0378
     16  N        -57.0830  -77.1890   41.7290 N.3   123  MET123     -0.1230
     17  CA       -56.0090  -77.5860   42.6460 C.3   123  MET123      0.1702
     18  C        -55.6200  -79.0470   42.4460 C.2   123  MET123      0.2592
     19  O        -54.4500  -79.3520   42.2070 O.2   123  MET123     -0.2718
     20  CB       -56.4030  -77.3370   44.1060 C.3   123  MET123      0.0401
     21  CG       -56.3990  -75.8680   44.4960 C.3   123  MET123      0.0596
     22  SD       -56.9740  -75.5900   46.1810 S.3   123  MET123     -0.1393
     23  CE       -56.1160  -74.0650   46.5680 C.3   123  MET123      0.0692
     24  N        -56.6040  -79.9390   42.5240 N.am  124  ALA124     -0.1980
     25  CA       -56.3760  -81.3710   42.3010 C.3   124  ALA124      0.1597
     26  C        -55.6890  -81.6160   40.9590 C.2   124  ALA124      0.2287
     27  O        -54.7360  -82.3970   40.8750 O.2   124  ALA124     -0.2864
     28  CB       -57.6840  -82.1420   42.3730 C.3   124  ALA124      0.0319
     29  N        -51.9960  -80.1700   41.1360 N.3   127  PHE127     -0.1241
     30  CA       -51.1700  -81.0020   42.0140 C.3   127  PHE127      0.1605
     31  C        -50.6550  -82.2300   41.2640 C.2   127  PHE127      0.2264
     32  O        -49.4650  -82.5350   41.3200 O.2   127  PHE127     -0.2867
     33  CB       -51.9530  -81.4330   43.2580 C.3   127  PHE127      0.0534
     34  CG       -51.2070  -82.3880   44.1470 C.ar  127  PHE127     -0.0203
     35  CD1      -50.1390  -81.9470   44.9240 C.ar  127  PHE127     -0.0042
     36  CD2      -51.5680  -83.7290   44.2100 C.ar  127  PHE127     -0.0042
     37  CE1      -49.4480  -82.8240   45.7470 C.ar  127  PHE127     -0.0003
     38  CE2      -50.8810  -84.6130   45.0310 C.ar  127  PHE127     -0.0003
     39  CZ       -49.8210  -84.1590   45.8020 C.ar  127  PHE127     -0.0000
     40  N        -47.3040  -84.9640   50.5560 N.3   145  ILE145     -0.1245
     41  CA       -48.6650  -84.4260   50.5500 C.3   145  ILE145      0.1561
     42  C        -49.7040  -85.5470   50.5780 C.2   145  ILE145      0.2260
     43  O        -50.6490  -85.4850   51.3580 O.2   145  ILE145     -0.2867
     44  CB       -48.9010  -83.4870   49.3380 C.3   145  ILE145      0.0252
     45  CG1      -47.9980  -82.2360   49.4260 C.3   145  ILE145      0.0019
     46  CG2      -50.3760  -83.0920   49.2100 C.3   145  ILE145      0.0019
     47  CD1      -48.3140  -81.2630   50.5500 C.3   145  ILE145      0.0001
     48  N        -59.8490  -84.5350   34.4070 N.3   184  LEU184     -0.1245
     49  CA       -60.4040  -83.4970   35.3110 C.3   184  LEU184      0.1561
     50  C        -60.7350  -82.1380   34.6680 C.2   184  LEU184      0.2260
     51  O        -61.7870  -81.5680   34.9560 O.2   184  LEU184     -0.2867
     52  CB       -59.5360  -83.2840   36.5670 C.3   184  LEU184      0.0270
     53  CG       -60.1800  -83.7620   37.8760 C.3   184  LEU184      0.0019
     54  CD1      -60.2610  -85.2790   37.9190 C.3   184  LEU184      0.0001
     55  CD2      -59.4150  -83.2460   39.0870 C.3   184  LEU184      0.0001
     56  N        -44.4720  -77.6310   47.7000 N.3   269  PRO269     -0.2116
     57  CA       -45.2850  -77.6110   46.4890 C.3   269  PRO269      0.1372
     58  C        -45.0560  -76.3250   45.7030 C.2   269  PRO269      0.2244
     59  O        -44.2460  -75.4820   46.1150 O.2   269  PRO269     -0.2868
     60  CB       -46.7200  -77.7030   47.0190 C.3   269  PRO269      0.0268
     61  CG       -46.6610  -77.3040   48.4550 C.3   269  PRO269      0.0207
     62  CD       -45.2280  -77.1530   48.8700 C.3   269  PRO269      0.0892
     63  N        -49.7190  -73.2000   46.2670 N.3   273  PHE273     -0.1241
     64  CA       -50.1290  -73.9620   47.4480 C.3   273  PHE273      0.1605
     65  C        -49.4150  -73.5360   48.7290 C.2   273  PHE273      0.2264
     66  O        -49.8230  -73.9490   49.8110 O.2   273  PHE273     -0.2867
     67  CB       -49.9010  -75.4580   47.2280 C.3   273  PHE273      0.0534
     68  CG       -50.8370  -76.0760   46.2330 C.ar  273  PHE273     -0.0203
     69  CD1      -52.2070  -76.0630   46.4530 C.ar  273  PHE273     -0.0042
     70  CD2      -50.3520  -76.7020   45.0890 C.ar  273  PHE273     -0.0042
     71  CE1      -53.0800  -76.6380   45.5420 C.ar  273  PHE273     -0.0003
     72  CE2      -51.2220  -77.2820   44.1730 C.ar  273  PHE273     -0.0003
     73  CZ       -52.5870  -77.2500   44.3980 C.ar  273  PHE273     -0.0000
     74  N        -51.2100  -72.5440   52.1110 N.3   276  ALA276     -0.1231
     75  CA       -51.8940  -73.6160   52.8280 C.3   276  ALA276      0.1694
     76  C        -50.8860  -74.6200   53.3800 C.2   276  ALA276      0.2592
     77  O        -51.1470  -75.2710   54.3970 O.2   276  ALA276     -0.2718
     78  CB       -52.9040  -74.3050   51.9190 C.3   276  ALA276      0.0304
     79  N        -49.7480  -74.7450   52.6920 N.am  277  TYR277     -0.1976
     80  CA       -48.6030  -75.5210   53.1730 C.3   277  TYR277      0.1639
     81  C        -48.0410  -74.9330   54.4730 C.2   277  TYR277      0.2290
     82  O        -47.7100  -75.6780   55.3880 O.2   277  TYR277     -0.2864
     83  CB       -47.5080  -75.5870   52.0980 C.3   277  TYR277      0.0560
     84  CG       -46.4060  -76.5900   52.3860 C.ar  277  TYR277     -0.0198
     85  CD1      -46.6600  -77.9660   52.3570 C.ar  277  TYR277     -0.0009
     86  CD2      -45.1050  -76.1700   52.6730 C.ar  277  TYR277     -0.0009
     87  CE1      -45.6540  -78.8890   52.6120 C.ar  277  TYR277      0.0417
     88  CE2      -44.0940  -77.0860   52.9310 C.ar  277  TYR277      0.0417
     89  CZ       -44.3710  -78.4430   52.9000 C.ar  277  TYR277      0.1957
     90  OH       -43.3670  -79.3480   53.1600 O.3   277  TYR277     -0.2866
     91  N        -55.1780  -77.3780   57.0980 N.3   293  LEU293     -0.1245
     92  CA       -54.9650  -77.2540   55.6390 C.3   293  LEU293      0.1561
     93  C        -56.2730  -77.4170   54.8710 C.2   293  LEU293      0.2260
     94  O        -56.5180  -76.7010   53.9030 O.2   293  LEU293     -0.2867
     95  CB       -53.9420  -78.2920   55.1350 C.3   293  LEU293      0.0270
     96  CG       -53.8850  -78.6540   53.6370 C.3   293  LEU293      0.0019
     97  CD1      -53.5490  -77.4550   52.7640 C.3   293  LEU293      0.0001
     98  CD2      -52.8730  -79.7650   53.3980 C.3   293  LEU293      0.0001
     99  N        -58.9980  -73.8940   52.9900 N.3   297  ILE297     -0.1245
    100  CA       -59.6910  -73.7620   51.6870 C.3   297  ILE297      0.1561
    101  C        -61.2120  -73.8210   51.8520 C.2   297  ILE297      0.2260
    102  O        -61.9260  -72.9830   51.2970 O.2   297  ILE297     -0.2867
    103  CB       -59.2970  -74.8780   50.6730 C.3   297  ILE297      0.0252
    104  CG1      -57.7840  -75.1620   50.6700 C.3   297  ILE297      0.0019
    105  CG2      -59.7790  -74.5280   49.2650 C.3   297  ILE297      0.0019
    106  CD1      -56.9070  -73.9460   50.4640 C.3   297  ILE297      0.0001
@<TRIPOS>BOND
     1    48    49    1
     2    50    51    2
     3    50    49    1
     4    49    52    1
     5    52    53    1
     6    53    54    1
     7    53    55    1
     8    15    13    1
     9    12    11    2
    10    13    14    1
    11    13    10    1
    12    11    10    1
    13    27    26    2
    14    26    25    1
    15    29    30    1
    16    10     9    1
    17    31    32    2
    18    31    30    1
    19    16    17    1
    20    30    33    1
    21    19    18    2
    22    25    28    1
    23    25    24    1
    24     9     3   am
    25    18    24   am
    26    18    17    1
    27    17    20    1
    28    33    34    1
    29     3     4    2
    30     3     2    1
    31     1     2    1
    32    20    21    1
    33    34    36   ar
    34    34    35   ar
    35    72    73   ar
    36    72    70   ar
    37    36    38   ar
    38    73    71   ar
    39    21    22    1
    40     2     5    1
    41    35    37   ar
    42    38    39   ar
    43    70    68   ar
    44     5     6    1
    45    71    69   ar
    46    58    59    2
    47    58    57    1
    48    37    39   ar
    49    22    23    1
    50    68    69   ar
    51    68    67    1
    52    63    64    1
    53    57    60    1
    54    57    56    1
    55     6     7    1
    56     6     8    1
    57    60    61    1
    58    67    64    1
    59    64    65    1
    60    56    62    1
    61    61    62    1
    62    65    66    2
    63    46    44    1
    64   105   103    1
    65    44    45    1
    66    44    41    1
    67    45    47    1
    68   106   104    1
    69    41    40    1
    70    41    42    1
    71    42    43    2
    72   104   103    1
    73   103   100    1
    74   102   101    2
    75   100   101    1
    76   100    99    1
    77    78    75    1
    78    83    84    1
    79    83    80    1
    80    74    75    1
    81    85    84   ar
    82    85    87   ar
    83    84    86   ar
    84    87    89   ar
    85    86    88   ar
    86    79    80    1
    87    79    76   am
    88    97    96    1
    89    75    76    1
    90    89    88   ar
    91    89    90    1
    92    80    81    1
    93    76    77    2
    94    98    96    1
    95    96    95    1
    96    94    93    2
    97    81    82    2
    98    93    92    1
    99    95    92    1
   100    92    91    1
