@<TRIPOS>MOLECULE
tmp/5okgC00.pdb
 190 186 0 0 0
SMALL
GASTEIGER

@<TRIPOS>ATOM
      1  N        -24.8570    7.9090  -70.4310 N.3    20  GLN20      -0.1245
      2  CA       -25.2380    9.2600  -70.8030 C.3    20  GLN20       0.1566
      3  C        -26.3430    9.3100  -71.8480 C.2    20  GLN20       0.2260
      4  O        -26.9800   10.3590  -71.9840 O.2    20  GLN20      -0.2867
      5  CB       -24.0090   10.0220  -71.3040 C.3    20  GLN20       0.0367
      6  CG       -22.9270   10.1160  -70.2430 C.3    20  GLN20       0.0905
      7  CD       -21.7950   10.9930  -70.6900 C.2    20  GLN20       0.2608
      8  OE1      -20.8150   10.5130  -71.2600 O.2    20  GLN20      -0.2717
      9  NE2      -21.9290   12.2960  -70.4590 N.am   20  GLN20      -0.0878
     10  N        -17.0980    2.3440  -70.1570 N.3   121  HIS121     -0.1226
     11  CA       -17.2290    3.7590  -69.8370 C.3   121  HIS121      0.1752
     12  C        -17.8630    3.9120  -68.4510 C.2   121  HIS121      0.2596
     13  O        -18.9540    4.4550  -68.2840 O.2   121  HIS121     -0.2718
     14  CB       -17.9350    4.5690  -70.9280 C.3   121  HIS121      0.0759
     15  CG       -17.7090    6.0440  -70.8150 C.ar  121  HIS121      0.0818
     16  ND1      -17.2920    6.8200  -71.8750 N.ar  121  HIS121     -0.2268
     17  CD2      -17.8600    6.8900  -69.7680 C.ar  121  HIS121      0.1154
     18  CE1      -17.1830    8.0770  -71.4820 C.ar  121  HIS121      0.1986
     19  NE2      -17.5120    8.1460  -70.2050 N.ar  121  HIS121     -0.2212
     20  N        -17.1600    3.3950  -67.4440 N.am  122  TRP122     -0.1976
     21  CA       -17.2780    3.8220  -66.0490 C.3   122  TRP122      0.1640
     22  C        -18.4090    3.1400  -65.2980 C.2   122  TRP122      0.2290
     23  O        -18.6760    3.4950  -64.1230 O.2   122  TRP122     -0.2864
     24  CB       -17.4170    5.3390  -65.8930 C.3   122  TRP122      0.0576
     25  CG       -16.3830    6.1460  -66.6280 C.ar  122  TRP122      0.0006
     26  CD1      -15.2610    5.6920  -67.2880 C.ar  122  TRP122      0.0946
     27  CD2      -16.3980    7.5650  -66.7890 C.ar  122  TRP122      0.0152
     28  NE1      -14.5770    6.7600  -67.8270 N.ar  122  TRP122     -0.2442
     29  CE2      -15.2560    7.9170  -67.5330 C.ar  122  TRP122      0.0810
     30  CE3      -17.2700    8.5730  -66.3620 C.ar  122  TRP122      0.0012
     31  CZ2      -14.9690    9.2310  -67.8650 C.ar  122  TRP122      0.0191
     32  CZ3      -16.9760    9.8770  -66.6860 C.ar  122  TRP122      0.0001
     33  CH2      -15.8380   10.1970  -67.4340 C.ar  122  TRP122      0.0015
     34  N        -10.8270    6.5080  -70.8820 N.3   167  GLN167     -0.1245
     35  CA       -10.4340    7.4800  -69.8490 C.3   167  GLN167      0.1566
     36  C        -10.2560    6.8540  -68.4540 C.2   167  GLN167      0.2260
     37  O        -10.8230    7.2860  -67.4900 O.2   167  GLN167     -0.2867
     38  CB       -11.4130    8.6580  -69.7980 C.3   167  GLN167      0.0367
     39  CG       -11.7080    9.2230  -71.1880 C.3   167  GLN167      0.0905
     40  CD       -12.6740   10.3470  -71.1310 C.2   167  GLN167      0.2608
     41  OE1      -12.2790   11.4420  -71.0490 O.2   167  GLN167     -0.2717
     42  NE2      -13.9270   10.0630  -71.1970 N.am  167  GLN167     -0.0878
     43  N         -9.4250    9.1700  -65.7700 N.3   170  ILE170     -0.1245
     44  CA       -10.5490    9.9010  -65.1910 C.3   170  ILE170      0.1561
     45  C        -11.3320    9.0280  -64.2170 C.2   170  ILE170      0.2260
     46  O        -11.5610    9.4220  -63.0720 O.2   170  ILE170     -0.2867
     47  CB       -11.4520   10.4800  -66.2970 C.3   170  ILE170      0.0252
     48  CG1      -10.6610   11.4260  -67.2010 C.3   170  ILE170      0.0019
     49  CG2      -12.6730   11.1840  -65.6790 C.3   170  ILE170      0.0019
     50  CD1      -10.0490   12.6070  -66.5030 C.3   170  ILE170      0.0001
     51  N        -11.1160   10.3120  -60.5560 N.3   174  PHE174     -0.1241
     52  CA       -12.3530   10.8830  -60.0250 C.3   174  PHE174      0.1605
     53  C        -13.0070    9.9450  -59.0170 C.2   174  PHE174      0.2264
     54  O        -13.6790   10.4090  -58.0870 O.2   174  PHE174     -0.2867
     55  CB       -13.3480   11.2200  -61.1430 C.3   174  PHE174      0.0534
     56  CG       -13.0660   12.5150  -61.8750 C.ar  174  PHE174     -0.0203
     57  CD1      -11.7900   12.8420  -62.3240 C.ar  174  PHE174     -0.0042
     58  CD2      -14.1050   13.3940  -62.1420 C.ar  174  PHE174     -0.0042
     59  CE1      -11.5600   14.0280  -63.0090 C.ar  174  PHE174     -0.0003
     60  CE2      -13.8780   14.5770  -62.8280 C.ar  174  PHE174     -0.0003
     61  CZ       -12.6050   14.8900  -63.2600 C.ar  174  PHE174     -0.0000
     62  N        -16.7480   10.6690  -58.4020 N.3   181  HIS181     -0.1241
     63  CA       -17.4060    9.5990  -59.1440 C.3   181  HIS181      0.1621
     64  C        -17.3520    8.3240  -58.3050 C.2   181  HIS181      0.2264
     65  O        -16.5860    8.2610  -57.3320 O.2   181  HIS181     -0.2867
     66  CB       -16.6890    9.4100  -60.4880 C.3   181  HIS181      0.0745
     67  CG       -16.9610   10.5040  -61.4800 C.ar  181  HIS181      0.0817
     68  ND1      -16.5200   10.4480  -62.7850 N.ar  181  HIS181     -0.2268
     69  CD2      -17.6310   11.6760  -61.3590 C.ar  181  HIS181      0.1154
     70  CE1      -16.9030   11.5400  -63.4220 C.ar  181  HIS181      0.1986
     71  NE2      -17.5840   12.2990  -62.5850 N.ar  181  HIS181     -0.2212
     72  N         -7.5120   10.1930  -71.5370 N.3   223  ALA223     -0.1245
     73  CA        -7.9250   11.5960  -71.4350 C.3   223  ALA223      0.1562
     74  C         -6.6580   12.4300  -71.3130 C.2   223  ALA223      0.2260
     75  O         -6.0560   12.5240  -70.2410 O.2   223  ALA223     -0.2867
     76  CB        -8.8510   11.8100  -70.2450 C.3   223  ALA223      0.0290
     77  N         -8.8500   11.2560  -75.8670 N.3   296  ASN296     -0.1240
     78  CA        -9.9410   12.1660  -75.5380 C.3   296  ASN296      0.1653
     79  C         -9.2940   13.5010  -75.2050 C.2   296  ASN296      0.2266
     80  O         -8.4970   13.5780  -74.2690 O.2   296  ASN296     -0.2867
     81  CB       -10.7200   11.6810  -74.3100 C.3   296  ASN296      0.1155
     82  CG       -10.9540   10.1780  -74.2940 C.2   296  ASN296      0.2627
     83  OD1      -10.0200    9.4000  -74.0940 O.2   296  ASN296     -0.2716
     84  ND2      -12.2160    9.7650  -74.4450 N.am  296  ASN296     -0.0877
     85  N         -9.5960   17.7720  -74.6360 N.3   298  TYR298     -0.1241
     86  CA       -10.2800   19.0450  -74.4420 C.3   298  TYR298      0.1605
     87  C         -9.3460   20.2310  -74.2710 C.2   298  TYR298      0.2264
     88  O         -9.6670   21.3150  -74.7530 O.2   298  TYR298     -0.2867
     89  CB       -11.2350   18.9810  -73.2580 C.3   298  TYR298      0.0534
     90  CG       -12.4400   18.1360  -73.5400 C.ar  298  TYR298     -0.0201
     91  CD1      -13.5200   18.6570  -74.2370 C.ar  298  TYR298     -0.0009
     92  CD2      -12.5010   16.8270  -73.1270 C.ar  298  TYR298     -0.0009
     93  CE1      -14.6350   17.8960  -74.4990 C.ar  298  TYR298      0.0417
     94  CE2      -13.6250   16.0510  -73.3720 C.ar  298  TYR298      0.0417
     95  CZ       -14.6910   16.6020  -74.0520 C.ar  298  TYR298      0.1957
     96  OH       -15.8160   15.8520  -74.3100 O.3   298  TYR298     -0.2866
     97  N        -12.7110   26.4840  -69.2410 N.3   336  TRP336     -0.1241
     98  CA       -11.8200   25.5070  -69.8470 C.3   336  TRP336      0.1605
     99  C        -10.9900   26.1970  -70.9170 C.2   336  TRP336      0.2264
    100  O        -11.4610   27.0990  -71.6130 O.2   336  TRP336     -0.2867
    101  CB       -12.6050   24.4000  -70.5530 C.3   336  TRP336      0.0550
    102  CG       -13.4110   23.4980  -69.6800 C.ar  336  TRP336      0.0003
    103  CD1      -13.8310   23.7400  -68.4050 C.ar  336  TRP336      0.0946
    104  CD2      -13.9080   22.1990  -70.0290 C.ar  336  TRP336      0.0152
    105  NE1      -14.5570   22.6700  -67.9370 N.ar  336  TRP336     -0.2442
    106  CE2      -14.6180   21.7100  -68.9150 C.ar  336  TRP336      0.0810
    107  CE3      -13.8180   21.4020  -71.1770 C.ar  336  TRP336      0.0012
    108  CZ2      -15.2370   20.4600  -68.9130 C.ar  336  TRP336      0.0191
    109  CZ3      -14.4300   20.1600  -71.1730 C.ar  336  TRP336      0.0001
    110  CH2      -15.1320   19.7010  -70.0480 C.ar  336  TRP336      0.0015
    111  N        -12.7260   11.5140  -78.6900 N.3   362  GLU362     -0.1245
    112  CA       -13.6120   12.5000  -78.0890 C.3   362  GLU362      0.1567
    113  C        -12.9710   13.8740  -78.1910 C.2   362  GLU362      0.2260
    114  O        -11.8280   14.0590  -77.7660 O.2   362  GLU362     -0.2867
    115  CB       -13.8250   12.1550  -76.6180 C.3   362  GLU362      0.0388
    116  CG       -14.5660   13.1920  -75.7870 C.3   362  GLU362      0.1160
    117  CD       -14.8740   12.6850  -74.3880 C.2   362  GLU362      0.3649
    118  OE1      -14.4470   11.5670  -74.0420 O.co2 362  GLU362     -0.2457
    119  OE2      -15.5380   13.4080  -73.6300 O.co2 362  GLU362     -0.2457
    120  N        -17.4800   14.8400  -79.9270 N.3   409  TRP409     -0.1241
    121  CA       -18.3040   14.6000  -78.7420 C.3   409  TRP409      0.1605
    122  C        -19.3220   15.7260  -78.6720 C.2   409  TRP409      0.2264
    123  O        -18.9370   16.8610  -78.4150 O.2   409  TRP409     -0.2867
    124  CB       -17.4120   14.6500  -77.5030 C.3   409  TRP409      0.0550
    125  CG       -18.1280   14.2360  -76.2780 C.ar  409  TRP409      0.0003
    126  CD1      -18.6580   15.0540  -75.3210 C.ar  409  TRP409      0.0946
    127  CD2      -18.4310   12.8950  -75.8800 C.ar  409  TRP409      0.0152
    128  NE1      -19.2620   14.3010  -74.3460 N.ar  409  TRP409     -0.2442
    129  CE2      -19.1360   12.9730  -74.6630 C.ar  409  TRP409      0.0810
    130  CE3      -18.1660   11.6330  -76.4330 C.ar  409  TRP409      0.0012
    131  CZ2      -19.5800   11.8390  -73.9840 C.ar  409  TRP409      0.0191
    132  CZ3      -18.6130   10.5100  -75.7690 C.ar  409  TRP409      0.0001
    133  CH2      -19.3080   10.6200  -74.5530 C.ar  409  TRP409      0.0015
    134  N        -26.6670   14.7490  -74.4740 N.3   414  LEU414     -0.1245
    135  CA       -26.6630   13.6220  -73.5500 C.3   414  LEU414      0.1561
    136  C        -26.6960   14.1150  -72.1080 C.2   414  LEU414      0.2260
    137  O        -26.6080   15.3140  -71.8320 O.2   414  LEU414     -0.2867
    138  CB       -25.5320   12.6360  -73.8550 C.3   414  LEU414      0.0270
    139  CG       -24.1750   13.1920  -74.2800 C.3   414  LEU414      0.0019
    140  CD1      -23.5570   13.9840  -73.1240 C.3   414  LEU414      0.0001
    141  CD2      -23.2560   12.0530  -74.6940 C.3   414  LEU414      0.0001
    142  N        -25.1140   14.6640  -68.5690 N.3   416  SER416     -0.1202
    143  CA       -23.8300   14.7870  -67.8920 C.3   416  SER416      0.2020
    144  C        -23.8330   13.9450  -66.6210 C.2   416  SER416      0.2618
    145  O        -24.8790   13.7070  -66.0230 O.2   416  SER416     -0.2717
    146  CB       -23.5620   16.2470  -67.5260 C.3   416  SER416      0.2103
    147  OG       -22.6010   16.3540  -66.4930 O.3   416  SER416     -0.2182
    148  N        -22.6430   13.5080  -66.2010 N.am  417  TRP417     -0.1975
    149  CA       -22.5350   12.6290  -65.0360 C.3   417  TRP417      0.1640
    150  C        -23.1230   13.2580  -63.7790 C.2   417  TRP417      0.2290
    151  O        -23.8440   12.5920  -63.0230 O.2   417  TRP417     -0.2864
    152  CB       -21.0670   12.2360  -64.8240 C.3   417  TRP417      0.0576
    153  CG       -20.5730   11.5420  -66.0400 C.ar  417  TRP417      0.0006
    154  CD1      -19.9210   12.1070  -67.1040 C.ar  417  TRP417      0.0946
    155  CD2      -20.8040   10.1720  -66.3930 C.ar  417  TRP417      0.0152
    156  NE1      -19.7020   11.1650  -68.0750 N.ar  417  TRP417     -0.2442
    157  CE2      -20.2290    9.9670  -67.6640 C.ar  417  TRP417      0.0810
    158  CE3      -21.4010    9.0920  -65.7360 C.ar  417  TRP417      0.0012
    159  CZ2      -20.2500    8.7350  -68.2960 C.ar  417  TRP417      0.0191
    160  CZ3      -21.4080    7.8640  -66.3540 C.ar  417  TRP417      0.0001
    161  CH2      -20.8430    7.6920  -67.6260 C.ar  417  TRP417      0.0015
    162  N        -24.0790   17.0040  -63.7450 N.3   419  ASN419     -0.1240
    163  CA       -24.5520   18.3670  -63.9640 C.3   419  ASN419      0.1653
    164  C        -25.8000   18.4450  -64.8370 C.2   419  ASN419      0.2266
    165  O        -26.0870   19.5060  -65.3930 O.2   419  ASN419     -0.2867
    166  CB       -23.4250   19.2170  -64.5520 C.3   419  ASN419      0.1155
    167  CG       -22.2290   19.2900  -63.6360 C.2   419  ASN419      0.2627
    168  OD1      -21.1670   18.7330  -63.9250 O.2   419  ASN419     -0.2716
    169  ND2      -22.3940   19.9730  -62.5250 N.am  419  ASN419     -0.0877
    170  N        -25.8120   21.8740  -70.2780 N.3   423  LYS423     -0.1245
    171  CA       -24.5870   22.0830  -71.0490 C.3   423  LYS423      0.1561
    172  C        -24.5430   21.0040  -72.1230 C.2   423  LYS423      0.2260
    173  O        -24.2580   19.8390  -71.8400 O.2   423  LYS423     -0.2867
    174  CB       -23.3590   22.0550  -70.1470 C.3   423  LYS423      0.0271
    175  CG       -22.0600   22.3930  -70.8660 C.3   423  LYS423      0.0035
    176  CD       -20.8860   22.2970  -69.9070 C.3   423  LYS423      0.0206
    177  CE       -19.5590   22.6020  -70.5870 C.3   423  LYS423      0.1093
    178  NZ       -18.4080   22.4490  -69.6490 N.3   423  LYS423     -0.1314
    179  N        -23.6870   19.0720  -75.8130 N.3   425  TYR425     -0.1241
    180  CA       -22.5400   18.7470  -76.6490 C.3   425  TYR425      0.1605
    181  C        -22.8870   18.2440  -78.0440 C.2   425  TYR425      0.2264
    182  O        -21.9740   18.0400  -78.8470 O.2   425  TYR425     -0.2867
    183  CB       -21.6790   17.6710  -75.9740 C.3   425  TYR425      0.0534
    184  CG       -20.7920   18.1860  -74.8740 C.ar  425  TYR425     -0.0201
    185  CD1      -21.2400   18.3240  -73.5630 C.ar  425  TYR425     -0.0009
    186  CD2      -19.4800   18.5340  -75.1590 C.ar  425  TYR425     -0.0009
    187  CE1      -20.3670   18.8020  -72.5620 C.ar  425  TYR425      0.0417
    188  CE2      -18.6370   18.9990  -74.2010 C.ar  425  TYR425      0.0417
    189  CZ       -19.0680   19.1370  -72.9130 C.ar  425  TYR425      0.1957
    190  OH       -18.1600   19.6170  -71.9920 O.3   425  TYR425     -0.2866
@<TRIPOS>BOND
     1   120   121    1
     2   182   181    2
     3   121   122    1
     4   121   124    1
     5   111   112    1
     6   122   123    2
     7   113   112    1
     8   113   114    2
     9   112   115    1
    10   181   180    1
    11   124   125    1
    12   180   183    1
    13   180   179    1
    14   115   116    1
    15   130   127   ar
    16   130   132   ar
    17   125   127   ar
    18   125   126   ar
    19   183   184    1
    20   127   129   ar
    21    77    78    1
    22   116   117    1
    23   132   133   ar
    24    78    79    1
    25    78    81    1
    26   126   128   ar
    27    79    80    2
    28   186   184   ar
    29   186   188   ar
    30   184   185   ar
    31    88    87    2
    32   141   139    1
    33   129   128   ar
    34   129   131   ar
    35    85    86    1
    36   133   131   ar
    37    93    91   ar
    38    93    95   ar
    39   134   135    1
    40    84    82   am
    41    86    87    1
    42    86    89    1
    43   117   118   ar
    44   117   119   ar
    45    96    95    1
    46    81    82    1
    47    82    83    2
    48   139   138    1
    49   139   140    1
    50    91    90   ar
    51   188   189   ar
    52    95    94   ar
    53   138   135    1
    54   185   187   ar
    55   135   136    1
    56    90    89    1
    57    90    92   ar
    58    94    92   ar
    59   189   187   ar
    60   189   190    1
    61   172   173    2
    62   172   171    1
    63   136   137    2
    64     4     3    2
    65    16    18   ar
    66    16    15   ar
    67     3     2    1
    68   100    99    2
    69    72    73    1
    70    18    19   ar
    71    73    74    1
    72    73    76    1
    73    74    75    2
    74     5     2    1
    75     5     6    1
    76     8     7    2
    77    42    40   am
    78    39    40    1
    79    39    38    1
    80   107   109   ar
    81   107   104   ar
    82   109   110   ar
    83    40    41    2
    84   171   170    1
    85   171   174    1
    86    14    15    1
    87    14    11    1
    88    99    98    1
    89    34    35    1
    90   175   174    1
    91   175   176    1
    92    15    17   ar
    93     2     1    1
    94     7     9   am
    95     7     6    1
    96   177   176    1
    97   177   178    1
    98   101    98    1
    99   101   102    1
   100    19    17   ar
   101    10    11    1
   102   110   108   ar
   103   104   102   ar
   104   104   106   ar
   105    35    38    1
   106    35    36    1
   107    98    97    1
   108    11    12    1
   109   102   103   ar
   110   106   108   ar
   111   106   105   ar
   112   142   143    1
   113    36    37    2
   114    12    13    2
   115    12    20   am
   116   103   105   ar
   117   159   157   ar
   118   159   161   ar
   119   156   157   ar
   120   156   154   ar
   121   143   146    1
   122   143   144    1
   123    31    29   ar
   124    31    33   ar
   125    28    29   ar
   126    28    26   ar
   127   157   155   ar
   128   161   160   ar
   129    29    27   ar
   130   146   147    1
   131    20    21    1
   132    33    32   ar
   133    26    25   ar
   134    48    50    1
   135    48    47    1
   136   154   153   ar
   137    27    25   ar
   138    27    30   ar
   139    32    30   ar
   140    25    24    1
   141   144   148   am
   142   144   145    2
   143   155   153   ar
   144   155   158   ar
   145   160   158   ar
   146    47    49    1
   147    47    44    1
   148   148   149    1
   149    21    24    1
   150    21    22    1
   151   153   152    1
   152    43    44    1
   153   165   164    2
   154    22    23    2
   155    44    45    1
   156   149   152    1
   157   149   150    1
   158   164   163    1
   159   166   163    1
   160   166   167    1
   161    45    46    2
   162   163   162    1
   163   168   167    2
   164   150   151    2
   165   167   169   am
   166    70    68   ar
   167    70    71   ar
   168    61    59   ar
   169    61    60   ar
   170    59    57   ar
   171    60    58   ar
   172    68    67   ar
   173    71    69   ar
   174    57    56   ar
   175    58    56   ar
   176    56    55    1
   177    67    69   ar
   178    67    66    1
   179    55    52    1
   180    51    52    1
   181    66    63    1
   182    52    53    1
   183    63    62    1
   184    63    64    1
   185    53    54    2
   186    64    65    2
