@<TRIPOS>MOLECULE
tmp/5okhA00.pdb
 125 127 0 0 0
SMALL
GASTEIGER

@<TRIPOS>ATOM
      1  N        -30.6220   -3.6860    6.9020 N.3    19  GLN19      -0.1245
      2  CA       -29.3150   -4.1550    7.3370 C.3    19  GLN19       0.1566
      3  C        -29.0890   -5.6320    7.0560 C.2    19  GLN19       0.2260
      4  O        -27.9390   -6.0830    7.1020 O.2    19  GLN19      -0.2867
      5  CB       -29.1560   -3.9120    8.8430 C.3    19  GLN19       0.0367
      6  CG       -29.1700   -2.4130    9.2130 C.3    19  GLN19       0.0905
      7  CD       -29.0050   -2.1750   10.6920 C.2    19  GLN19       0.2608
      8  OE1      -29.9880   -2.0940   11.4150 O.2    19  GLN19      -0.2717
      9  NE2      -27.7560   -2.0280   11.1480 N.am   19  GLN19      -0.0878
     10  N        -38.2570    0.8220   10.5870 N.3   120  HIS120     -0.1226
     11  CA       -36.8350    0.8910   10.9020 C.3   120  HIS120      0.1752
     12  C        -36.1180    1.6400    9.7750 C.2   120  HIS120      0.2596
     13  O        -35.2360    1.1160    9.0980 O.2   120  HIS120     -0.2718
     14  CB       -36.2800   -0.5150   11.1480 C.3   120  HIS120      0.0759
     15  CG       -35.0930   -0.5500   12.0600 C.ar  120  HIS120      0.0818
     16  ND1      -35.0100   -1.3940   13.1470 N.ar  120  HIS120     -0.2268
     17  CD2      -33.9390    0.1540   12.0400 C.ar  120  HIS120      0.1154
     18  CE1      -33.8440   -1.2150   13.7460 C.ar  120  HIS120      0.1986
     19  NE2      -33.1800   -0.2730   13.0970 N.ar  120  HIS120     -0.2212
     20  N        -36.5520    2.8800    9.5530 N.am  121  TRP121     -0.1976
     21  CA       -35.8340    3.9770    8.8950 C.3   121  TRP121      0.1640
     22  C        -35.9890    3.9830    7.3760 C.2   121  TRP121      0.2290
     23  O        -35.4150    4.8740    6.7320 O.2   121  TRP121     -0.2864
     24  CB       -34.3300    3.9770    9.2410 C.3   121  TRP121      0.0576
     25  CG       -34.0290    4.0100   10.7440 C.ar  121  TRP121      0.0006
     26  CD1      -34.9310    4.0910   11.7780 C.ar  121  TRP121      0.0946
     27  CD2      -32.7340    3.9710   11.3510 C.ar  121  TRP121      0.0152
     28  NE1      -34.2710    4.1040   12.9830 N.ar  121  TRP121     -0.2442
     29  CE2      -32.9210    4.0430   12.7520 C.ar  121  TRP121      0.0810
     30  CE3      -31.4320    3.8870   10.8450 C.ar  121  TRP121      0.0012
     31  CZ2      -31.8580    4.0330   13.6450 C.ar  121  TRP121      0.0191
     32  CZ3      -30.3760    3.8730   11.7330 C.ar  121  TRP121      0.0001
     33  CH2      -30.5930    3.9430   13.1230 C.ar  121  TRP121      0.0015
     34  N        -38.7790    2.6750   15.4260 N.3   165  ASN165     -0.1225
     35  CA       -37.5030    2.3010   16.0160 C.3   165  ASN165      0.1785
     36  C        -36.5930    3.5210   16.0700 C.2   165  ASN165      0.2597
     37  O        -36.1860    4.0460   15.0270 O.2   165  ASN165     -0.2718
     38  CB       -36.8440    1.1890   15.2160 C.3   165  ASN165      0.1169
     39  CG       -35.4700    0.8570   15.7330 C.2   165  ASN165      0.2627
     40  OD1      -35.3300    0.0550   16.6340 O.2   165  ASN165     -0.2716
     41  ND2      -34.4440    1.4760   15.1570 N.am  165  ASN165     -0.0877
     42  N        -36.2520    3.9540   17.2830 N.am  166  GLU166     -0.1979
     43  CA       -35.2590    5.0080   17.4870 C.3   166  GLU166      0.1602
     44  C        -35.6060    6.2510   16.6720 C.2   166  GLU166      0.2287
     45  O        -34.7960    6.7630   15.9040 O.2   166  GLU166     -0.2864
     46  CB       -33.8520    4.5120   17.1320 C.3   166  GLU166      0.0415
     47  CG       -33.3840    3.2400   17.8120 C.3   166  GLU166      0.1163
     48  CD       -31.8640    3.1250   17.7290 C.2   166  GLU166      0.3649
     49  OE1      -31.2660    3.8440   16.8950 O.co2 166  GLU166     -0.2457
     50  OE2      -31.2560    2.3660   18.5030 O.co2 166  GLU166     -0.2457
     51  N        -27.1240    1.0560   24.5960 N.3   297  TYR297     -0.1241
     52  CA       -25.7290    0.6830   24.3840 C.3   297  TYR297      0.1605
     53  C        -24.7940    1.3400   25.3950 C.2   297  TYR297      0.2264
     54  O        -23.7910    0.7330   25.7780 O.2   297  TYR297     -0.2867
     55  CB       -25.2820    1.0210   22.9470 C.3   297  TYR297      0.0534
     56  CG       -26.0260    0.2210   21.9080 C.ar  297  TYR297     -0.0201
     57  CD1      -27.2680    0.6490   21.4370 C.ar  297  TYR297     -0.0009
     58  CD2      -25.5170   -0.9950   21.4220 C.ar  297  TYR297     -0.0009
     59  CE1      -27.9820   -0.0950   20.4920 C.ar  297  TYR297      0.0417
     60  CE2      -26.2230   -1.7460   20.4770 C.ar  297  TYR297      0.0417
     61  CZ       -27.4570   -1.2870   20.0220 C.ar  297  TYR297      0.1957
     62  OH       -28.1870   -2.0020   19.1010 O.3   297  TYR297     -0.2866
     63  N        -17.6440    4.1440   22.4260 N.3   348  TRP348     -0.1241
     64  CA       -18.8770    3.9390   23.1770 C.3   348  TRP348      0.1605
     65  C        -18.5500    3.4660   24.5860 C.2   348  TRP348      0.2264
     66  O        -17.7530    2.5390   24.7640 O.2   348  TRP348     -0.2867
     67  CB       -19.7680    2.9110   22.4870 C.3   348  TRP348      0.0550
     68  CG       -20.3250    3.3500   21.1950 C.ar  348  TRP348      0.0003
     69  CD1      -19.8430    4.3330   20.3810 C.ar  348  TRP348      0.0946
     70  CD2      -21.4850    2.8230   20.5450 C.ar  348  TRP348      0.0152
     71  NE1      -20.6290    4.4470   19.2600 N.ar  348  TRP348     -0.2442
     72  CE2      -21.6420    3.5290   19.3340 C.ar  348  TRP348      0.0810
     73  CE3      -22.3990    1.8190   20.8640 C.ar  348  TRP348      0.0012
     74  CZ2      -22.6870    3.2710   18.4510 C.ar  348  TRP348      0.0191
     75  CZ3      -23.4300    1.5610   19.9860 C.ar  348  TRP348      0.0001
     76  CH2      -23.5640    2.2840   18.7890 C.ar  348  TRP348      0.0015
     77  N        -32.9370   -3.7950   21.9520 N.3   374  GLU374     -0.1245
     78  CA       -31.5870   -3.8280   21.4000 C.3   374  GLU374      0.1567
     79  C        -30.5830   -3.6470   22.5220 C.2   374  GLU374      0.2260
     80  O        -30.7010   -2.7080   23.3140 O.2   374  GLU374     -0.2867
     81  CB       -31.3590   -2.7140   20.3610 C.3   374  GLU374      0.0388
     82  CG       -31.9880   -2.9440   19.0110 C.3   374  GLU374      0.1160
     83  CD       -31.6280   -1.8580   18.0070 C.2   374  GLU374      0.3649
     84  OE1      -32.4080   -1.6690   17.0380 O.co2 374  GLU374     -0.2457
     85  OE2      -30.5650   -1.2160   18.1910 O.co2 374  GLU374     -0.2457
     86  N        -28.6520   -7.3910   20.1240 N.3   421  TRP421     -0.1241
     87  CA       -28.3230   -6.8840   18.7890 C.3   421  TRP421      0.1605
     88  C        -26.9360   -7.4070   18.4770 C.2   421  TRP421      0.2264
     89  O        -25.9970   -7.0340   19.1840 O.2   421  TRP421     -0.2867
     90  CB       -28.3290   -5.3440   18.7740 C.3   421  TRP421      0.0550
     91  CG       -28.1460   -4.7990   17.4060 C.ar  421  TRP421      0.0003
     92  CD1      -26.9770   -4.4230   16.8160 C.ar  421  TRP421      0.0946
     93  CD2      -29.1650   -4.6350   16.4300 C.ar  421  TRP421      0.0152
     94  NE1      -27.2140   -4.0030   15.5230 N.ar  421  TRP421     -0.2442
     95  CE2      -28.5550   -4.1180   15.2680 C.ar  421  TRP421      0.0810
     96  CE3      -30.5490   -4.8460   16.4310 C.ar  421  TRP421      0.0012
     97  CZ2      -29.2740   -3.8180   14.1270 C.ar  421  TRP421      0.0191
     98  CZ3      -31.2600   -4.5540   15.2790 C.ar  421  TRP421      0.0001
     99  CH2      -30.6230   -4.0420   14.1500 C.ar  421  TRP421      0.0015
    100  N        -25.2780    0.9510    9.1810 N.3   429  TRP429     -0.1241
    101  CA       -25.8010    1.9350    8.2320 C.3   429  TRP429      0.1605
    102  C        -24.6890    2.7520    7.5790 C.2   429  TRP429      0.2264
    103  O        -24.7140    2.9980    6.3620 O.2   429  TRP429     -0.2867
    104  CB       -26.8030    2.8470    8.9340 C.3   429  TRP429      0.0550
    105  CG       -27.9220    2.0910    9.5570 C.ar  429  TRP429      0.0003
    106  CD1      -27.9500    1.5500   10.8100 C.ar  429  TRP429      0.0946
    107  CD2      -29.1900    1.7990    8.9640 C.ar  429  TRP429      0.0152
    108  NE1      -29.1520    0.9200   11.0220 N.ar  429  TRP429     -0.2442
    109  CE2      -29.9280    1.0510    9.9040 C.ar  429  TRP429      0.0810
    110  CE3      -29.7640    2.0720    7.7160 C.ar  429  TRP429      0.0012
    111  CZ2      -31.2160    0.6060    9.6570 C.ar  429  TRP429      0.0191
    112  CZ3      -31.0450    1.6190    7.4670 C.ar  429  TRP429      0.0001
    113  CH2      -31.7590    0.8920    8.4390 C.ar  429  TRP429      0.0015
    114  N        -21.8190   -7.3310   15.2330 N.3   437  TYR437     -0.1241
    115  CA       -22.6530   -7.4890   16.4130 C.3   437  TYR437      0.1605
    116  C        -23.2330   -8.8860   16.6050 C.2   437  TYR437      0.2264
    117  O        -23.8630   -9.1270   17.6400 O.2   437  TYR437     -0.2867
    118  CB       -23.8310   -6.5050   16.3630 C.3   437  TYR437      0.0534
    119  CG       -23.5200   -5.0820   16.7620 C.ar  437  TYR437     -0.0201
    120  CD1      -23.6300   -4.6740   18.0880 C.ar  437  TYR437     -0.0009
    121  CD2      -23.1610   -4.1290   15.8010 C.ar  437  TYR437     -0.0009
    122  CE1      -23.3710   -3.3650   18.4520 C.ar  437  TYR437      0.0417
    123  CE2      -22.9010   -2.8210   16.1550 C.ar  437  TYR437      0.0417
    124  CZ       -23.0020   -2.4440   17.4820 C.ar  437  TYR437      0.1957
    125  OH       -22.7410   -1.1340   17.8380 O.3   437  TYR437     -0.2866
@<TRIPOS>BOND
     1   103   102    2
     2    23    22    2
     3     1     2    1
     4     3     4    2
     5     3     2    1
     6     2     5    1
     7    22    21    1
     8   112   110   ar
     9   112   113   ar
    10   102   101    1
    11   110   107   ar
    12   101   104    1
    13   101   100    1
    14   113   111   ar
    15     5     6    1
    16    21    24    1
    17    21    20    1
    18   104   105    1
    19   107   105   ar
    20   107   109   ar
    21    13    12    2
    22     6     7    1
    23    24    25    1
    24    20    12   am
    25   105   106   ar
    26   111   109   ar
    27    12    11    1
    28   109   108   ar
    29    10    11    1
    30     7     9   am
    31     7     8    2
    32    25    27   ar
    33    25    26   ar
    34   106   108   ar
    35    30    27   ar
    36    30    32   ar
    37    11    14    1
    38    14    15    1
    39    27    29   ar
    40    32    33   ar
    41    26    28   ar
    42    17    15   ar
    43    17    19   ar
    44    15    16   ar
    45    29    28   ar
    46    29    31   ar
    47    19    18   ar
    48    33    31   ar
    49    16    18   ar
    50    97    99   ar
    51    97    95   ar
    52    99    98   ar
    53    37    36    2
    54    41    39   am
    55    38    39    1
    56    38    35    1
    57   114   115    1
    58    95    94   ar
    59    95    93   ar
    60    98    96   ar
    61    34    35    1
    62    94    92   ar
    63    39    40    2
    64   121   123   ar
    65   121   119   ar
    66    45    44    2
    67    35    36    1
    68    36    42   am
    69   123   124   ar
    70   118   115    1
    71   118   119    1
    72   115   116    1
    73    93    96   ar
    74    93    91   ar
    75   116   117    2
    76    44    43    1
    77   119   120   ar
    78    92    91   ar
    79    49    48   ar
    80    84    83   ar
    81    46    43    1
    82    46    47    1
    83    42    43    1
    84    91    90    1
    85   124   125    1
    86   124   122   ar
    87    48    47    1
    88    48    50   ar
    89    83    85   ar
    90    83    82    1
    91   120   122   ar
    92    74    76   ar
    93    74    72   ar
    94    88    87    1
    95    88    89    2
    96    90    87    1
    97    87    86    1
    98    76    75   ar
    99    82    81    1
   100    62    61    1
   101    71    72   ar
   102    71    69   ar
   103    72    70   ar
   104    75    73   ar
   105    61    60   ar
   106    61    59   ar
   107    81    78    1
   108    69    68   ar
   109    60    58   ar
   110    59    57   ar
   111    70    73   ar
   112    70    68   ar
   113    68    67    1
   114    78    77    1
   115    78    79    1
   116    58    56   ar
   117    57    56   ar
   118    56    55    1
   119    63    64    1
   120    67    64    1
   121    79    80    2
   122    55    52    1
   123    64    65    1
   124    52    51    1
   125    52    53    1
   126    65    66    2
   127    53    54    2
