@<TRIPOS>MOLECULE
tmp/5oklB03.pdb
 183 173 0 0 0
SMALL
GASTEIGER

@<TRIPOS>ATOM
      1  N         15.3880    1.9440   10.7150 N.3   136  PHE136     -0.1241
      2  CA        15.5090    0.9710   11.8070 C.3   136  PHE136      0.1605
      3  C         16.8240    1.2090   12.5320 C.2   136  PHE136      0.2264
      4  O         17.7910    1.6700   11.9160 O.2   136  PHE136     -0.2867
      5  CB        15.4580   -0.4640   11.2810 C.3   136  PHE136      0.0534
      6  CG        14.1680   -0.8420   10.5670 C.ar  136  PHE136     -0.0203
      7  CD1       13.0370   -0.0150   10.5540 C.ar  136  PHE136     -0.0042
      8  CD2       14.0800   -2.0840    9.9310 C.ar  136  PHE136     -0.0042
      9  CE1       11.8760   -0.4140    9.9290 C.ar  136  PHE136     -0.0003
     10  CE2       12.9110   -2.4810    9.3000 C.ar  136  PHE136     -0.0003
     11  CZ        11.8090   -1.6430    9.2980 C.ar  136  PHE136     -0.0000
     12  N         13.7520    1.2010    1.4920 N.3   170  TYR170     -0.1241
     13  CA        13.1770   -0.1540    1.5110 C.3   170  TYR170      0.1605
     14  C         12.3960   -0.4550    2.8070 C.2   170  TYR170      0.2264
     15  O         11.3400   -1.0790    2.7650 O.2   170  TYR170     -0.2867
     16  CB        14.2180   -1.2490    1.2680 C.3   170  TYR170      0.0534
     17  CG        13.5890   -2.3880    0.4940 C.ar  170  TYR170     -0.0201
     18  CD1       13.4680   -2.3230   -0.9060 C.ar  170  TYR170     -0.0009
     19  CD2       13.0580   -3.4990    1.1500 C.ar  170  TYR170     -0.0009
     20  CE1       12.8590   -3.3470   -1.6230 C.ar  170  TYR170      0.0417
     21  CE2       12.4510   -4.5360    0.4390 C.ar  170  TYR170      0.0417
     22  CZ        12.3530   -4.4520   -0.9440 C.ar  170  TYR170      0.1957
     23  OH        11.7550   -5.4590   -1.6540 O.3   170  TYR170     -0.2866
     24  N          8.7150  -11.3300    1.6500 N.3   190  TYR190     -0.1241
     25  CA         9.9670  -11.9380    2.1150 C.3   190  TYR190      0.1605
     26  C         10.2190  -13.3590    1.6380 C.2   190  TYR190      0.2264
     27  O         11.3700  -13.7210    1.4210 O.2   190  TYR190     -0.2867
     28  CB        10.2150  -11.6950    3.6050 C.3   190  TYR190      0.0534
     29  CG        10.9550  -10.4000    3.7550 C.ar  190  TYR190     -0.0201
     30  CD1       12.3410  -10.3490    3.5710 C.ar  190  TYR190     -0.0009
     31  CD2       10.2800   -9.2220    4.0040 C.ar  190  TYR190     -0.0009
     32  CE1       13.0460   -9.1600    3.6910 C.ar  190  TYR190      0.0417
     33  CE2       10.9700   -8.0060    4.1140 C.ar  190  TYR190      0.0417
     34  CZ        12.3520   -7.9850    3.9500 C.ar  190  TYR190      0.1957
     35  OH        13.0340   -6.7940    4.0530 O.3   190  TYR190     -0.2866
     36  N         11.8350  -12.3630   -1.7710 N.3   193  ILE193     -0.1231
     37  CA        13.1790  -11.8130   -1.5560 C.3   193  ILE193      0.1692
     38  C         14.1800  -12.8630   -1.1130 C.2   193  ILE193      0.2591
     39  O         15.2180  -13.0100   -1.7370 O.2   193  ILE193     -0.2718
     40  CB        13.1790  -10.6580   -0.5240 C.3   193  ILE193      0.0266
     41  CG1       12.5240   -9.3950   -1.1280 C.3   193  ILE193      0.0019
     42  CG2       14.6060  -10.3100   -0.0950 C.3   193  ILE193      0.0020
     43  CD1       12.2400   -8.2760   -0.1140 C.3   193  ILE193      0.0001
     44  N         13.8800  -13.5850   -0.0360 N.am  194  LEU194     -0.1980
     45  CA        14.8490  -14.5350    0.5250 C.3   194  LEU194      0.1596
     46  C         15.0520  -15.7420   -0.3870 C.2   194  LEU194      0.2287
     47  O         16.1780  -16.2420   -0.5040 O.2   194  LEU194     -0.2864
     48  CB        14.3910  -14.9830    1.9140 C.3   194  LEU194      0.0297
     49  CG        14.3090  -13.8510    2.9440 C.3   194  LEU194      0.0022
     50  CD1       13.6870  -14.3330    4.2400 C.3   194  LEU194      0.0001
     51  CD2       15.6790  -13.2640    3.2290 C.3   194  LEU194      0.0001
     52  N         14.8010  -15.6450   -3.6080 N.3   196  GLN196     -0.1231
     53  CA        15.5980  -15.1520   -4.7250 C.3   196  GLN196      0.1698
     54  C         17.0660  -15.0140   -4.3230 C.2   196  GLN196      0.2592
     55  O         17.9590  -15.3370   -5.0950 O.2   196  GLN196     -0.2718
     56  CB        15.0450  -13.7970   -5.1770 C.3   196  GLN196      0.0381
     57  CG        15.4370  -13.4070   -6.5500 C.3   196  GLN196      0.0905
     58  CD        14.7840  -12.1040   -6.9880 C.2   196  GLN196      0.2608
     59  OE1       14.8490  -11.1130   -6.2700 O.2   196  GLN196     -0.2717
     60  NE2       14.1930  -12.0980   -8.1800 N.am  196  GLN196     -0.0878
     61  N         17.2920  -14.5290   -3.1040 N.am  197  LYS197     -0.1966
     62  CA        18.6300  -14.2370   -2.5950 C.3   197  LYS197      0.1728
     63  C         19.3830  -15.4860   -2.1540 C.2   197  LYS197      0.2616
     64  O         20.6020  -15.5390   -2.3010 O.2   197  LYS197     -0.2715
     65  CB        18.5020  -13.2730   -1.4160 C.3   197  LYS197      0.0311
     66  CG        19.7830  -12.7120   -0.8410 C.3   197  LYS197      0.0038
     67  CD        19.4160  -11.7190    0.2380 C.3   197  LYS197      0.0206
     68  CE        20.6200  -11.2030    1.0010 C.3   197  LYS197      0.1093
     69  NZ        21.2750  -10.1020    0.2830 N.3   197  LYS197     -0.1314
     70  N         18.6560  -16.4610   -1.5910 N.am  198  PHE198     -0.1974
     71  CA        19.2160  -17.7020   -1.0490 C.3   198  PHE198      0.1639
     72  C         18.6100  -18.9000   -1.7710 C.2   198  PHE198      0.2290
     73  O         17.8780  -19.6790   -1.1640 O.2   198  PHE198     -0.2864
     74  CB        18.8950  -17.8220    0.4610 C.3   198  PHE198      0.0560
     75  CG        19.3660  -16.6700    1.3080 C.ar  198  PHE198     -0.0200
     76  CD1       20.6080  -16.0870    1.1140 C.ar  198  PHE198     -0.0042
     77  CD2       18.5650  -16.1910    2.3370 C.ar  198  PHE198     -0.0042
     78  CE1       21.0270  -15.0310    1.9220 C.ar  198  PHE198     -0.0003
     79  CE2       18.9850  -15.1490    3.1460 C.ar  198  PHE198     -0.0003
     80  CZ        20.2130  -14.5730    2.9390 C.ar  198  PHE198     -0.0000
     81  N         11.8060  -12.7590   10.1380 N.3   213  VAL213     -0.1245
     82  CA        11.9130  -11.4600    9.4700 C.3   213  VAL213      0.1561
     83  C         10.6080  -10.7020    9.6360 C.2   213  VAL213      0.2260
     84  O         10.6280   -9.5050    9.9730 O.2   213  VAL213     -0.2867
     85  CB        12.2970  -11.5960    7.9880 C.3   213  VAL213      0.0252
     86  CG1       12.1900  -10.2380    7.2460 C.3   213  VAL213      0.0019
     87  CG2       13.7040  -12.1930    7.8660 C.3   213  VAL213      0.0019
     88  N         10.4210   -9.2860   13.0210 N.3   216  ASN216     -0.1225
     89  CA        11.3550   -8.1680   13.0330 C.3   216  ASN216      0.1785
     90  C         10.6430   -6.9020   12.5220 C.2   216  ASN216      0.2597
     91  O         10.6610   -5.8640   13.1970 O.2   216  ASN216     -0.2718
     92  CB        12.6050   -8.5340   12.1940 C.3   216  ASN216      0.1169
     93  CG        13.7760   -7.5830   12.3670 C.2   216  ASN216      0.2627
     94  OD1       13.8480   -6.8030   13.3040 O.2   216  ASN216     -0.2716
     95  ND2       14.7310   -7.6870   11.4570 N.am  216  ASN216     -0.0877
     96  N          9.9580   -7.0140   11.3800 N.am  217  TYR217     -0.1976
     97  CA         9.2120   -5.8810   10.7960 C.3   217  TYR217      0.1639
     98  C          8.0540   -5.3540   11.6460 C.2   217  TYR217      0.2290
     99  O          7.8810   -4.1460   11.7190 O.2   217  TYR217     -0.2864
    100  CB         8.7500   -6.1730    9.3430 C.3   217  TYR217      0.0560
    101  CG         9.8260   -5.8570    8.3330 C.ar  217  TYR217     -0.0198
    102  CD1        9.9520   -4.5790    7.8230 C.ar  217  TYR217     -0.0009
    103  CD2       10.7540   -6.8050    7.9460 C.ar  217  TYR217     -0.0009
    104  CE1       10.9280   -4.2650    6.9080 C.ar  217  TYR217      0.0417
    105  CE2       11.7500   -6.5040    7.0370 C.ar  217  TYR217      0.0417
    106  CZ        11.8200   -5.2210    6.5270 C.ar  217  TYR217      0.1957
    107  OH        12.7970   -4.8840    5.6490 O.3   217  TYR217     -0.2866
    108  N         16.2290   -8.3730   15.1080 N.3   232  THR232     -0.1218
    109  CA        17.2290   -8.3730   14.0250 C.3   232  THR232      0.1862
    110  C         18.3930   -9.3420   14.3020 C.2   232  THR232      0.2287
    111  O         18.7440  -10.1360   13.4180 O.2   232  THR232     -0.2866
    112  CB        17.7590   -6.9570   13.7500 C.3   232  THR232      0.1770
    113  OG1       16.6510   -6.1160   13.4050 O.3   232  THR232     -0.2211
    114  CG2       18.7790   -6.9280   12.6180 C.3   232  THR232      0.0375
    115  N         17.2920  -12.8990   13.7340 N.3   235  VAL235     -0.1231
    116  CA        17.2910  -13.2590   12.3200 C.3   235  VAL235      0.1692
    117  C         18.7000  -13.6380   11.8930 C.2   235  VAL235      0.2591
    118  O         18.8870  -14.6530   11.2010 O.2   235  VAL235     -0.2718
    119  CB        16.7860  -12.1160   11.4000 C.3   235  VAL235      0.0266
    120  CG1       17.0320  -12.4540    9.9380 C.3   235  VAL235      0.0020
    121  CG2       15.3180  -11.8630   11.6200 C.3   235  VAL235      0.0020
    122  N         19.6800  -12.8290   12.2940 N.am  236  MET236     -0.1979
    123  CA        21.0430  -13.0210   11.8100 C.3   236  MET236      0.1605
    124  C         21.7340  -14.2100   12.4740 C.2   236  MET236      0.2287
    125  O         22.4570  -14.9360   11.7830 O.2   236  MET236     -0.2864
    126  CB        21.8620  -11.7450   11.9550 C.3   236  MET236      0.0413
    127  CG        21.2490  -10.5640   11.2290 C.3   236  MET236      0.0598
    128  SD        20.8270  -10.7770    9.4690 S.3   236  MET236     -0.1393
    129  CE        19.6970   -9.3920    9.2930 C.3   236  MET236      0.0692
    130  N         20.3860  -17.1910   10.4820 N.3   239  ILE239     -0.1245
    131  CA        21.0910  -17.2850    9.1880 C.3   239  ILE239      0.1561
    132  C         22.5460  -17.7770    9.3350 C.2   239  ILE239      0.2260
    133  O         22.9730  -18.6680    8.5890 O.2   239  ILE239     -0.2867
    134  CB        21.0340  -15.9500    8.4080 C.3   239  ILE239      0.0252
    135  CG1       19.6070  -15.7060    7.9020 C.3   239  ILE239      0.0019
    136  CG2       21.9970  -15.9210    7.2340 C.3   239  ILE239      0.0019
    137  CD1       19.3700  -14.2900    7.3980 C.3   239  ILE239      0.0001
    138  N         24.8890   -8.8570    5.8170 N.3   265  ILE265     -0.1231
    139  CA        24.0650   -9.9380    5.2800 C.3   265  ILE265      0.1692
    140  C         22.9890   -9.3890    4.3470 C.2   265  ILE265      0.2591
    141  O         22.8180   -9.8970    3.2320 O.2   265  ILE265     -0.2718
    142  CB        23.4220  -10.7880    6.3980 C.3   265  ILE265      0.0266
    143  CG1       24.5020  -11.5820    7.1230 C.3   265  ILE265      0.0019
    144  CG2       22.3590  -11.7370    5.8170 C.3   265  ILE265      0.0020
    145  CD1       24.0660  -12.1750    8.4460 C.3   265  ILE265      0.0001
    146  N         22.2880   -8.3580    4.8100 N.am  266  ILE266     -0.1980
    147  CA        21.2810   -7.6550    4.0040 C.3   266  ILE266      0.1595
    148  C         21.8820   -7.1450    2.6830 C.2   266  ILE266      0.2287
    149  O         21.2780   -7.3070    1.6240 O.2   266  ILE266     -0.2864
    150  CB        20.6000   -6.5050    4.7970 C.3   266  ILE266      0.0276
    151  CG1       19.7010   -7.0860    5.8940 C.3   266  ILE266      0.0022
    152  CG2       19.7340   -5.6280    3.8780 C.3   266  ILE266      0.0022
    153  CD1       19.2460   -6.0930    6.9480 C.3   266  ILE266      0.0001
    154  N         23.0760  -11.8410   -4.1240 N.3   270  LYS270     -0.1245
    155  CA        22.3360  -13.0820   -4.3560 C.3   270  LYS270      0.1561
    156  C         23.3320  -14.2190   -4.5130 C.2   270  LYS270      0.2260
    157  O         24.3390  -14.0650   -5.1940 O.2   270  LYS270     -0.2867
    158  CB        21.4870  -13.0340   -5.6210 C.3   270  LYS270      0.0271
    159  CG        20.3730  -11.9940   -5.6580 C.3   270  LYS270      0.0035
    160  CD        19.6020  -12.0900   -6.9810 C.3   270  LYS270      0.0206
    161  CE        19.3440  -10.7230   -7.6240 C.3   270  LYS270      0.1093
    162  NZ        18.3910   -9.9030   -6.8410 N.3   270  LYS270     -0.1314
    163  N         10.7380   -7.9150   -7.3960 N.3   318  ILE318     -0.1245
    164  CA         9.8710   -8.4490   -6.3540 C.3   318  ILE318      0.1561
    165  C          8.3830   -8.2370   -6.6940 C.2   318  ILE318      0.2260
    166  O          7.5690   -9.1620   -6.5160 O.2   318  ILE318     -0.2867
    167  CB        10.2300   -7.8780   -4.9630 C.3   318  ILE318      0.0252
    168  CG1       11.6890   -8.2220   -4.5780 C.3   318  ILE318      0.0019
    169  CG2        9.2240   -8.3340   -3.9130 C.3   318  ILE318      0.0019
    170  CD1       12.1130   -9.6760   -4.8160 C.3   318  ILE318      0.0001
    171  N         14.7860   -5.8530  -13.3430 N.3   420  ALA420     -0.1245
    172  CA        14.6080   -6.0240  -11.9000 C.3   420  ALA420      0.1562
    173  C         14.8970   -4.7170  -11.1530 C.2   420  ALA420      0.2260
    174  O         14.0880   -4.2840  -10.3370 O.2   420  ALA420     -0.2867
    175  CB        15.5070   -7.1370  -11.3540 C.3   420  ALA420      0.0290
    176  N         12.0000   -2.6440   -9.2540 N.3   424  ASN424     -0.1240
    177  CA        12.1730   -2.5650   -7.7840 C.3   424  ASN424      0.1653
    178  C         12.2460   -1.1010   -7.3050 C.2   424  ASN424      0.2266
    179  O         11.5060   -0.7210   -6.3890 O.2   424  ASN424     -0.2867
    180  CB        13.4150   -3.3310   -7.3160 C.3   424  ASN424      0.1155
    181  CG        13.2120   -4.8500   -7.2910 C.2   424  ASN424      0.2627
    182  OD1       12.0830   -5.3500   -7.1410 O.2   424  ASN424     -0.2716
    183  ND2       14.3200   -5.5930   -7.4090 N.am  424  ASN424     -0.0877
@<TRIPOS>BOND
     1   171   172    1
     2   172   175    1
     3   172   173    1
     4   173   174    2
     5   176   177    1
     6    60    58   am
     7   177   180    1
     8   177   178    1
     9   161   160    1
    10   161   162    1
    11   183   181   am
    12   163   164    1
    13   180   181    1
    14   178   179    2
    15   181   182    2
    16    58    57    1
    17    58    59    2
    18   160   159    1
    19   165   166    2
    20   165   164    1
    21    57    56    1
    22   164   167    1
    23   159   158    1
    24   158   155    1
    25   157   156    2
    26    56    53    1
    27    55    54    2
    28   167   168    1
    29   167   169    1
    30   170   168    1
    31    53    54    1
    32    53    52    1
    33   156   155    1
    34   155   154    1
    35    54    61   am
    36    61    62    1
    37    62    63    1
    38    62    65    1
    39    64    63    2
    40    63    70   am
    41    36    37    1
    42    72    73    2
    43    72    71    1
    44    39    38    2
    45    23    22    1
    46    20    22   ar
    47    20    18   ar
    48    70    71    1
    49    37    38    1
    50    37    40    1
    51    65    66    1
    52    41    40    1
    53    41    43    1
    54    38    44   am
    55    71    74    1
    56    22    21   ar
    57    18    17   ar
    58    66    67    1
    59    40    42    1
    60    47    46    2
    61    46    45    1
    62    44    45    1
    63    67    68    1
    64    69    68    1
    65    21    19   ar
    66    74    75    1
    67    17    19   ar
    68    17    16    1
    69    45    48    1
    70    76    75   ar
    71    76    78   ar
    72    16    13    1
    73    75    77   ar
    74    27    26    2
    75    12    13    1
    76    13    14    1
    77   149   148    2
    78    26    25    1
    79    24    25    1
    80    48    49    1
    81    78    80   ar
    82    25    28    1
    83    77    79   ar
    84   148   147    1
    85    15    14    2
    86    80    79   ar
    87    49    51    1
    88    49    50    1
    89   141   140    2
    90    30    32   ar
    91    30    29   ar
    92    28    29    1
    93    32    34   ar
    94    29    31   ar
    95   152   150    1
    96    34    35    1
    97    34    33   ar
    98   147   150    1
    99   147   146    1
   100    31    33   ar
   101   140   146   am
   102   140   139    1
   103   150   151    1
   104   139   138    1
   105   139   142    1
   106   107   106    1
   107   144   142    1
   108   151   153    1
   109   142   143    1
   110   106   104   ar
   111   106   105   ar
   112   104   102   ar
   113   105   103   ar
   114   143   145    1
   115   136   134    1
   116    86    85    1
   117   137   135    1
   118   102   101   ar
   119    87    85    1
   120   135   134    1
   121   103   101   ar
   122    85    82    1
   123   101   100    1
   124   134   131    1
   125   133   132    2
   126   131   132    1
   127   131   130    1
   128   129   128    1
   129    11    10   ar
   130    11     9   ar
   131    10     8   ar
   132   100    97    1
   133   128   127    1
   134    82    83    1
   135    82    81    1
   136    83    84    2
   137     9     7   ar
   138     8     6   ar
   139   120   119    1
   140     7     6   ar
   141     6     5    1
   142     1     2    1
   143    97    96    1
   144    97    98    1
   145   118   117    2
   146   127   126    1
   147     5     2    1
   148    96    90   am
   149   119   121    1
   150   119   116    1
   151    95    93   am
   152    98    99    2
   153   125   124    2
   154     2     3    1
   155   123   126    1
   156   123   122    1
   157   123   124    1
   158   117   122   am
   159   117   116    1
   160     4     3    2
   161    92    93    1
   162    92    89    1
   163   116   115    1
   164    93    94    2
   165    90    89    1
   166    90    91    2
   167   114   112    1
   168    88    89    1
   169   113   112    1
   170   111   110    2
   171   112   109    1
   172   109   110    1
   173   109   108    1
