@<TRIPOS>MOLECULE
tmp/5oktB00.pdb
 186 174 0 0 0
SMALL
GASTEIGER

@<TRIPOS>ATOM
      1  N         -7.3450  -38.0960  -79.5690 N.3    11  LYS11      -0.1231
      2  CA        -6.9240  -37.8960  -78.1870 C.3    11  LYS11       0.1693
      3  C         -5.4020  -37.9110  -78.0950 C.2    11  LYS11       0.2592
      4  O         -4.7350  -38.7280  -78.7360 O.2    11  LYS11      -0.2718
      5  CB        -7.5190  -38.9780  -77.2760 C.3    11  LYS11       0.0285
      6  CG        -6.9510  -38.9410  -75.8530 C.3    11  LYS11       0.0035
      7  CD        -7.5580  -39.9790  -74.9110 C.3    11  LYS11       0.0206
      8  CE        -9.0750  -39.9610  -74.9050 C.3    11  LYS11       0.1093
      9  NZ        -9.6180  -40.8070  -73.8050 N.3    11  LYS11      -0.1314
     10  N         -4.8520  -37.0010  -77.2860 N.am   12  ILE12      -0.1966
     11  CA        -3.4030  -36.8710  -77.1390 C.3    12  ILE12       0.1727
     12  C         -2.9980  -36.8400  -75.6710 C.2    12  ILE12       0.2616
     13  O         -1.9060  -36.3670  -75.3360 O.2    12  ILE12      -0.2715
     14  CB        -2.8850  -35.6050  -77.8460 C.3    12  ILE12       0.0290
     15  CG1       -3.4910  -34.3550  -77.1930 C.3    12  ILE12       0.0022
     16  CG2       -3.1800  -35.6770  -79.3340 C.3    12  ILE12       0.0023
     17  CD1       -3.0360  -33.0460  -77.8020 C.3    12  ILE12       0.0001
     18  N         -3.8510  -37.3330  -74.7880 N.am   13  GLY13      -0.1955
     19  CA        -3.5350  -37.3210  -73.3730 C.3    13  GLY13       0.1869
     20  C         -4.7880  -37.2080  -72.5270 C.2    13  GLY13       0.2309
     21  O         -5.8930  -36.9990  -73.0250 O.2    13  GLY13      -0.2863
     22  N         -7.9110  -34.8240  -73.1690 N.3    20  ILE20      -0.1245
     23  CA        -7.3820  -33.7880  -74.0460 C.3    20  ILE20       0.1561
     24  C         -7.3070  -34.3570  -75.4540 C.2    20  ILE20       0.2260
     25  O         -6.7830  -35.4590  -75.6610 O.2    20  ILE20      -0.2867
     26  CB        -5.9930  -33.3150  -73.5810 C.3    20  ILE20       0.0252
     27  CG1       -5.9750  -33.0460  -72.0700 C.3    20  ILE20       0.0019
     28  CG2       -5.5630  -32.0740  -74.3620 C.3    20  ILE20       0.0019
     29  CD1       -6.9370  -31.9710  -71.6110 C.3    20  ILE20       0.0001
     30  N         -6.4760  -33.3290  -79.7210 N.3    22  LEU22      -0.1245
     31  CA        -5.9250  -32.3610  -80.6520 C.3    22  LEU22       0.1561
     32  C         -7.0460  -31.7900  -81.5040 C.2    22  LEU22       0.2260
     33  O         -7.9640  -32.5060  -81.9120 O.2    22  LEU22      -0.2867
     34  CB        -4.8590  -32.9930  -81.5450 C.3    22  LEU22       0.0270
     35  CG        -4.1520  -31.9720  -82.4440 C.3    22  LEU22       0.0019
     36  CD1       -3.2190  -31.0890  -81.6320 C.3    22  LEU22       0.0001
     37  CD2       -3.4020  -32.6670  -83.5480 C.3    22  LEU22       0.0001
     38  N         -3.2910  -25.1340  -84.6300 N.3    31  GLU31      -0.1245
     39  CA        -3.6950  -26.2750  -83.8260 C.3    31  GLU31       0.1567
     40  C         -3.9550  -25.8370  -82.3960 C.2    31  GLU31       0.2260
     41  O         -3.3370  -24.9010  -81.8840 O.2    31  GLU31      -0.2867
     42  CB        -2.6470  -27.3890  -83.8360 C.3    31  GLU31       0.0388
     43  CG        -2.2800  -27.8960  -85.2060 C.3    31  GLU31       0.1160
     44  CD        -1.3960  -29.1290  -85.1420 C.2    31  GLU31       0.3649
     45  OE1       -0.2020  -29.0030  -84.8080 O.co2  31  GLU31      -0.2457
     46  OE2       -1.9050  -30.2360  -85.4140 O.co2  31  GLU31      -0.2457
     47  N         -5.5150  -27.3840  -78.3040 N.3    33  ALA33      -0.1245
     48  CA        -5.8420  -28.4960  -77.4270 C.3    33  ALA33       0.1562
     49  C         -7.2750  -28.3200  -76.9510 C.2    33  ALA33       0.2260
     50  O         -7.6790  -27.2190  -76.5640 O.2    33  ALA33      -0.2867
     51  CB        -4.8830  -28.5640  -76.2390 C.3    33  ALA33       0.0290
     52  N        -10.2600  -29.8550  -74.4190 N.3    35  LYS35      -0.1245
     53  CA       -10.6280  -30.6780  -73.2760 C.3    35  LYS35       0.1561
     54  C        -12.1340  -30.8970  -73.2920 C.2    35  LYS35       0.2260
     55  O        -12.9050  -29.9410  -73.4330 O.2    35  LYS35      -0.2867
     56  CB       -10.2020  -30.0190  -71.9610 C.3    35  LYS35       0.0271
     57  CG       -10.3640  -30.9210  -70.7420 C.3    35  LYS35       0.0035
     58  CD        -9.6560  -30.3580  -69.5110 C.3    35  LYS35       0.0206
     59  CE        -9.5030  -31.4160  -68.4260 C.3    35  LYS35       0.1093
     60  NZ        -8.8320  -30.8970  -67.2000 N.3    35  LYS35      -0.1314
     61  N        -13.0250  -25.0890  -64.0700 N.3    49  GLU49      -0.1245
     62  CA       -11.6060  -25.0380  -64.4020 C.3    49  GLU49       0.1567
     63  C        -11.3320  -23.9510  -65.4300 C.2    49  GLU49       0.2260
     64  O        -10.3150  -23.2510  -65.3510 O.2    49  GLU49      -0.2867
     65  CB       -11.1330  -26.3910  -64.9300 C.3    49  GLU49       0.0388
     66  CG        -9.6220  -26.5060  -65.0370 C.3    49  GLU49       0.1160
     67  CD        -9.1760  -27.8090  -65.6680 C.2    49  GLU49       0.3649
     68  OE1      -10.0450  -28.5620  -66.1540 O.co2  49  GLU49      -0.2457
     69  OE2       -7.9560  -28.0730  -65.6880 O.co2  49  GLU49      -0.2457
     70  N         -8.6500  -20.7690  -65.5270 N.3    53  TYR53      -0.1241
     71  CA        -7.7500  -20.4440  -66.6300 C.3    53  TYR53       0.1605
     72  C         -7.9870  -19.0190  -67.1110 C.2    53  TYR53       0.2264
     73  O         -7.0330  -18.2730  -67.3620 O.2    53  TYR53      -0.2867
     74  CB        -7.9490  -21.4170  -67.7930 C.3    53  TYR53       0.0534
     75  CG        -7.1880  -22.7270  -67.7050 C.ar   53  TYR53      -0.0201
     76  CD1       -5.7990  -22.7610  -67.7610 C.ar   53  TYR53      -0.0009
     77  CD2       -7.8660  -23.9380  -67.6190 C.ar   53  TYR53      -0.0009
     78  CE1       -5.1100  -23.9600  -67.7020 C.ar   53  TYR53       0.0417
     79  CE2       -7.1850  -25.1390  -67.5630 C.ar   53  TYR53       0.0417
     80  CZ        -5.8090  -25.1450  -67.6060 C.ar   53  TYR53       0.1957
     81  OH        -5.1270  -26.3390  -67.5520 O.3    53  TYR53      -0.2866
     82  N         -1.5030  -21.4110  -70.1510 N.3    63  PRO63      -0.2116
     83  CA        -2.0230  -21.5800  -71.5110 C.3    63  PRO63       0.1372
     84  C         -3.2170  -20.6760  -71.7720 C.2    63  PRO63       0.2244
     85  O         -4.0440  -20.4250  -70.8920 O.2    63  PRO63      -0.2868
     86  CB        -2.4250  -23.0580  -71.5690 C.3    63  PRO63       0.0268
     87  CG        -2.5540  -23.4930  -70.1590 C.3    63  PRO63       0.0207
     88  CD        -1.6460  -22.6360  -69.3420 C.3    63  PRO63       0.0892
     89  N        -13.5720  -27.1480  -73.7200 N.3    77  MET77      -0.1245
     90  CA       -12.6160  -26.0900  -73.4240 C.3    77  MET77       0.1570
     91  C        -11.5100  -26.1720  -74.4620 C.2    77  MET77       0.2261
     92  O        -10.8200  -27.1920  -74.5540 O.2    77  MET77      -0.2867
     93  CB       -12.0440  -26.2320  -72.0100 C.3    77  MET77       0.0387
     94  CG       -11.2110  -25.0380  -71.5570 C.3    77  MET77       0.0595
     95  SD       -10.6440  -25.1690  -69.8440 S.3    77  MET77      -0.1393
     96  CE        -9.5450  -26.5760  -69.9760 C.3    77  MET77       0.0692
     97  N         -7.9670  -24.7750  -75.8220 N.3    79  MET79      -0.1230
     98  CA        -6.7560  -24.1260  -75.3470 C.3    79  MET79       0.1702
     99  C         -5.7400  -24.0540  -76.4800 C.2    79  MET79       0.2592
    100  O         -5.7850  -24.8390  -77.4320 O.2    79  MET79      -0.2718
    101  CB        -6.1330  -24.8850  -74.1640 C.3    79  MET79       0.0401
    102  CG        -7.1090  -25.2340  -73.0480 C.3    79  MET79       0.0596
    103  SD        -7.6120  -23.7730  -72.1240 S.3    79  MET79      -0.1393
    104  CE        -6.1220  -23.4510  -71.1870 C.3    79  MET79       0.0692
    105  N         -4.8110  -23.1080  -76.3710 N.am   80  GLU80      -0.1966
    106  CA        -3.6570  -23.1380  -77.2560 C.3    80  GLU80       0.1733
    107  C         -2.9160  -24.4500  -77.0610 C.2    80  GLU80       0.2616
    108  O         -2.8160  -24.9660  -75.9440 O.2    80  GLU80      -0.2715
    109  CB        -2.7150  -21.9650  -76.9860 C.3    80  GLU80       0.0429
    110  CG        -1.9710  -22.0220  -75.6570 C.3    80  GLU80       0.1163
    111  CD        -0.8530  -21.0050  -75.5940 C.2    80  GLU80       0.3649
    112  OE1        0.0280  -21.0430  -76.4810 O.co2  80  GLU80      -0.2457
    113  OE2       -0.8550  -20.1700  -74.6670 O.co2  80  GLU80      -0.2457
    114  N         -2.4060  -25.0000  -78.1530 N.am   81  LEU81      -0.1963
    115  CA        -1.6270  -26.2220  -78.0590 C.3    81  LEU81       0.1728
    116  C         -0.2590  -25.9100  -77.4710 C.2    81  LEU81       0.2616
    117  O          0.3960  -24.9430  -77.8720 O.2    81  LEU81      -0.2715
    118  CB        -1.4700  -26.8690  -79.4340 C.3    81  LEU81       0.0311
    119  CG        -0.8040  -28.2500  -79.4270 C.3    81  LEU81       0.0022
    120  CD1       -1.6760  -29.2850  -78.7150 C.3    81  LEU81       0.0001
    121  CD2       -0.4610  -28.6870  -80.8460 C.3    81  LEU81       0.0001
    122  N          0.1650  -26.7270  -76.5160 N.am   82  LEU82      -0.1963
    123  CA         1.4890  -26.6350  -75.9240 C.3    82  LEU82       0.1728
    124  C          2.2980  -27.8590  -76.3270 C.2    82  LEU82       0.2617
    125  O          1.7840  -28.8010  -76.9350 O.2    82  LEU82      -0.2715
    126  CB         1.4140  -26.5200  -74.3950 C.3    82  LEU82       0.0311
    127  CG         0.6650  -25.3030  -73.8450 C.3    82  LEU82       0.0022
    128  CD1        0.6110  -25.3600  -72.3300 C.3    82  LEU82       0.0001
    129  CD2        1.2800  -23.9900  -74.3180 C.3    82  LEU82       0.0001
    130  N          3.5750  -27.8450  -75.9610 N.am   83  GLY83      -0.1941
    131  CA         4.4770  -28.9060  -76.3340 C.3    83  GLY83       0.1998
    132  C          4.4850  -30.0470  -75.3350 C.2    83  GLY83       0.2481
    133  O          3.5550  -30.2150  -74.5390 O.2    83  GLY83      -0.2729
    134  N          5.5420  -30.8590  -75.3600 N.am   84  PRO84      -0.2715
    135  CA         5.5820  -32.0450  -74.4960 C.3    84  PRO84       0.1536
    136  C          5.7180  -31.6880  -73.0240 C.2    84  PRO84       0.2599
    137  O          6.2050  -30.6160  -72.6560 O.2    84  PRO84      -0.2715
    138  CB         6.8140  -32.8160  -74.9910 C.3    84  PRO84       0.0310
    139  CG         7.2790  -32.1210  -76.2440 C.3    84  PRO84       0.0237
    140  CD         6.7510  -30.7300  -76.1900 C.3    84  PRO84       0.0939
    141  N          5.2670  -32.6110  -72.1810 N.am   85  SER85      -0.1950
    142  CA         5.4090  -32.4850  -70.7410 C.3    85  SER85       0.1924
    143  C          6.8490  -32.7660  -70.3230 C.2    85  SER85       0.2314
    144  O          7.6410  -33.3410  -71.0730 O.2    85  SER85      -0.2863
    145  CB         4.4670  -33.4520  -70.0230 C.3    85  SER85       0.2116
    146  OG         4.9620  -34.7800  -70.1000 O.3    85  SER85      -0.2180
    147  N          7.3780  -36.4940  -70.4100 N.3    88  ASP88      -0.1239
    148  CA         7.6950  -36.9370  -71.7650 C.3    88  ASP88       0.1674
    149  C          9.1380  -36.6000  -72.1260 C.2    88  ASP88       0.2266
    150  O          9.8720  -37.4430  -72.6530 O.2    88  ASP88      -0.2867
    151  CB         6.7320  -36.3020  -72.7710 C.3    88  ASP88       0.1410
    152  CG         5.3020  -36.7850  -72.6070 C.2    88  ASP88       0.3668
    153  OD1        5.0960  -37.8960  -72.0760 O.co2  88  ASP88      -0.2456
    154  OD2        4.3800  -36.0550  -73.0300 O.co2  88  ASP88      -0.2456
    155  N          4.4150  -28.3150  -69.1060 N.3   132  LEU132     -0.1245
    156  CA         4.6080  -28.5200  -70.5340 C.3   132  LEU132      0.1561
    157  C          5.4530  -27.3840  -71.0920 C.2   132  LEU132      0.2260
    158  O          5.2860  -26.2250  -70.7000 O.2   132  LEU132     -0.2867
    159  CB         3.2580  -28.5770  -71.2790 C.3   132  LEU132      0.0270
    160  CG         2.5120  -29.9160  -71.3780 C.3   132  LEU132      0.0019
    161  CD1        2.3600  -30.5730  -70.0200 C.3   132  LEU132      0.0001
    162  CD2        1.1370  -29.7290  -72.0350 C.3   132  LEU132      0.0001
    163  N          5.5480  -24.2020  -77.5880 N.3   135  LEU135     -0.1245
    164  CA         5.9190  -24.5340  -78.9560 C.3   135  LEU135      0.1561
    165  C          6.5250  -23.3230  -79.6550 C.2   135  LEU135      0.2260
    166  O          6.1900  -22.1730  -79.3530 O.2   135  LEU135     -0.2867
    167  CB         4.7020  -25.0310  -79.7470 C.3   135  LEU135      0.0270
    168  CG         4.1510  -26.4050  -79.3640 C.3   135  LEU135      0.0019
    169  CD1        2.8580  -26.6710  -80.1170 C.3   135  LEU135      0.0001
    170  CD2        5.1720  -27.4980  -79.6580 C.3   135  LEU135      0.0001
    171  N         -0.2590  -26.6310  -66.2120 N.3   145  ILE145     -0.1231
    172  CA        -1.5950  -26.9490  -66.6890 C.3   145  ILE145      0.1692
    173  C         -2.3830  -27.6460  -65.5870 C.2   145  ILE145      0.2592
    174  O         -1.8490  -28.0250  -64.5420 O.2   145  ILE145     -0.2718
    175  CB        -1.5710  -27.8410  -67.9500 C.3   145  ILE145      0.0266
    176  CG1       -0.8760  -29.1780  -67.6580 C.3   145  ILE145      0.0019
    177  CG2       -0.8850  -27.1240  -69.1020 C.3   145  ILE145      0.0020
    178  CD1       -1.2160  -30.2660  -68.6480 C.3   145  ILE145      0.0001
    179  N         -3.6790  -27.8070  -65.8550 N.am  146  ASP146     -0.1974
    180  CA        -4.5770  -28.6540  -65.0800 C.3   146  ASP146      0.1709
    181  C         -4.8910  -28.0940  -63.6950 C.2   146  ASP146      0.2293
    182  O         -4.1920  -28.3910  -62.7210 O.2   146  ASP146     -0.2864
    183  CB        -3.9900  -30.0600  -64.9640 C.3   146  ASP146      0.1436
    184  CG        -5.0560  -31.1080  -64.7610 C.2   146  ASP146      0.3671
    185  OD1       -6.0220  -30.8250  -64.0260 O.co2 146  ASP146     -0.2456
    186  OD2       -4.9420  -32.2070  -65.3380 O.co2 146  ASP146     -0.2456
@<TRIPOS>BOND
     1    46    44   ar
     2    43    44    1
     3    43    42    1
     4    44    45   ar
     5    38    39    1
     6    42    39    1
     7    39    40    1
     8    37    35    1
     9    35    36    1
    10    35    34    1
    11    40    41    2
    12    33    32    2
    13    34    31    1
    14    32    31    1
    15   121   119    1
    16    31    30    1
    17   169   168    1
    18   167   168    1
    19   167   164    1
    20   170   168    1
    21   165   166    2
    22   165   164    1
    23     1     2    1
    24   118   119    1
    25   118   115    1
    26   119   120    1
    27    16    14    1
    28   164   163    1
    29     4     3    2
    30    47    48    1
    31     2     3    1
    32     2     5    1
    33   114   115    1
    34   114   107   am
    35     3    10   am
    36   115   116    1
    37   117   116    2
    38    14    15    1
    39    14    11    1
    40    17    15    1
    41   116   122   am
    42   100    99    2
    43    48    49    1
    44    48    51    1
    45    10    11    1
    46     5     6    1
    47   106   107    1
    48   106   109    1
    49   106   105    1
    50    11    12    1
    51   107   108    2
    52   109   110    1
    53    49    50    2
    54   125   124    2
    55   122   123    1
    56   112   111   ar
    57    99   105   am
    58    99    98    1
    59   131   130    1
    60   131   132    1
    61   124   130   am
    62   124   123    1
    63   139   140    1
    64   139   138    1
    65   140   134    1
    66   123   126    1
    67     6     7    1
    68    97    98    1
    69    12    13    2
    70    12    18   am
    71    25    24    2
    72   110   111    1
    73   111   113   ar
    74    24    23    1
    75   134   132   am
    76   134   135    1
    77    98   101    1
    78   132   133    2
    79   138   135    1
    80     7     8    1
    81     8     9    1
    82    18    19    1
    83    92    91    2
    84   135   136    1
    85    91    90    1
    86    52    53    1
    87   126   127    1
    88    28    26    1
    89   129   127    1
    90   101   102    1
    91    23    26    1
    92    23    22    1
    93   127   128    1
    94    89    90    1
    95    26    27    1
    96    55    54    2
    97    90    93    1
    98    19    20    1
    99    54    53    1
   100    53    56    1
   101   102   103    1
   102   154   152   ar
   103    21    20    2
   104   136   137    2
   105   136   141   am
   106   151   152    1
   107   151   148    1
   108   150   149    2
   109   152   153   ar
   110   141   142    1
   111   149   148    1
   112   103   104    1
   113    27    29    1
   114   162   160    1
   115    93    94    1
   116    56    57    1
   117    84    83    1
   118    84    85    2
   119   148   147    1
   120    86    83    1
   121    86    87    1
   122    94    95    1
   123    83    82    1
   124   160   159    1
   125   160   161    1
   126   159   156    1
   127   157   158    2
   128   157   156    1
   129   144   143    2
   130    57    58    1
   131   142   143    1
   132   142   145    1
   133   156   155    1
   134    87    88    1
   135    82    88    1
   136   146   145    1
   137    96    95    1
   138    58    59    1
   139   177   175    1
   140   178   176    1
   141    59    60    1
   142   175   176    1
   143   175   172    1
   144    74    75    1
   145    74    71    1
   146    76    75   ar
   147    76    78   ar
   148    75    77   ar
   149    78    80   ar
   150    77    79   ar
   151    80    79   ar
   152    80    81    1
   153    73    72    2
   154    72    71    1
   155   172   171    1
   156   172   173    1
   157    71    70    1
   158    68    67   ar
   159   179   173   am
   160   179   180    1
   161    69    67   ar
   162    67    66    1
   163   173   174    2
   164    63    64    2
   165    63    62    1
   166   186   184   ar
   167   180   183    1
   168   180   181    1
   169    66    65    1
   170   183   184    1
   171    65    62    1
   172   184   185   ar
   173    62    61    1
   174   181   182    2
