@<TRIPOS>MOLECULE
tmp/5ol2F03.pdb
 200 190 0 0 0
SMALL
GASTEIGER

@<TRIPOS>ATOM
      1  N        -84.5600  -23.8170   45.0730 N.3    92  LEU92      -0.1245
      2  CA       -85.2670  -24.8550   44.3630 C.3    92  LEU92       0.1561
      3  C        -85.1000  -26.2160   44.9820 C.2    92  LEU92       0.2260
      4  O        -86.0520  -26.9900   44.9680 O.2    92  LEU92      -0.2867
      5  CB       -84.7700  -24.9200   42.9310 C.3    92  LEU92       0.0270
      6  CG       -85.1690  -23.7840   42.0140 C.3    92  LEU92       0.0019
      7  CD1      -84.7650  -24.1470   40.6030 C.3    92  LEU92       0.0001
      8  CD2      -86.6760  -23.4590   42.1290 C.3    92  LEU92       0.0001
      9  N        -83.5320  -29.3820   41.5850 N.3   122  PHE122     -0.1241
     10  CA       -84.9780  -29.3980   41.4250 C.3   122  PHE122      0.1605
     11  C        -85.2540  -29.9080   40.0260 C.2   122  PHE122      0.2264
     12  O        -84.6950  -29.3820   39.0670 O.2   122  PHE122     -0.2867
     13  CB       -85.5700  -28.0030   41.6510 C.3   122  PHE122      0.0534
     14  CG       -87.0680  -27.9300   41.5430 C.ar  122  PHE122     -0.0203
     15  CD1      -87.8860  -28.3590   42.6030 C.ar  122  PHE122     -0.0042
     16  CD2      -87.6750  -27.3570   40.4420 C.ar  122  PHE122     -0.0042
     17  CE1      -89.3210  -28.2650   42.5300 C.ar  122  PHE122     -0.0003
     18  CE2      -89.0720  -27.2610   40.3740 C.ar  122  PHE122     -0.0003
     19  CZ       -89.9060  -27.7290   41.4240 C.ar  122  PHE122     -0.0000
     20  N        -88.4050  -30.8630   37.4830 N.3   124  LEU124     -0.1231
     21  CA       -89.8130  -30.7260   37.1380 C.3   124  LEU124      0.1693
     22  C        -90.0580  -30.8200   35.6600 C.2   124  LEU124      0.2592
     23  O        -91.0390  -31.4460   35.2470 O.2   124  LEU124     -0.2718
     24  CB       -90.3580  -29.3880   37.6450 C.3   124  LEU124      0.0284
     25  CG       -91.6530  -28.8280   37.0950 C.3   124  LEU124      0.0019
     26  CD1      -92.6930  -29.6480   37.6350 C.3   124  LEU124      0.0001
     27  CD2      -91.8830  -27.4150   37.5920 C.3   124  LEU124      0.0001
     28  N        -89.1760  -30.2400   34.8580 N.am  125  THR125     -0.1953
     29  CA       -89.4230  -30.0890   33.4370 C.3   125  THR125      0.1897
     30  C        -89.0460  -31.3700   32.6950 C.2   125  THR125      0.2313
     31  O        -88.1390  -32.1180   33.1030 O.2   125  THR125     -0.2863
     32  CB       -88.6880  -28.8380   32.9190 C.3   125  THR125      0.1794
     33  OG1      -89.3470  -27.6340   33.3610 O.3   125  THR125     -0.2208
     34  CG2      -88.6550  -28.8140   31.4990 C.3   125  THR125      0.0378
     35  N        -93.0680  -28.5620   29.6180 N.3   130  GLY130     -0.1210
     36  CA       -92.2120  -27.4200   29.8630 C.3   130  GLY130      0.1956
     37  C        -92.9840  -26.3450   30.5740 C.2   130  GLY130      0.2613
     38  O        -93.0620  -26.3010   31.8020 O.2   130  GLY130     -0.2717
     39  N        -93.5230  -25.4210   29.8030 N.am  131  THR131     -0.1938
     40  CA       -94.3750  -24.4110   30.4060 C.3   131  THR131      0.2028
     41  C        -95.7270  -24.9580   30.8090 C.2   131  THR131      0.2642
     42  O        -96.2810  -24.5140   31.8130 O.2   131  THR131     -0.2714
     43  CB       -94.4540  -23.2010   29.4900 C.3   131  THR131      0.1808
     44  OG1      -93.1210  -22.6880   29.3810 O.3   131  THR131     -0.2208
     45  CG2      -95.3930  -22.1690   29.9960 C.3   131  THR131      0.0379
     46  N        -96.2490  -25.9350   30.0820 N.am  132  ASP132     -0.1957
     47  CA       -97.3920  -26.7290   30.5400 C.3   132  ASP132      0.1840
     48  C        -96.8560  -27.7170   31.5780 C.2   132  ASP132      0.2622
     49  O        -96.5440  -28.8660   31.2750 O.2   132  ASP132     -0.2715
     50  CB       -98.0610  -27.4280   29.3590 C.3   132  ASP132      0.1450
     51  CG       -99.3230  -28.1240   29.7350 C.2   132  ASP132      0.3671
     52  OD1      -99.8100  -27.8640   30.8540 O.co2 132  ASP132     -0.2456
     53  OD2      -99.8400  -28.9110   28.9110 O.co2 132  ASP132     -0.2456
     54  N        -96.7680  -27.2730   32.8370 N.am  133  ALA133     -0.1963
     55  CA       -96.0410  -28.0560   33.8330 C.3   133  ALA133      0.1728
     56  C        -96.7740  -29.3300   34.2040 C.2   133  ALA133      0.2616
     57  O        -96.1620  -30.2480   34.7520 O.2   133  ALA133     -0.2715
     58  CB       -95.8030  -27.2280   35.0950 C.3   133  ALA133      0.0334
     59  N        -98.0690  -29.3850   33.9440 N.am  134  SER134     -0.1950
     60  CA       -98.9210  -30.4850   34.3360 C.3   134  SER134      0.1924
     61  C        -98.9160  -31.6270   33.3330 C.2   134  SER134      0.2314
     62  O        -99.6380  -32.6030   33.5060 O.2   134  SER134     -0.2863
     63  CB      -100.3260  -29.9480   34.5660 C.3   134  SER134      0.2116
     64  OG      -100.5520  -28.9180   33.6410 O.3   134  SER134     -0.2180
     65  N        -83.0440  -30.7850   31.2460 N.3   155  PHE155     -0.1227
     66  CA       -82.5810  -29.4340   31.6100 C.3   155  PHE155      0.1736
     67  C        -82.4370  -29.2510   33.1320 C.2   155  PHE155      0.2595
     68  O        -82.8060  -28.2390   33.6790 O.2   155  PHE155     -0.2718
     69  CB       -83.5030  -28.3230   31.0710 C.3   155  PHE155      0.0547
     70  CG       -83.4240  -28.0810   29.6070 C.ar  155  PHE155     -0.0202
     71  CD1      -82.2210  -27.9620   28.9630 C.ar  155  PHE155     -0.0042
     72  CD2      -84.5840  -27.9480   28.8660 C.ar  155  PHE155     -0.0042
     73  CE1      -82.1760  -27.7470   27.5660 C.ar  155  PHE155     -0.0003
     74  CE2      -84.5510  -27.7160   27.4960 C.ar  155  PHE155     -0.0003
     75  CZ       -83.3460  -27.6150   26.8330 C.ar  155  PHE155     -0.0000
     76  N        -81.9370  -30.1920   33.8780 N.am  156  ILE156     -0.1966
     77  CA       -82.0000  -29.9870   35.3110 C.3   156  ILE156      0.1727
     78  C        -80.7070  -29.3210   35.7820 C.2   156  ILE156      0.2616
     79  O        -79.6020  -29.8330   35.5690 O.2   156  ILE156     -0.2715
     80  CB       -82.3370  -31.3000   36.0390 C.3   156  ILE156      0.0290
     81  CG1      -83.8180  -31.6070   35.8260 C.3   156  ILE156      0.0022
     82  CG2      -81.9710  -31.2700   37.4300 C.3   156  ILE156      0.0023
     83  CD1      -84.7500  -30.3370   35.9760 C.3   156  ILE156      0.0001
     84  N        -80.8450  -28.1220   36.3440 N.am  157  THR157     -0.1951
     85  CA       -79.6870  -27.3740   36.8180 C.3   157  THR157      0.1897
     86  C        -79.0980  -28.0810   38.0110 C.2   157  THR157      0.2313
     87  O        -79.8270  -28.4700   38.9360 O.2   157  THR157     -0.2863
     88  CB       -80.0640  -25.9560   37.2550 C.3   157  THR157      0.1794
     89  OG1      -80.8110  -25.3250   36.2270 O.3   157  THR157     -0.2208
     90  CG2      -78.8380  -25.1130   37.5820 C.3   157  THR157      0.0378
     91  N       -103.2730  -32.2260   37.5570 N.3   177  ASN177     -0.1240
     92  CA      -102.3080  -31.7000   38.5040 C.3   177  ASN177      0.1653
     93  C       -102.7410  -31.8930   39.9540 C.2   177  ASN177      0.2266
     94  O       -101.9270  -31.7610   40.8950 O.2   177  ASN177     -0.2867
     95  CB      -102.0570  -30.2440   38.1490 C.3   177  ASN177      0.1155
     96  CG      -103.3180  -29.5010   37.8750 C.2   177  ASN177      0.2627
     97  OD1     -104.3780  -29.7850   38.4630 O.2   177  ASN177     -0.2716
     98  ND2     -103.2460  -28.6050   36.8880 N.am  177  ASN177     -0.0877
     99  N        -97.9710  -30.9170   42.6860 N.3   231  PHE231     -0.1241
    100  CA       -98.1290  -29.7820   41.7930 C.3   231  PHE231      0.1605
    101  C        -97.9990  -28.4720   42.5460 C.2   231  PHE231      0.2264
    102  O        -97.1420  -27.6390   42.2060 O.2   231  PHE231     -0.2867
    103  CB       -99.4620  -29.8130   41.0630 C.3   231  PHE231      0.0534
    104  CG       -99.6600  -28.6040   40.1730 C.ar  231  PHE231     -0.0203
    105  CD1      -98.9230  -28.4660   38.9960 C.ar  231  PHE231     -0.0042
    106  CD2     -100.5620  -27.6090   40.5130 C.ar  231  PHE231     -0.0042
    107  CE1      -99.0560  -27.3480   38.1610 C.ar  231  PHE231     -0.0003
    108  CE2     -100.7270  -26.5120   39.6910 C.ar  231  PHE231     -0.0003
    109  CZ       -99.9680  -26.3870   38.4940 C.ar  231  PHE231     -0.0000
    110  N        -95.1670  -25.3800   42.6030 N.3   235  MET235     -0.1245
    111  CA       -95.6150  -24.0620   42.1870 C.3   235  MET235      0.1570
    112  C        -95.1050  -23.0030   43.1530 C.2   235  MET235      0.2261
    113  O        -94.4900  -21.9990   42.7440 O.2   235  MET235     -0.2867
    114  CB       -97.1460  -24.0530   42.0800 C.3   235  MET235      0.0387
    115  CG       -97.6460  -23.3520   40.8520 C.3   235  MET235      0.0595
    116  SD       -97.0800  -24.2690   39.3560 S.3   235  MET235     -0.1393
    117  CE       -95.5500  -23.4640   38.9420 C.3   235  MET235      0.0692
    118  N        -91.4500  -22.4690   43.0040 N.3   238  LEU238     -0.1245
    119  CA       -90.9840  -21.5730   41.9600 C.3   238  LEU238      0.1561
    120  C        -91.1710  -20.1280   42.3610 C.2   238  LEU238      0.2260
    121  O        -90.2960  -19.3060   42.0900 O.2   238  LEU238     -0.2867
    122  CB       -91.6860  -21.8730   40.6320 C.3   238  LEU238      0.0270
    123  CG       -91.1150  -23.1720   40.0520 C.3   238  LEU238      0.0019
    124  CD1      -91.9790  -23.9050   39.0660 C.3   238  LEU238      0.0001
    125  CD2      -89.8060  -22.9080   39.5080 C.3   238  LEU238      0.0001
    126  N        -87.9170  -17.6920   41.6000 N.3   242  ARG242     -0.1245
    127  CA       -87.9800  -16.5510   40.7140 C.3   242  ARG242      0.1563
    128  C        -87.2820  -15.3500   41.3150 C.2   242  ARG242      0.2260
    129  O        -86.5660  -14.6260   40.6000 O.2   242  ARG242     -0.2867
    130  CB       -89.4290  -16.2670   40.3880 C.3   242  ARG242      0.0307
    131  CG       -89.9100  -17.2860   39.3680 C.3   242  ARG242      0.0489
    132  CD       -91.3900  -17.4150   39.2570 C.3   242  ARG242      0.2205
    133  NE       -91.7250  -18.4110   38.2630 N.pl3 242  ARG242     -0.0865
    134  CZ       -92.9730  -18.7910   38.0640 C.cat 242  ARG242      0.5346
    135  NH1      -93.8900  -18.2350   38.8200 N.pl3 242  ARG242      0.1354
    136  NH2      -93.3190  -19.7020   37.1470 N.pl3 242  ARG242      0.1354
    137  N        -86.0240  -17.0590   30.5200 N.3   360  ILE360     -0.1231
    138  CA       -86.5530  -18.3490   30.1220 C.3   360  ILE360      0.1692
    139  C        -86.8130  -19.2460   31.3170 C.2   360  ILE360      0.2592
    140  O        -87.9350  -19.7160   31.5130 O.2   360  ILE360     -0.2718
    141  CB       -85.6400  -19.0330   29.0920 C.3   360  ILE360      0.0266
    142  CG1      -85.5980  -18.1780   27.8180 C.3   360  ILE360      0.0019
    143  CG2      -86.1570  -20.4160   28.7680 C.3   360  ILE360      0.0020
    144  CD1      -84.7020  -18.7160   26.7960 C.3   360  ILE360      0.0001
    145  N        -85.8110  -19.4730   32.1440 N.am  361  TYR361     -0.1962
    146  CA       -85.9530  -20.6090   33.0450 C.3   361  TYR361      0.1771
    147  C        -86.5650  -20.0990   34.3510 C.2   361  TYR361      0.2619
    148  O        -86.7310  -18.8920   34.5830 O.2   361  TYR361     -0.2715
    149  CB       -84.5650  -21.2600   33.2010 C.3   361  TYR361      0.0574
    150  CG       -83.5490  -20.6350   34.1140 C.ar  361  TYR361     -0.0198
    151  CD1      -83.2880  -19.3040   34.1320 C.ar  361  TYR361     -0.0009
    152  CD2      -82.4190  -21.4000   34.3060 C.ar  361  TYR361     -0.0009
    153  CE1      -82.2500  -18.7660   34.8400 C.ar  361  TYR361      0.0417
    154  CE2      -81.2700  -20.8680   34.8960 C.ar  361  TYR361      0.0417
    155  CZ       -81.1940  -19.5470   35.1930 C.ar  361  TYR361      0.1957
    156  OH       -80.0860  -19.0220   35.8600 O.3   361  TYR361     -0.2866
    157  N        -86.9470  -21.0500   35.1790 N.am  362  GLU362     -0.1963
    158  CA       -87.7930  -20.8340   36.3270 C.3   362  GLU362      0.1733
    159  C        -89.1030  -20.1640   35.9190 C.2   362  GLU362      0.2616
    160  O        -89.7650  -19.4920   36.7250 O.2   362  GLU362     -0.2715
    161  CB       -87.0310  -20.0670   37.4100 C.3   362  GLU362      0.0429
    162  CG       -85.8410  -20.8670   38.0100 C.3   362  GLU362      0.1163
    163  CD       -85.6470  -20.5760   39.4570 C.2   362  GLU362      0.3649
    164  OE1      -86.6080  -20.0230   40.0400 O.co2 362  GLU362     -0.2457
    165  OE2      -84.5640  -20.8860   40.0220 O.co2 362  GLU362     -0.2457
    166  N        -89.5130  -20.3910   34.6790 N.am  363  GLY363     -0.1955
    167  CA       -90.6930  -19.7510   34.1260 C.3   363  GLY363      0.1869
    168  C        -90.3990  -18.6190   33.1710 C.2   363  GLY363      0.2309
    169  O        -89.6380  -17.7330   33.5520 O.2   363  GLY363     -0.2863
    170  N        -94.9500  -16.4110   30.9660 N.3   367  VAL367     -0.1245
    171  CA       -95.5440  -16.9740   32.1900 C.3   367  VAL367      0.1561
    172  C        -95.6940  -15.9010   33.2770 C.2   367  VAL367      0.2260
    173  O        -96.7520  -15.7710   33.8950 O.2   367  VAL367     -0.2867
    174  CB       -94.6980  -18.1550   32.6940 C.3   367  VAL367      0.0252
    175  CG1      -95.0680  -18.3870   34.0050 C.3   367  VAL367      0.0019
    176  CG2      -94.8970  -19.4260   31.9260 C.3   367  VAL367      0.0019
    177  N        -98.6060  -13.8100   32.4620 N.3   370  MET370     -0.1230
    178  CA       -99.8000  -14.5830   32.8440 C.3   370  MET370      0.1702
    179  C       -100.1310  -14.4430   34.3290 C.2   370  MET370      0.2592
    180  O       -101.2970  -14.2430   34.7200 O.2   370  MET370     -0.2718
    181  CB       -99.5710  -16.0410   32.5290 C.3   370  MET370      0.0401
    182  CG       -99.4040  -16.3150   31.0670 C.3   370  MET370      0.0596
    183  SD       -98.8310  -17.9770   30.7380 S.3   370  MET370     -0.1393
    184  CE      -100.3390  -18.8470   31.2410 C.3   370  MET370      0.0692
    185  N        -99.0950  -14.4770   35.1620 N.am  371  VAL371     -0.1980
    186  CA       -99.2620  -14.3180   36.5970 C.3   371  VAL371      0.1595
    187  C        -99.7660  -12.9250   36.9380 C.2   371  VAL371      0.2287
    188  O       -100.7530  -12.7530   37.6760 O.2   371  VAL371     -0.2864
    189  CB       -97.9210  -14.5580   37.2830 C.3   371  VAL371      0.0276
    190  CG1      -98.0950  -14.1040   38.6480 C.3   371  VAL371      0.0022
    191  CG2      -97.4710  -15.9880   37.1740 C.3   371  VAL371      0.0022
    192  N       -108.7840  -10.4580   38.1140 N.3   378  LYS378     -0.1245
    193  CA      -109.7990  -10.6960   39.1780 C.3   378  LYS378      0.1561
    194  C       -109.0380  -10.9730   40.4410 C.2   378  LYS378      0.2260
    195  O       -107.8180  -11.1340   40.3570 O.2   378  LYS378     -0.2867
    196  CB      -110.7470  -11.8510   38.8510 C.3   378  LYS378      0.0271
    197  CG      -112.2080  -11.5160   39.0940 C.3   378  LYS378      0.0035
    198  CD      -113.1060  -12.5190   38.3700 C.3   378  LYS378      0.0206
    199  CE      -113.2740  -12.0290   36.9040 C.3   378  LYS378      0.1093
    200  NZ      -114.1770  -12.7940   35.9730 N.3   378  LYS378     -0.1314
@<TRIPOS>BOND
     1   144   142    1
     2    75    74   ar
     3    75    73   ar
     4    74    72   ar
     5    73    71   ar
     6   142   141    1
     7   143   141    1
     8    72    70   ar
     9    53    51   ar
    10    71    70   ar
    11   141   138    1
    12    50    51    1
    13    50    47    1
    14    44    43    1
    15    43    45    1
    16    43    40    1
    17    70    69    1
    18    35    36    1
    19    51    52   ar
    20    39    40    1
    21    39    37   am
    22    36    37    1
    23    46    47    1
    24    46    41   am
    25   138   137    1
    26   138   139    1
    27    40    41    1
    28    47    48    1
    29    37    38    2
    30   183   182    1
    31   183   184    1
    32    41    42    2
    33   170   171    1
    34   182   181    1
    35    69    66    1
    36    65    66    1
    37    49    48    2
    38   139   140    2
    39   139   145   am
    40    34    32    1
    41    48    54   am
    42    66    67    1
    43   176   174    1
    44   145   146    1
    45   171   174    1
    46   171   172    1
    47   177   178    1
    48   181   178    1
    49   174   175    1
    50    30    31    2
    51    30    29    1
    52    54    55    1
    53   178   179    1
    54    32    33    1
    55    32    29    1
    56   146   149    1
    57   146   147    1
    58    67    68    2
    59    67    76   am
    60   168   169    2
    61   168   167    1
    62   149   150    1
    63   172   173    2
    64    61    62    2
    65    61    60    1
    66    29    28    1
    67    64    63    1
    68    55    56    1
    69    55    58    1
    70    76    77    1
    71    59    56   am
    72    59    60    1
    73   150   151   ar
    74   150   152   ar
    75   167   166    1
    76   151   153   ar
    77    56    57    2
    78   152   154   ar
    79   179   180    2
    80   179   185   am
    81    60    63    1
    82   147   148    2
    83   147   157   am
    84   166   159   am
    85   153   155   ar
    86    28    22   am
    87   154   155   ar
    88   185   186    1
    89   157   158    1
    90   155   156    1
    91    23    22    2
    92    77    78    1
    93    77    80    1
    94    79    78    2
    95    22    21    1
    96    78    84   am
    97    81    83    1
    98    81    80    1
    99   159   158    1
   100   159   160    2
   101   200   199    1
   102    80    82    1
   103    89    88    1
   104   158   161    1
   105    84    85    1
   106   186   187    1
   107   186   189    1
   108    85    88    1
   109    85    86    1
   110    98    96   am
   111   199   198    1
   112   187   188    2
   113    25    27    1
   114    25    26    1
   115    25    24    1
   116    21    20    1
   117    21    24    1
   118   136   134    1
   119   191   189    1
   120    88    90    1
   121   189   190    1
   122   161   162    1
   123    91    92    1
   124    96    95    1
   125    96    97    2
   126   162   163    1
   127    86    87    2
   128   134   133    2
   129   134   135    1
   130   192   193    1
   131    95    92    1
   132   107   109   ar
   133   107   105   ar
   134   133   132    1
   135   198   197    1
   136   109   108   ar
   137    92    93    1
   138   196   197    1
   139   196   193    1
   140   117   116    1
   141   105   104   ar
   142   124   123    1
   143    12    11    2
   144   193   194    1
   145   132   131    1
   146   116   115    1
   147   131   130    1
   148   163   165   ar
   149   163   164   ar
   150   125   123    1
   151   108   106   ar
   152    93    94    2
   153    11    10    1
   154   123   122    1
   155   104   106   ar
   156   104   103    1
   157   195   194    2
   158    18    16   ar
   159    18    19   ar
   160   130   127    1
   161    16    14   ar
   162   129   128    2
   163     7     6    1
   164   122   119    1
   165   127   128    1
   166   127   126    1
   167   115   114    1
   168   103   100    1
   169    19    17   ar
   170    10     9    1
   171    10    13    1
   172    14    13    1
   173    14    15   ar
   174   100   101    1
   175   100    99    1
   176   119   120    1
   177   119   118    1
   178     6     8    1
   179     6     5    1
   180   114   111    1
   181   121   120    2
   182   111   110    1
   183   111   112    1
   184   102   101    2
   185    17    15   ar
   186   113   112    2
   187     5     2    1
   188     2     3    1
   189     2     1    1
   190     4     3    2
