@<TRIPOS>MOLECULE
tmp/5olbA06.pdb
 114 115 0 0 0
SMALL
GASTEIGER

@<TRIPOS>ATOM
      1  N         29.5500   21.7930   42.6990 N.3    17  GLU17      -0.1245
      2  CA        28.2500   22.4560   42.6870 C.3    17  GLU17       0.1567
      3  C         27.5420   22.2520   44.0150 C.2    17  GLU17       0.2260
      4  O         27.3520   21.1260   44.4800 O.2    17  GLU17      -0.2867
      5  CB        27.3820   22.0680   41.4780 C.3    17  GLU17       0.0388
      6  CG        26.1910   23.0000   41.2900 C.3    17  GLU17       0.1160
      7  CD        25.8620   23.4230   39.8710 C.2    17  GLU17       0.3649
      8  OE1       24.6560   23.4560   39.5350 O.co2  17  GLU17      -0.2457
      9  OE2       26.7960   23.7640   39.1100 O.co2  17  GLU17      -0.2457
     10  N         27.8070   30.1500   38.6750 N.3    28  LEU28      -0.1245
     11  CA        26.3510   30.0860   38.5030 C.3    28  LEU28       0.1561
     12  C         25.5060   30.6120   39.6790 C.2    28  LEU28       0.2260
     13  O         24.3030   30.8290   39.4880 O.2    28  LEU28      -0.2867
     14  CB        25.9260   28.6450   38.1680 C.3    28  LEU28       0.0270
     15  CG        25.5770   28.3460   36.7140 C.3    28  LEU28       0.0019
     16  CD1       26.8220   28.0380   35.8970 C.3    28  LEU28       0.0001
     17  CD2       24.6390   27.1680   36.6350 C.3    28  LEU28       0.0001
     18  N         20.1370   31.0500   21.7780 N.3   160  PHE160     -0.1241
     19  CA        19.8980   29.8030   22.5000 C.3   160  PHE160      0.1605
     20  C         19.8430   28.5840   21.5630 C.2   160  PHE160      0.2264
     21  O         20.5680   27.6290   21.8420 O.2   160  PHE160     -0.2867
     22  CB        18.6980   29.8990   23.4480 C.3   160  PHE160      0.0534
     23  CG        19.0810   30.5190   24.7760 C.ar  160  PHE160     -0.0203
     24  CD1       19.8570   29.8160   25.6960 C.ar  160  PHE160     -0.0042
     25  CD2       18.7100   31.8200   25.0870 C.ar  160  PHE160     -0.0042
     26  CE1       20.2280   30.3980   26.9190 C.ar  160  PHE160     -0.0003
     27  CE2       19.0710   32.3970   26.3150 C.ar  160  PHE160     -0.0003
     28  CZ        19.8220   31.6800   27.2250 C.ar  160  PHE160     -0.0000
     29  N         23.7950   28.1960   20.4210 N.3   163  LEU163     -0.1231
     30  CA        24.7280   27.8120   21.4800 C.3   163  LEU163      0.1693
     31  C         24.4730   26.3720   21.9140 C.2   163  LEU163      0.2592
     32  O         25.4300   25.6060   22.0430 O.2   163  LEU163     -0.2718
     33  CB        24.6670   28.7680   22.6850 C.3   163  LEU163      0.0284
     34  CG        25.2580   30.1730   22.4930 C.3   163  LEU163      0.0019
     35  CD1       25.1650   30.9590   23.7950 C.3   163  LEU163      0.0001
     36  CD2       26.7210   30.1200   22.0120 C.3   163  LEU163      0.0001
     37  N         23.1850   25.9770   22.0490 N.am  164  TYR164     -0.1976
     38  CA        22.8640   24.6110   22.4500 C.3   164  TYR164      0.1639
     39  C         23.1860   23.6090   21.3440 C.2   164  TYR164      0.2290
     40  O         23.6020   22.4960   21.6610 O.2   164  TYR164     -0.2864
     41  CB        21.4350   24.4700   22.9950 C.3   164  TYR164      0.0560
     42  CG        21.2860   23.3220   23.9700 C.ar  164  TYR164     -0.0198
     43  CD1       22.1390   23.1930   25.0670 C.ar  164  TYR164     -0.0009
     44  CD2       20.2880   22.3690   23.8060 C.ar  164  TYR164     -0.0009
     45  CE1       22.0240   22.1220   25.9510 C.ar  164  TYR164      0.0417
     46  CE2       20.1540   21.3020   24.6890 C.ar  164  TYR164      0.0417
     47  CZ        21.0290   21.1760   25.7570 C.ar  164  TYR164      0.1957
     48  OH        20.8950   20.1220   26.6300 O.3   164  TYR164     -0.2866
     49  N         15.5940   21.4080   27.9800 N.3   204  TRP204     -0.1241
     50  CA        16.9090   21.0330   27.4720 C.3   204  TRP204      0.1605
     51  C         17.1020   19.5310   27.2410 C.2   204  TRP204      0.2264
     52  O         17.3240   18.7750   28.1940 O.2   204  TRP204     -0.2867
     53  CB        17.9930   21.5950   28.4130 C.3   204  TRP204      0.0550
     54  CG        17.7810   23.0410   28.7650 C.ar  204  TRP204      0.0003
     55  CD1       16.9670   23.5380   29.7430 C.ar  204  TRP204      0.0946
     56  CD2       18.3490   24.1760   28.0990 C.ar  204  TRP204      0.0152
     57  NE1       17.0050   24.9110   29.7370 N.ar  204  TRP204     -0.2442
     58  CE2       17.8530   25.3310   28.7440 C.ar  204  TRP204      0.0810
     59  CE3       19.2650   24.3300   27.0430 C.ar  204  TRP204      0.0012
     60  CZ2       18.2190   26.6230   28.3510 C.ar  204  TRP204      0.0191
     61  CZ3       19.6180   25.6120   26.6470 C.ar  204  TRP204      0.0001
     62  CH2       19.1130   26.7390   27.3100 C.ar  204  TRP204      0.0015
     63  N         29.5280   19.1900   28.2870 N.3   210  TRP210     -0.1241
     64  CA        29.9010   19.1020   29.7070 C.3   210  TRP210      0.1605
     65  C         29.3520   17.8340   30.3970 C.2   210  TRP210      0.2264
     66  O         30.0250   17.3010   31.2770 O.2   210  TRP210     -0.2867
     67  CB        29.5510   20.3810   30.4830 C.3   210  TRP210      0.0550
     68  CG        28.1050   20.7830   30.4520 C.ar  210  TRP210      0.0003
     69  CD1       27.1370   20.4280   31.3430 C.ar  210  TRP210      0.0946
     70  CD2       27.4760   21.6440   29.4950 C.ar  210  TRP210      0.0152
     71  NE1       25.9340   20.9970   30.9890 N.ar  210  TRP210     -0.2442
     72  CE2       26.1190   21.7680   29.8690 C.ar  210  TRP210      0.0810
     73  CE3       27.9240   22.3170   28.3440 C.ar  210  TRP210      0.0012
     74  CZ2       25.2150   22.5770   29.1600 C.ar  210  TRP210      0.0191
     75  CZ3       27.0280   23.1090   27.6370 C.ar  210  TRP210      0.0001
     76  CH2       25.6900   23.2300   28.0440 C.ar  210  TRP210      0.0015
     77  N         34.8910   19.3840   33.3890 N.3   220  ALA220     -0.1231
     78  CA        34.5390   20.5460   32.5850 C.3   220  ALA220      0.1694
     79  C         34.4020   21.8060   33.4230 C.2   220  ALA220      0.2593
     80  O         33.8940   21.7620   34.5470 O.2   220  ALA220     -0.2718
     81  CB        33.2320   20.2830   31.8510 C.3   220  ALA220      0.0304
     82  N         34.8350   22.9220   32.8480 N.am  221  GLY221     -0.1942
     83  CA        34.6590   24.2530   33.4160 C.3   221  GLY221      0.2014
     84  C         33.2460   24.7040   33.0870 C.2   221  GLY221      0.2640
     85  O         32.5240   23.9870   32.3890 O.2   221  GLY221     -0.2714
     86  N         32.8290   25.8810   33.5690 N.am  222  THR222     -0.1936
     87  CA        31.4750   26.3870   33.3120 C.3   222  THR222      0.2028
     88  C         31.2180   26.7260   31.8450 C.2   222  THR222      0.2642
     89  O         32.1330   27.1210   31.1280 O.2   222  THR222     -0.2714
     90  CB        31.1290   27.5740   34.2250 C.3   222  THR222      0.1808
     91  OG1       29.7270   27.8430   34.1340 O.3   222  THR222     -0.2208
     92  CG2       31.9170   28.8420   33.8940 C.3   222  THR222      0.0379
     93  N         29.9680   26.5670   31.4150 N.am  223  PHE223     -0.1959
     94  CA        29.5160   26.9140   30.0700 C.3   223  PHE223      0.1771
     95  C         28.4050   27.9590   30.2010 C.2   223  PHE223      0.2619
     96  O         27.5310   28.0620   29.3420 O.2   223  PHE223     -0.2715
     97  CB        29.0390   25.6640   29.3150 C.3   223  PHE223      0.0574
     98  CG        30.1220   24.9100   28.5830 C.ar  223  PHE223     -0.0200
     99  CD1       31.0260   24.1130   29.2740 C.ar  223  PHE223     -0.0042
    100  CD2       30.1860   24.9290   27.1950 C.ar  223  PHE223     -0.0042
    101  CE1       32.0030   23.3820   28.5930 C.ar  223  PHE223     -0.0003
    102  CE2       31.1710   24.2080   26.5140 C.ar  223  PHE223     -0.0003
    103  CZ        32.0720   23.4370   27.2180 C.ar  223  PHE223     -0.0000
    104  N         28.4230   28.7040   31.3160 N.am  224  PHE224     -0.1974
    105  CA        27.4610   29.7620   31.5960 C.3   224  PHE224      0.1639
    106  C         28.1350   30.8000   32.4640 C.2   224  PHE224      0.2290
    107  O         28.6290   30.5010   33.5580 O.2   224  PHE224     -0.2864
    108  CB        26.1790   29.2250   32.2630 C.3   224  PHE224      0.0560
    109  CG        25.0020   30.1820   32.2550 C.ar  224  PHE224     -0.0200
    110  CD1       24.8670   31.1580   33.2390 C.ar  224  PHE224     -0.0042
    111  CD2       24.0050   30.0770   31.2910 C.ar  224  PHE224     -0.0042
    112  CE1       23.7780   32.0380   33.2340 C.ar  224  PHE224     -0.0003
    113  CE2       22.9080   30.9470   31.2960 C.ar  224  PHE224     -0.0003
    114  CZ        22.8020   31.9220   32.2680 C.ar  224  PHE224     -0.0000
@<TRIPOS>BOND
     1    29    30    1
     2    39    40    2
     3    39    38    1
     4    30    31    1
     5    30    33    1
     6    20    21    2
     7    20    19    1
     8    18    19    1
     9    31    32    2
    10    31    37   am
    11    36    34    1
    12    37    38    1
    13    38    41    1
    14    34    33    1
    15    34    35    1
    16    19    22    1
    17    41    42    1
    18    22    23    1
    19    44    42   ar
    20    44    46   ar
    21    42    43   ar
    22    46    47   ar
    23    23    25   ar
    24    23    24   ar
    25    43    45   ar
    26    25    27   ar
    27    24    26   ar
    28    47    45   ar
    29    47    48    1
    30    27    28   ar
    31   102   100   ar
    32   102   103   ar
    33    61    59   ar
    34    61    62   ar
    35    26    28   ar
    36    59    56   ar
    37   100    98   ar
    38   103   101   ar
    39    51    50    1
    40    51    52    2
    41    62    60   ar
    42    50    49    1
    43    50    53    1
    44    75    76   ar
    45    75    73   ar
    46    76    74   ar
    47    56    58   ar
    48    56    54   ar
    49    63    64    1
    50    73    70   ar
    51    60    58   ar
    52    53    54    1
    53    98    99   ar
    54    98    97    1
    55   101    99   ar
    56    58    57   ar
    57    54    55   ar
    58    74    72   ar
    59    97    94    1
    60    96    95    2
    61    70    72   ar
    62    70    68   ar
    63    64    65    1
    64    64    67    1
    65    57    55   ar
    66    72    71   ar
    67    94    95    1
    68    94    93    1
    69    95   104   am
    70    65    66    2
    71    68    67    1
    72    68    69   ar
    73    71    69   ar
    74    89    88    2
    75   111   113   ar
    76   111   109   ar
    77   113   114   ar
    78   104   105    1
    79    93    88   am
    80   105   108    1
    81   105   106    1
    82    88    87    1
    83    81    78    1
    84   109   108    1
    85   109   110   ar
    86   114   112   ar
    87    85    84    2
    88   106   107    2
    89    78    77    1
    90    78    79    1
    91    82    83    1
    92    82    79   am
    93    84    83    1
    94    84    86   am
    95   112   110   ar
    96    87    86    1
    97    87    90    1
    98    79    80    2
    99    92    90    1
   100    91    90    1
   101    16    15    1
   102    17    15    1
   103    15    14    1
   104    14    11    1
   105    11    10    1
   106    11    12    1
   107     9     7   ar
   108    13    12    2
   109     8     7   ar
   110     7     6    1
   111     6     5    1
   112     5     2    1
   113     2     1    1
   114     2     3    1
   115     3     4    2
