@<TRIPOS>MOLECULE
tmp/5olbA02.pdb
 98 96 0 0 0
SMALL
GASTEIGER

@<TRIPOS>ATOM
      1  N         23.2830   18.6950   17.7830 N.3   170  LEU170     -0.1231
      2  CA        21.9030   18.4240   17.3800 C.3   170  LEU170      0.1693
      3  C         21.2000   19.6050   16.7350 C.2   170  LEU170      0.2592
      4  O         21.4650   20.7650   17.0740 O.2   170  LEU170     -0.2718
      5  CB        21.0690   18.0000   18.6060 C.3   170  LEU170      0.0284
      6  CG        21.4410   16.6920   19.3100 C.3   170  LEU170      0.0019
      7  CD1       20.7660   16.6130   20.6730 C.3   170  LEU170      0.0001
      8  CD2       21.0350   15.4900   18.4790 C.3   170  LEU170      0.0001
      9  N         20.2410   19.2990   15.8470 N.am  171  TYR171     -0.1976
     10  CA        19.3720   20.3170   15.2770 C.3   171  TYR171      0.1639
     11  C         18.4440   20.7640   16.4070 C.2   171  TYR171      0.2290
     12  O         18.0430   19.9160   17.2190 O.2   171  TYR171     -0.2864
     13  CB        18.4740   19.7260   14.1740 C.3   171  TYR171      0.0560
     14  CG        19.2220   19.2590   12.9540 C.ar  171  TYR171     -0.0198
     15  CD1       19.9930   20.1440   12.2000 C.ar  171  TYR171     -0.0009
     16  CD2       19.1320   17.9370   12.5230 C.ar  171  TYR171     -0.0009
     17  CE1       20.6680   19.7180   11.0550 C.ar  171  TYR171      0.0417
     18  CE2       19.7970   17.5030   11.3790 C.ar  171  TYR171      0.0417
     19  CZ        20.5930   18.3870   10.6700 C.ar  171  TYR171      0.1957
     20  OH        21.2710   17.9420    9.5620 O.3   171  TYR171     -0.2866
     21  N         15.2860   21.1470   16.5050 N.3   173  GLU173     -0.1231
     22  CA        14.0760   20.3100   16.5770 C.3   173  GLU173      0.1699
     23  C         14.3150   19.0640   17.4560 C.2   173  GLU173      0.2592
     24  O         13.3700   18.5650   18.0580 O.2   173  GLU173     -0.2718
     25  CB        13.5540   19.9300   15.1740 C.3   173  GLU173      0.0402
     26  CG        14.4060   18.8980   14.4520 C.3   173  GLU173      0.1161
     27  CD        13.9450   18.4570   13.0770 C.2   173  GLU173      0.3649
     28  OE1       12.8520   18.8720   12.6280 O.co2 173  GLU173     -0.2457
     29  OE2       14.7050   17.7030   12.4350 O.co2 173  GLU173     -0.2457
     30  N         15.5870   18.5880   17.5350 N.am  174  SER174     -0.1952
     31  CA        15.9740   17.4370   18.3540 C.3   174  SER174      0.1924
     32  C         16.4050   17.8400   19.7790 C.2   174  SER174      0.2314
     33  O         16.0090   17.1610   20.7320 O.2   174  SER174     -0.2863
     34  CB        17.0680   16.6290   17.6610 C.3   174  SER174      0.2116
     35  OG        16.5580   15.9490   16.5220 O.3   174  SER174     -0.2180
     36  N         15.7300   21.5850    8.6000 N.3   383  HIS383     -0.1241
     37  CA        15.4190   20.5470    9.6140 C.3   383  HIS383      0.1621
     38  C         14.6230   21.1730   10.7560 C.2   383  HIS383      0.2264
     39  O         14.9790   21.0100   11.9230 O.2   383  HIS383     -0.2867
     40  CB        16.7200   19.8870   10.1450 C.3   383  HIS383      0.0745
     41  CG        17.4550   19.1140    9.1040 C.ar  383  HIS383      0.0817
     42  ND1       17.0740   17.8360    8.7560 N.ar  383  HIS383     -0.2268
     43  CD2       18.5100   19.4810    8.3420 C.ar  383  HIS383      0.1154
     44  CE1       17.9090   17.4590    7.8060 C.ar  383  HIS383      0.1986
     45  NE2       18.7900   18.4170    7.5240 N.ar  383  HIS383     -0.2212
     46  N         24.8480   10.2420   20.4670 N.3   465  PRO465     -0.2102
     47  CA        24.3000   10.2610   19.0900 C.3   465  PRO465      0.1504
     48  C         23.8960   11.6800   18.7080 C.2   465  PRO465      0.2576
     49  O         23.2330   12.3570   19.4920 O.2   465  PRO465     -0.2718
     50  CB        23.0800    9.3290   19.1800 C.3   465  PRO465      0.0282
     51  CG        23.3840    8.4260   20.3370 C.3   465  PRO465      0.0208
     52  CD        24.0900    9.3050   21.3280 C.3   465  PRO465      0.0893
     53  N         24.3630   12.1590   17.5520 N.am  466  ASN466     -0.1961
     54  CA        24.1090   13.5350   17.1370 C.3   466  ASN466      0.1819
     55  C         23.9440   13.6640   15.6160 C.2   466  ASN466      0.2621
     56  O         24.0310   12.6550   14.9120 O.2   466  ASN466     -0.2715
     57  CB        25.1920   14.4780   17.7090 C.3   466  ASN466      0.1195
     58  CG        26.5530   14.2940   17.0890 C.2   466  ASN466      0.2630
     59  OD1       26.9020   14.9670   16.1290 O.2   466  ASN466     -0.2716
     60  ND2       27.3450   13.3680   17.6000 N.am  466  ASN466     -0.0877
     61  N         23.6780   14.8890   15.1170 N.am  467  ASN467     -0.1972
     62  CA        23.4090   15.1480   13.6880 C.3   467  ASN467      0.1688
     63  C         24.6450   15.4930   12.8530 C.2   467  ASN467      0.2292
     64  O         24.5390   15.6790   11.6380 O.2   467  ASN467     -0.2864
     65  CB        22.3050   16.2040   13.5160 C.3   467  ASN467      0.1181
     66  CG        21.0750   15.7950   14.2690 C.2   467  ASN467      0.2629
     67  OD1       20.5370   16.5560   15.0780 O.2   467  ASN467     -0.2716
     68  ND2       20.6180   14.5660   14.0330 N.am  467  ASN467     -0.0877
     69  N         10.0110   14.0670   10.1340 N.3   669  ASN669     -0.1225
     70  CA        11.0650   13.8470   11.1210 C.3   669  ASN669      0.1785
     71  C         12.4600   13.8000   10.4640 C.2   669  ASN669      0.2598
     72  O         13.4510   13.5320   11.1370 O.2   669  ASN669     -0.2718
     73  CB        10.7510   12.6070   11.9980 C.3   669  ASN669      0.1169
     74  CG        10.9160   11.2630   11.3270 C.2   669  ASN669      0.2627
     75  OD1       10.9600   11.1390   10.1020 O.2   669  ASN669     -0.2716
     76  ND2       11.0140   10.2100   12.1260 N.am  669  ASN669     -0.0877
     77  N         12.5180   14.0620    9.1520 N.am  670  GLY670     -0.1942
     78  CA        13.7630   14.0450    8.3880 C.3   670  GLY670      0.2014
     79  C         14.3160   12.6600    8.1140 C.2   670  GLY670      0.2638
     80  O         15.4180   12.5260    7.5770 O.2   670  GLY670     -0.2714
     81  N         13.5470   11.6150    8.4760 N.am  671  LEU671     -0.1977
     82  CA        13.9360   10.2170    8.3100 C.3   671  LEU671      0.1596
     83  C         12.9490    9.4860    7.4390 C.2   671  LEU671      0.2287
     84  O         11.7490    9.7710    7.4820 O.2   671  LEU671     -0.2864
     85  CB        14.0400    9.4880    9.6730 C.3   671  LEU671      0.0297
     86  CG        14.7780   10.2130   10.8140 C.3   671  LEU671      0.0022
     87  CD1       14.5870    9.4860   12.1180 C.3   671  LEU671      0.0001
     88  CD2       16.2550   10.3910   10.5040 C.3   671  LEU671      0.0001
     89  N         19.5260   10.3780    5.1320 N.3   757  HIS757     -0.1241
     90  CA        18.6090   10.2390    6.2800 C.3   757  HIS757      0.1621
     91  C         17.1660    9.9650    5.8060 C.2   757  HIS757      0.2264
     92  O         16.4770    9.1110    6.3670 O.2   757  HIS757     -0.2867
     93  CB        18.5990   11.5070    7.1620 C.3   757  HIS757      0.0745
     94  CG        19.9120   11.9120    7.7620 C.ar  757  HIS757      0.0817
     95  ND1       20.8370   10.9790    8.1940 N.ar  757  HIS757     -0.2268
     96  CD2       20.3700   13.1510    8.0620 C.ar  757  HIS757      0.1154
     97  CE1       21.8400   11.6770    8.7030 C.ar  757  HIS757      0.1986
     98  NE2       21.6000   12.9870    8.6510 N.ar  757  HIS757     -0.2212
@<TRIPOS>BOND
     1    89    90    1
     2    91    90    1
     3    91    92    2
     4    90    93    1
     5    93    94    1
     6    83    84    2
     7    83    82    1
     8    45    44   ar
     9    45    43   ar
    10    80    79    2
    11    94    96   ar
    12    94    95   ar
    13    44    42   ar
    14    96    98   ar
    15    79    78    1
    16    79    81   am
    17    95    97   ar
    18    82    81    1
    19    82    85    1
    20    43    41   ar
    21    78    77    1
    22    36    37    1
    23    98    97   ar
    24    42    41   ar
    25    41    40    1
    26    77    71   am
    27    20    19    1
    28    37    40    1
    29    37    38    1
    30    85    86    1
    31    75    74    2
    32    69    70    1
    33    71    70    1
    34    71    72    2
    35    88    86    1
    36    19    17   ar
    37    19    18   ar
    38    38    39    2
    39    86    87    1
    40    17    15   ar
    41    70    73    1
    42    74    73    1
    43    74    76   am
    44    18    16   ar
    45    64    63    2
    46    15    14   ar
    47    29    27   ar
    48    16    14   ar
    49    28    27   ar
    50    63    62    1
    51    14    13    1
    52    27    26    1
    53    65    62    1
    54    65    66    1
    55    62    61    1
    56    68    66   am
    57    13    10    1
    58    66    67    2
    59    26    25    1
    60    56    55    2
    61    61    55   am
    62    25    22    1
    63    10     9    1
    64    10    11    1
    65    55    54    1
    66     9     3   am
    67    59    58    2
    68    11    12    2
    69    21    22    1
    70    35    34    1
    71    22    23    1
    72     3     4    2
    73     3     2    1
    74    58    60   am
    75    58    57    1
    76    54    53    1
    77    54    57    1
    78     2     1    1
    79     2     5    1
    80    23    30   am
    81    23    24    2
    82    30    31    1
    83    53    48   am
    84    34    31    1
    85    31    32    1
    86     8     6    1
    87     5     6    1
    88    48    47    1
    89    48    49    2
    90    47    50    1
    91    47    46    1
    92    50    51    1
    93     6     7    1
    94    32    33    2
    95    51    52    1
    96    46    52    1
