@<TRIPOS>MOLECULE
tmp/5olbA04.pdb
 106 108 0 0 0
SMALL
GASTEIGER

@<TRIPOS>ATOM
      1  N         15.2860   21.1470   16.5050 N.3   173  GLU173     -0.1231
      2  CA        14.0760   20.3100   16.5770 C.3   173  GLU173      0.1699
      3  C         14.3150   19.0640   17.4560 C.2   173  GLU173      0.2593
      4  O         13.3700   18.5650   18.0580 O.2   173  GLU173     -0.2718
      5  CB        13.5540   19.9300   15.1740 C.3   173  GLU173      0.0402
      6  CG        14.4060   18.8980   14.4520 C.3   173  GLU173      0.1161
      7  CD        13.9450   18.4570   13.0770 C.2   173  GLU173      0.3649
      8  OE1       12.8520   18.8720   12.6280 O.co2 173  GLU173     -0.2457
      9  OE2       14.7050   17.7030   12.4350 O.co2 173  GLU173     -0.2457
     10  N         15.5870   18.5880   17.5350 N.am  174  SER174     -0.1938
     11  CA        15.9740   17.4370   18.3540 C.3   174  SER174      0.2055
     12  C         16.4050   17.8400   19.7790 C.2   174  SER174      0.2643
     13  O         16.0090   17.1610   20.7320 O.2   174  SER174     -0.2714
     14  CB        17.0680   16.6290   17.6610 C.3   174  SER174      0.2130
     15  OG        16.5580   15.9490   16.5220 O.3   174  SER174     -0.2179
     16  N         17.2090   18.9320   19.9430 N.am  175  HIS175     -0.1959
     17  CA        17.6200   19.3230   21.3090 C.3   175  HIS175      0.1787
     18  C         16.5040   20.0650   22.0870 C.2   175  HIS175      0.2620
     19  O         16.5500   20.1380   23.3230 O.2   175  HIS175     -0.2715
     20  CB        18.9650   20.0730   21.3650 C.3   175  HIS175      0.0785
     21  CG        19.0600   21.3900   20.6540 C.ar  175  HIS175      0.0821
     22  ND1       18.2280   22.4550   20.9650 N.ar  175  HIS175     -0.2267
     23  CD2       20.0060   21.8170   19.7870 C.ar  175  HIS175      0.1154
     24  CE1       18.6590   23.4710   20.2360 C.ar  175  HIS175      0.1986
     25  NE2       19.7370   23.1400   19.5250 N.ar  175  HIS175     -0.2212
     26  N         15.5020   20.5600   21.3680 N.am  176  GLY176     -0.1954
     27  CA        14.3280   21.1890   21.9690 C.3   176  GLY176      0.1869
     28  C         14.3490   22.6940   22.1320 C.2   176  GLY176      0.2309
     29  O         13.3110   23.2730   22.4620 O.2   176  GLY176     -0.2863
     30  N         13.4860   20.5930   32.0280 N.3   202  ARG202     -0.1231
     31  CA        12.5320   19.9820   31.0850 C.3   202  ARG202      0.1694
     32  C         12.6530   20.4580   29.6180 C.2   202  ARG202      0.2592
     33  O         12.2800   19.7100   28.7170 O.2   202  ARG202     -0.2718
     34  CB        11.0870   20.1400   31.5790 C.3   202  ARG202      0.0321
     35  CG        10.6020   21.5760   31.6940 C.3   202  ARG202      0.0489
     36  CD         9.1960   21.5990   32.2370 C.3   202  ARG202      0.2205
     37  NE         8.6970   22.9620   32.4020 N.pl3 202  ARG202     -0.0865
     38  CZ         7.4550   23.2570   32.7680 C.cat 202  ARG202      0.5346
     39  NH1        6.5760   22.2890   32.9990 N.pl3 202  ARG202      0.1354
     40  NH2        7.0830   24.5210   32.9110 N.pl3 202  ARG202      0.1354
     41  N         13.1560   21.6840   29.3870 N.am  203  TRP203     -0.1962
     42  CA        13.3150   22.2600   28.0450 C.3   203  TRP203      0.1771
     43  C         14.5090   21.7170   27.2600 C.2   203  TRP203      0.2620
     44  O         14.4550   21.6280   26.0280 O.2   203  TRP203     -0.2715
     45  CB        13.4700   23.7840   28.1530 C.3   203  TRP203      0.0590
     46  CG        12.2750   24.4500   28.7540 C.ar  203  TRP203      0.0006
     47  CD1       12.0790   24.7600   30.0690 C.ar  203  TRP203      0.0946
     48  CD2       11.0770   24.8280   28.0680 C.ar  203  TRP203      0.0152
     49  NE1       10.8360   25.3200   30.2420 N.ar  203  TRP203     -0.2442
     50  CE2       10.2000   25.3820   29.0290 C.ar  203  TRP203      0.0810
     51  CE3       10.6600   24.7630   26.7270 C.ar  203  TRP203      0.0012
     52  CZ2        8.9390   25.8860   28.6890 C.ar  203  TRP203      0.0191
     53  CZ3        9.4080   25.2600   26.3920 C.ar  203  TRP203      0.0001
     54  CH2        8.5580   25.8010   27.3670 C.ar  203  TRP203      0.0015
     55  N         15.5940   21.4080   27.9800 N.am  204  TRP204     -0.1960
     56  CA        16.9090   21.0330   27.4720 C.3   204  TRP204      0.1771
     57  C         17.1020   19.5310   27.2410 C.2   204  TRP204      0.2620
     58  O         17.3240   18.7750   28.1940 O.2   204  TRP204     -0.2715
     59  CB        17.9930   21.5950   28.4130 C.3   204  TRP204      0.0590
     60  CG        17.7810   23.0410   28.7650 C.ar  204  TRP204      0.0006
     61  CD1       16.9670   23.5380   29.7430 C.ar  204  TRP204      0.0946
     62  CD2       18.3490   24.1760   28.0990 C.ar  204  TRP204      0.0152
     63  NE1       17.0050   24.9110   29.7370 N.ar  204  TRP204     -0.2442
     64  CE2       17.8530   25.3310   28.7440 C.ar  204  TRP204      0.0810
     65  CE3       19.2650   24.3300   27.0430 C.ar  204  TRP204      0.0012
     66  CZ2       18.2190   26.6230   28.3510 C.ar  204  TRP204      0.0191
     67  CZ3       19.6180   25.6120   26.6470 C.ar  204  TRP204      0.0001
     68  CH2       19.1130   26.7390   27.3100 C.ar  204  TRP204      0.0015
     69  N         17.0150   19.1290   25.9740 N.am  205  GLY205     -0.1940
     70  CA        17.1830   17.7450   25.5390 C.3   205  GLY205      0.2014
     71  C         18.5950   17.4430   25.0710 C.2   205  GLY205      0.2639
     72  O         19.4800   18.2960   25.1670 O.2   205  GLY205     -0.2714
     73  N         18.8020   16.2220   24.5820 N.am  206  GLY206     -0.1954
     74  CA        20.0990   15.7520   24.1070 C.3   206  GLY206      0.1869
     75  C         21.1360   15.6470   25.2080 C.2   206  GLY206      0.2309
     76  O         20.7870   15.6050   26.3950 O.2   206  GLY206     -0.2863
     77  N          9.0780   18.9120   16.1990 N.3   387  ASN387     -0.1225
     78  CA         8.9980   19.2820   17.6130 C.3   387  ASN387      0.1785
     79  C          7.6550   19.9490   17.8750 C.2   387  ASN387      0.2597
     80  O          7.2290   20.8080   17.0940 O.2   387  ASN387     -0.2718
     81  CB        10.1710   20.2030   18.0480 C.3   387  ASN387      0.1169
     82  CG        10.3910   20.2240   19.5460 C.2   387  ASN387      0.2627
     83  OD1        9.5630   20.7290   20.3090 O.2   387  ASN387     -0.2716
     84  ND2       11.4910   19.6380   20.0140 N.am  387  ASN387     -0.0877
     85  N          6.9980   19.5600   18.9840 N.am  388  ARG388     -0.1966
     86  CA         5.7010   20.1090   19.4050 C.3   388  ARG388      0.1729
     87  C          5.7860   21.6090   19.7120 C.2   388  ARG388      0.2616
     88  O          4.7630   22.2900   19.6990 O.2   388  ARG388     -0.2715
     89  CB         5.1040   19.3180   20.5890 C.3   388  ARG388      0.0348
     90  CG         5.8800   19.4560   21.8940 C.3   388  ARG388      0.0492
     91  CD         5.4550   18.4190   22.9130 C.3   388  ARG388      0.2205
     92  NE         6.0790   18.6700   24.2110 N.pl3 388  ARG388     -0.0865
     93  CZ         6.3070   17.7400   25.1320 C.cat 388  ARG388      0.5346
     94  NH1        5.9820   16.4730   24.9040 N.pl3 388  ARG388      0.1354
     95  NH2        6.8790   18.0670   26.2820 N.pl3 388  ARG388      0.1354
     96  N          7.0140   22.1170   19.9480 N.am  389  ARG389     -0.1977
     97  CA         7.2830   23.5290   20.2280 C.3   389  ARG389      0.1597
     98  C          7.3280   24.3800   18.9530 C.2   389  ARG389      0.2287
     99  O          7.3500   25.6080   19.0430 O.2   389  ARG389     -0.2864
    100  CB         8.5730   23.6930   21.0540 C.3   389  ARG389      0.0334
    101  CG         8.4820   23.0700   22.4350 C.3   389  ARG389      0.0492
    102  CD         9.8580   22.8450   23.0380 C.3   389  ARG389      0.2205
    103  NE         9.7700   21.9700   24.2170 N.pl3 389  ARG389     -0.0865
    104  CZ        10.8070   21.5940   24.9540 C.cat 389  ARG389      0.5346
    105  NH1       12.0290   22.0120   24.6510 N.pl3 389  ARG389      0.1354
    106  NH2       10.6300   20.8080   26.0090 N.pl3 389  ARG389      0.1354
@<TRIPOS>BOND
     1     9     7   ar
     2     8     7   ar
     3     7     6    1
     4     6     5    1
     5     5     2    1
     6    77    78    1
     7     1     2    1
     8    15    14    1
     9     2     3    1
    10    80    79    2
    11     3    10   am
    12     3     4    2
    13    10    11    1
    14    78    79    1
    15    78    81    1
    16    14    11    1
    17    79    85   am
    18    81    82    1
    19    11    12    1
    20    98    99    2
    21    98    97    1
    22    85    86    1
    23    86    87    1
    24    86    89    1
    25    25    23   ar
    26    25    24   ar
    27    82    84   am
    28    82    83    2
    29    88    87    2
    30    87    96   am
    31    12    16   am
    32    12    13    2
    33    23    21   ar
    34    16    17    1
    35    96    97    1
    36    97   100    1
    37    24    22   ar
    38    89    90    1
    39    21    22   ar
    40    21    20    1
    41   100   101    1
    42    17    20    1
    43    17    18    1
    44    26    27    1
    45    26    18   am
    46    90    91    1
    47    27    28    1
    48    18    19    2
    49    28    29    2
    50   101   102    1
    51    91    92    1
    52   102   103    1
    53    74    73    1
    54    74    75    1
    55    92    93    2
    56   103   104    2
    57    73    71   am
    58   105   104    1
    59    94    93    1
    60   104   106    1
    61    71    72    2
    62    71    70    1
    63    93    95    1
    64    75    76    2
    65    70    69    1
    66    69    57   am
    67    44    43    2
    68    53    51   ar
    69    53    54   ar
    70    67    65   ar
    71    67    68   ar
    72    51    48   ar
    73    65    62   ar
    74    57    56    1
    75    57    58    2
    76    43    55   am
    77    43    42    1
    78    68    66   ar
    79    54    52   ar
    80    56    55    1
    81    56    59    1
    82    42    45    1
    83    42    41    1
    84    48    46   ar
    85    48    50   ar
    86    62    64   ar
    87    62    60   ar
    88    45    46    1
    89    66    64   ar
    90    59    60    1
    91    52    50   ar
    92    33    32    2
    93    64    63   ar
    94    46    47   ar
    95    60    61   ar
    96    50    49   ar
    97    41    32   am
    98    32    31    1
    99    63    61   ar
   100    47    49   ar
   101    31    34    1
   102    31    30    1
   103    34    35    1
   104    35    36    1
   105    36    37    1
   106    37    38    2
   107    38    40    1
   108    38    39    1
