@<TRIPOS>MOLECULE
tmp/5olgA18.pdb
 125 115 0 0 0
SMALL
GASTEIGER

@<TRIPOS>ATOM
      1  N        -12.3510   -4.8100   24.1720 N.3   189  LEU189     -0.1245
      2  CA       -10.9960   -5.2440   23.8650 C.3   189  LEU189      0.1561
      3  C        -10.5720   -6.4190   24.7420 C.2   189  LEU189      0.2260
      4  O        -10.0360   -7.4220   24.2560 O.2   189  LEU189     -0.2867
      5  CB       -10.0570   -4.0420   24.0210 C.3   189  LEU189      0.0270
      6  CG        -8.6880   -4.1210   23.3880 C.3   189  LEU189      0.0019
      7  CD1       -8.8930   -4.5100   21.9180 C.3   189  LEU189      0.0001
      8  CD2       -7.9790   -2.7530   23.5210 C.3   189  LEU189      0.0001
      9  N        -12.2250   -9.5630   23.6610 N.3   192  LEU192     -0.1231
     10  CA       -11.7210  -10.0450   22.3860 C.3   192  LEU192      0.1693
     11  C        -10.3370  -10.6670   22.5560 C.2   192  LEU192      0.2591
     12  O        -10.0340  -11.7130   21.9720 O.2   192  LEU192     -0.2718
     13  CB       -11.6900   -8.9100   21.3670 C.3   192  LEU192      0.0284
     14  CG       -13.1010   -8.4850   20.8690 C.3   192  LEU192      0.0019
     15  CD1      -12.8640   -7.2180   20.0160 C.3   192  LEU192      0.0001
     16  CD2      -13.7210   -9.5910   19.9790 C.3   192  LEU192      0.0001
     17  N         -9.5110  -10.0810   23.4070 N.am  193  LEU193     -0.1980
     18  CA        -8.2140  -10.7020   23.6560 C.3   193  LEU193      0.1596
     19  C         -8.3530  -12.0310   24.3890 C.2   193  LEU193      0.2287
     20  O         -7.5550  -12.9510   24.1450 O.2   193  LEU193     -0.2864
     21  CB        -7.3300   -9.7300   24.4350 C.3   193  LEU193      0.0297
     22  CG        -6.9700   -8.4390   23.6640 C.3   193  LEU193      0.0022
     23  CD1       -6.3760   -7.4340   24.6380 C.3   193  LEU193      0.0001
     24  CD2       -5.9830   -8.7000   22.5000 C.3   193  LEU193      0.0001
     25  N        -10.9040  -14.1200   23.9820 N.3   195  MET195     -0.1230
     26  CA       -11.2950  -15.0010   22.8860 C.3   195  MET195      0.1702
     27  C        -10.0920  -15.4570   22.0890 C.2   195  MET195      0.2592
     28  O        -10.0020  -16.6290   21.7060 O.2   195  MET195     -0.2718
     29  CB       -12.2420  -14.2770   21.9260 C.3   195  MET195      0.0401
     30  CG       -13.6710  -14.2610   22.3340 C.3   195  MET195      0.0596
     31  SD       -14.5230  -13.2020   21.1230 S.3   195  MET195     -0.1393
     32  CE       -15.2710  -11.9940   22.2350 C.3   195  MET195      0.0692
     33  N         -9.1980  -14.5190   21.7660 N.am  196  LEU196     -0.1980
     34  CA        -7.9780  -14.8610   21.0510 C.3   196  LEU196      0.1596
     35  C         -7.1900  -15.9090   21.8190 C.2   196  LEU196      0.2287
     36  O         -6.6890  -16.8720   21.2400 O.2   196  LEU196     -0.2864
     37  CB        -7.1380  -13.5970   20.8360 C.3   196  LEU196      0.0297
     38  CG        -5.7530  -13.8320   20.2390 C.3   196  LEU196      0.0022
     39  CD1       -5.8880  -14.4980   18.8840 C.3   196  LEU196      0.0001
     40  CD2       -4.9940  -12.5140   20.1210 C.3   196  LEU196      0.0001
     41  N         -8.9490  -19.2960   21.5490 N.3   199  TYR199     -0.1227
     42  CA        -8.7680  -19.9520   20.2460 C.3   199  TYR199      0.1736
     43  C         -7.3510  -20.5000   20.1040 C.2   199  TYR199      0.2595
     44  O         -7.1560  -21.5890   19.5450 O.2   199  TYR199     -0.2718
     45  CB        -9.1140  -18.9940   19.0770 C.3   199  TYR199      0.0548
     46  CG       -10.6150  -18.9310   18.8370 C.ar  199  TYR199     -0.0200
     47  CD1      -11.3080  -20.0820   18.4600 C.ar  199  TYR199     -0.0009
     48  CD2      -11.3540  -17.7650   19.0730 C.ar  199  TYR199     -0.0009
     49  CE1      -12.6810  -20.0930   18.3030 C.ar  199  TYR199      0.0417
     50  CE2      -12.7490  -17.7680   18.9150 C.ar  199  TYR199      0.0417
     51  CZ       -13.4050  -18.9320   18.5230 C.ar  199  TYR199      0.1957
     52  OH       -14.7910  -18.9850   18.3760 O.3   199  TYR199     -0.2866
     53  N         -6.3500  -19.7810   20.6260 N.am  200  LEU200     -0.1980
     54  CA        -4.9850  -20.3150   20.6340 C.3   200  LEU200      0.1596
     55  C         -4.9160  -21.6300   21.3950 C.2   200  LEU200      0.2287
     56  O         -4.3040  -22.6090   20.9360 O.2   200  LEU200     -0.2864
     57  CB        -4.0280  -19.2880   21.2630 C.3   200  LEU200      0.0297
     58  CG        -3.8150  -18.1060   20.3200 C.3   200  LEU200      0.0022
     59  CD1       -2.9350  -17.0200   20.9560 C.3   200  LEU200      0.0001
     60  CD2       -3.2250  -18.6100   19.0070 C.3   200  LEU200      0.0001
     61  N         -6.6110  -24.4450   19.1750 N.3   203  PHE203     -0.1241
     62  CA        -5.7550  -24.9350   18.0980 C.3   203  PHE203      0.1605
     63  C         -4.5160  -25.6610   18.6330 C.2   203  PHE203      0.2264
     64  O         -4.0890  -26.6650   18.0520 O.2   203  PHE203     -0.2867
     65  CB        -5.3950  -23.7690   17.1840 C.3   203  PHE203      0.0534
     66  CG        -6.5890  -23.2180   16.4370 C.ar  203  PHE203     -0.0203
     67  CD1       -7.3540  -24.0530   15.6310 C.ar  203  PHE203     -0.0042
     68  CD2       -6.9580  -21.9040   16.5620 C.ar  203  PHE203     -0.0042
     69  CE1       -8.4610  -23.5800   14.9460 C.ar  203  PHE203     -0.0003
     70  CE2       -8.0620  -21.4140   15.8900 C.ar  203  PHE203     -0.0003
     71  CZ        -8.8210  -22.2570   15.0790 C.ar  203  PHE203     -0.0000
     72  N         -3.6450  -29.5980   17.8990 N.3   207  ARG207     -0.1245
     73  CA        -2.3680  -29.9920   17.3200 C.3   207  ARG207      0.1563
     74  C         -1.6830  -31.0430   18.1840 C.2   207  ARG207      0.2260
     75  O         -1.0830  -32.0010   17.6700 O.2   207  ARG207     -0.2867
     76  CB        -1.4820  -28.7590   17.1520 C.3   207  ARG207      0.0307
     77  CG        -0.1660  -29.0280   16.4670 C.3   207  ARG207      0.0489
     78  CD         0.7870  -27.9030   16.7770 C.3   207  ARG207      0.2205
     79  NE         0.9900  -27.8000   18.2150 N.pl3 207  ARG207     -0.0865
     80  CZ         1.1070  -26.6590   18.8810 C.cat 207  ARG207      0.5346
     81  NH1        1.0360  -25.5000   18.2410 N.pl3 207  ARG207      0.1354
     82  NH2        1.2760  -26.6850   20.1970 N.pl3 207  ARG207      0.1354
     83  N        -11.1830  -28.6570   14.3500 N.3   314  VAL314     -0.1245
     84  CA       -10.3310  -27.5500   13.9020 C.3   314  VAL314      0.1561
     85  C        -11.0730  -26.6840   12.8890 C.2   314  VAL314      0.2260
     86  O        -11.0630  -25.4490   12.9770 O.2   314  VAL314     -0.2867
     87  CB        -9.0110  -28.0730   13.3120 C.3   314  VAL314      0.0252
     88  CG1       -8.2240  -26.9150   12.7030 C.3   314  VAL314      0.0019
     89  CG2       -8.1880  -28.7610   14.3690 C.3   314  VAL314      0.0019
     90  N        -12.1920  -22.8340   13.4280 N.3   318  LYS318     -0.1245
     91  CA       -11.7600  -21.7740   12.5310 C.3   318  LYS318      0.1561
     92  C        -12.9510  -20.9420   12.0600 C.2   318  LYS318      0.2260
     93  O        -12.8580  -19.7130   11.9500 O.2   318  LYS318     -0.2867
     94  CB       -10.9980  -22.3570   11.3400 C.3   318  LYS318      0.0271
     95  CG        -9.5590  -22.6930   11.6910 C.3   318  LYS318      0.0035
     96  CD        -8.6950  -23.0560   10.4870 C.3   318  LYS318      0.0206
     97  CE        -7.2520  -23.3420   10.9180 C.3   318  LYS318      0.1093
     98  NZ        -6.5440  -24.1920    9.8970 N.3   318  LYS318     -0.1314
     99  N        -13.9320  -18.7000   14.8490 N.3   321  ALA321     -0.1245
    100  CA       -12.9140  -17.6510   14.9710 C.3   321  ALA321      0.1562
    101  C        -13.0210  -16.6100   13.8600 C.2   321  ALA321      0.2260
    102  O        -12.7130  -15.4310   14.0970 O.2   321  ALA321     -0.2867
    103  CB       -11.4900  -18.2490   14.9740 C.3   321  ALA321      0.0290
    104  N        -15.6340  -14.2300   15.0320 N.3   324  ALA324     -0.1231
    105  CA       -15.1180  -13.3270   16.0640 C.3   324  ALA324      0.1694
    106  C        -14.1580  -12.2970   15.4720 C.2   324  ALA324      0.2592
    107  O        -14.1810  -11.1200   15.8550 O.2   324  ALA324     -0.2718
    108  CB       -14.4360  -14.1140   17.1890 C.3   324  ALA324      0.0304
    109  N        -13.3390  -12.7080   14.5100 N.am  325  GLY325     -0.1957
    110  CA       -12.4140  -11.7720   13.8960 C.3   325  GLY325      0.1869
    111  C        -13.1340  -10.7180   13.0690 C.2   325  GLY325      0.2309
    112  O        -12.7000   -9.5740   12.9960 O.2   325  GLY325     -0.2863
    113  N        -14.4840   -8.0320   15.3050 N.3   328  ALA328     -0.1245
    114  CA       -13.3980   -7.1040   15.6400 C.3   328  ALA328      0.1562
    115  C        -13.0740   -6.1830   14.4700 C.2   328  ALA328      0.2260
    116  O        -12.9320   -4.9730   14.6460 O.2   328  ALA328     -0.2867
    117  CB       -12.1430   -7.8990   16.0580 C.3   328  ALA328      0.0290
    118  N        -13.7110   -2.2830   15.2650 N.3   332  LEU332     -0.1245
    119  CA       -12.5010   -1.5600   15.6860 C.3   332  LEU332      0.1561
    120  C        -12.3480   -0.1690   15.0870 C.2   332  LEU332      0.2260
    121  O        -11.8690    0.7310   15.8080 O.2   332  LEU332     -0.2867
    122  CB       -11.2360   -2.3860   15.3690 C.3   332  LEU332      0.0270
    123  CG       -10.8840   -3.4470   16.4300 C.3   332  LEU332      0.0019
    124  CD1       -9.7540   -4.3910   15.9420 C.3   332  LEU332      0.0001
    125  CD2      -10.4670   -2.7670   17.7360 C.3   332  LEU332      0.0001
@<TRIPOS>BOND
     1    98    97    1
     2    96    97    1
     3    96    95    1
     4    94    95    1
     5    94    91    1
     6    93    92    2
     7    92    91    1
     8    91    90    1
     9    88    87    1
    10    85    86    2
    11    85    84    1
    12   112   111    2
    13   111   110    1
    14    87    84    1
    15    87    89    1
    16   101   102    2
    17   101   100    1
    18   110   109    1
    19    84    83    1
    20   115   116    2
    21   115   114    1
    22   109   106   am
    23    99   100    1
    24    69    71   ar
    25    69    67   ar
    26   100   103    1
    27   104   105    1
    28    71    70   ar
    29   120   119    1
    30   120   121    2
    31   118   119    1
    32   113   114    1
    33   122   119    1
    34   122   123    1
    35   106   107    2
    36   106   105    1
    37    67    66   ar
    38   114   117    1
    39    70    68   ar
    40   124   123    1
    41   105   108    1
    42   123   125    1
    43    66    68   ar
    44    66    65    1
    45    77    78    1
    46    77    76    1
    47    78    79    1
    48    76    73    1
    49    65    62    1
    50    73    72    1
    51    73    74    1
    52    75    74    2
    53    64    63    2
    54    62    63    1
    55    62    61    1
    56    79    80    2
    57    81    80    1
    58    49    47   ar
    59    49    51   ar
    60    52    51    1
    61    47    46   ar
    62    51    50   ar
    63    46    48   ar
    64    46    45    1
    65    80    82    1
    66    39    38    1
    67    50    48   ar
    68    60    58    1
    69    45    42    1
    70    44    43    2
    71    16    14    1
    72    15    14    1
    73    43    42    1
    74    43    53   am
    75    40    38    1
    76    38    37    1
    77    42    41    1
    78    58    59    1
    79    58    57    1
    80    53    54    1
    81    54    57    1
    82    54    55    1
    83    37    34    1
    84    14    13    1
    85    56    55    2
    86    34    33    1
    87    34    35    1
    88    31    32    1
    89    31    30    1
    90    36    35    2
    91    13    10    1
    92    28    27    2
    93    33    27   am
    94     7     6    1
    95    29    30    1
    96    29    26    1
    97    12    11    2
    98    27    26    1
    99    10    11    1
   100    10     9    1
   101    24    22    1
   102    11    17   am
   103    26    25    1
   104     6     8    1
   105     6     5    1
   106    17    18    1
   107    18    19    1
   108    18    21    1
   109    22    21    1
   110    22    23    1
   111     2     5    1
   112     2     1    1
   113     2     3    1
   114    20    19    2
   115     4     3    2
