@<TRIPOS>MOLECULE
tmp/5olgA07.pdb
 107 100 0 0 0
SMALL
GASTEIGER

@<TRIPOS>ATOM
      1  N        -28.6510   15.8470    1.4270 N.3     6  MET6       -0.1230
      2  CA       -28.1000   15.0160    0.3520 C.3     6  MET6        0.1702
      3  C        -27.2140   13.9040    0.9050 C.2     6  MET6        0.2592
      4  O        -27.4270   12.7220    0.6010 O.2     6  MET6       -0.2718
      5  CB       -27.3320   15.8750   -0.6500 C.3     6  MET6        0.0401
      6  CG       -28.2520   16.8020   -1.3820 C.3     6  MET6        0.0596
      7  SD       -27.3830   17.8850   -2.5010 S.3     6  MET6       -0.1393
      8  CE       -26.7720   16.7530   -3.7860 C.3     6  MET6        0.0692
      9  N        -26.1860   14.2670    1.6950 N.am    7  GLY7       -0.1957
     10  CA       -25.3790   13.2550    2.3540 C.3     7  GLY7        0.1869
     11  C        -26.1990   12.4390    3.3260 C.2     7  GLY7        0.2309
     12  O        -25.9640   11.2350    3.5000 O.2     7  GLY7       -0.2863
     13  N        -27.9660    9.5650    1.4140 N.3    10  VAL10      -0.1245
     14  CA       -27.0690    8.4530    1.0940 C.3    10  VAL10       0.1561
     15  C        -26.8790    7.5760    2.3240 C.2    10  VAL10       0.2260
     16  O        -27.0820    6.3590    2.2800 O.2    10  VAL10      -0.2867
     17  CB       -25.7270    8.9910    0.5760 C.3    10  VAL10       0.0252
     18  CG1      -24.6430    7.8410    0.4680 C.3    10  VAL10       0.0019
     19  CG2      -25.9260    9.6910   -0.7750 C.3    10  VAL10       0.0019
     20  N        -30.1330    5.6810    3.3110 N.3    13  THR13      -0.1203
     21  CA       -30.4470    4.6160    2.3700 C.3    13  THR13       0.1994
     22  C        -29.5530    3.4180    2.6000 C.2    13  THR13       0.2617
     23  O        -30.0120    2.2740    2.5460 O.2    13  THR13      -0.2717
     24  CB       -30.2670    5.1130    0.9240 C.3    13  THR13       0.1784
     25  OG1      -31.1530    6.2110    0.6880 O.3    13  THR13      -0.2211
     26  CG2      -30.5750    3.9890   -0.1090 C.3    13  THR13       0.0376
     27  N        -28.2550    3.6660    2.8140 N.am   14  VAL14      -0.1979
     28  CA       -27.3240    2.5790    3.0900 C.3    14  VAL14       0.1595
     29  C        -27.7000    1.8770    4.3920 C.2    14  VAL14       0.2287
     30  O        -27.7030    0.6440    4.4660 O.2    14  VAL14      -0.2864
     31  CB       -25.8740    3.1090    3.1240 C.3    14  VAL14       0.0276
     32  CG1      -24.8790    2.0190    3.6860 C.3    14  VAL14       0.0022
     33  CG2      -25.4400    3.6090    1.7160 C.3    14  VAL14       0.0022
     34  N        -30.6930   -0.3730    3.7070 N.3    17  ALA17      -0.1231
     35  CA       -30.2360   -1.5640    3.0090 C.3    17  ALA17       0.1694
     36  C        -29.5830   -2.5670    3.9650 C.2    17  ALA17       0.2591
     37  O        -29.8410   -3.7780    3.8860 O.2    17  ALA17      -0.2718
     38  CB       -29.2510   -1.1660    1.9110 C.3    17  ALA17       0.0304
     39  N        -28.7250   -2.0900    4.8630 N.am   18  ILE18      -0.1980
     40  CA       -28.0720   -3.0060    5.7990 C.3    18  ILE18       0.1595
     41  C        -29.1050   -3.6160    6.7390 C.2    18  ILE18       0.2287
     42  O        -29.0580   -4.8140    7.0400 O.2    18  ILE18      -0.2864
     43  CB       -26.9610   -2.2650    6.5760 C.3    18  ILE18       0.0276
     44  CG1      -25.8380   -1.8610    5.6080 C.3    18  ILE18       0.0022
     45  CG2      -26.4420   -3.1120    7.8030 C.3    18  ILE18       0.0022
     46  CD1      -24.9260   -0.8430    6.1770 C.3    18  ILE18       0.0001
     47  N        -30.9480   -6.5330    5.0700 N.3    21  LEU21      -0.1245
     48  CA       -30.0970   -7.7070    4.9310 C.3    21  LEU21       0.1561
     49  C        -29.8030   -8.3370    6.2890 C.2    21  LEU21       0.2260
     50  O        -29.7100   -9.5640    6.3970 O.2    21  LEU21      -0.2867
     51  CB       -28.7810   -7.3410    4.2150 C.3    21  LEU21       0.0270
     52  CG       -29.0020   -6.8870    2.7560 C.3    21  LEU21       0.0019
     53  CD1      -27.7150   -6.2110    2.1960 C.3    21  LEU21       0.0001
     54  CD2      -29.5050   -8.0560    1.8530 C.3    21  LEU21       0.0001
     55  N        -17.7290   12.3440    7.1180 N.3   353  TRP353     -0.1241
     56  CA       -17.9310   11.2160    6.2070 C.3   353  TRP353      0.1605
     57  C        -17.2690    9.9510    6.7420 C.2   353  TRP353      0.2264
     58  O        -17.7950    8.8460    6.5590 O.2   353  TRP353     -0.2867
     59  CB       -17.4220   11.5500    4.8160 C.3   353  TRP353      0.0550
     60  CG       -15.9140   11.7560    4.7060 C.ar  353  TRP353      0.0003
     61  CD1      -15.2480   12.9520    4.7030 C.ar  353  TRP353      0.0946
     62  CD2      -14.9120   10.7410    4.5740 C.ar  353  TRP353      0.0152
     63  NE1      -13.8960   12.7400    4.5890 N.ar  353  TRP353     -0.2442
     64  CE2      -13.6630   11.3930    4.5000 C.ar  353  TRP353      0.0810
     65  CE3      -14.9490    9.3370    4.5180 C.ar  353  TRP353      0.0012
     66  CZ2      -12.4630   10.6970    4.3620 C.ar  353  TRP353      0.0191
     67  CZ3      -13.7520    8.6480    4.3980 C.ar  353  TRP353      0.0001
     68  CH2      -12.5270    9.3310    4.3180 C.ar  353  TRP353      0.0015
     69  N        -21.4610    2.7500    9.5260 N.3   360  VAL360     -0.1245
     70  CA       -22.0480    1.8260    8.5650 C.3   360  VAL360      0.1561
     71  C        -21.3120    0.4960    8.5970 C.2   360  VAL360      0.2260
     72  O        -21.9310   -0.5750    8.5610 O.2   360  VAL360     -0.2867
     73  CB       -22.0440    2.4560    7.1580 C.3   360  VAL360      0.0252
     74  CG1      -22.1800    1.3920    6.0870 C.3   360  VAL360      0.0019
     75  CG2      -23.1640    3.5070    7.0420 C.3   360  VAL360      0.0019
     76  N        -22.6750   -3.2980    9.2820 N.3   364  THR364     -0.1218
     77  CA       -22.5290   -4.3500    8.2790 C.3   364  THR364      0.1862
     78  C        -22.1530   -5.6820    8.9100 C.2   364  THR364      0.2287
     79  O        -22.4520   -6.7320    8.3420 O.2   364  THR364     -0.2866
     80  CB       -21.4630   -3.9300    7.2410 C.3   364  THR364      0.1770
     81  OG1      -21.8760   -2.7330    6.5940 O.3   364  THR364     -0.2211
     82  CG2      -21.2440   -4.9720    6.1770 C.3   364  THR364      0.0375
     83  N        -24.7280   -8.3570    9.0790 N.3   367  VAL367     -0.1231
     84  CA       -25.1060   -9.0080    7.8230 C.3   367  VAL367      0.1692
     85  C        -24.2590  -10.2540    7.6090 C.2   367  VAL367      0.2591
     86  O        -24.7200  -11.2100    6.9770 O.2   367  VAL367     -0.2718
     87  CB       -24.9460   -8.0500    6.6170 C.3   367  VAL367      0.0266
     88  CG1      -25.3320   -8.7500    5.2730 C.3   367  VAL367      0.0020
     89  CG2      -25.8100   -6.7940    6.8250 C.3   367  VAL367      0.0020
     90  N        -23.0110  -10.2590    8.1140 N.am  368  VAL368     -0.1980
     91  CA       -22.0440  -11.2250    7.5630 C.3   368  VAL368      0.1595
     92  C        -22.1530  -12.6520    8.1370 C.2   368  VAL368      0.2287
     93  O        -21.8880  -13.6180    7.4090 O.2   368  VAL368     -0.2864
     94  CB       -20.5880  -10.7260    7.6920 C.3   368  VAL368      0.0276
     95  CG1      -20.3960   -9.3780    7.0040 C.3   368  VAL368      0.0022
     96  CG2      -20.1570  -10.6250    9.1300 C.3   368  VAL368      0.0022
     97  N        -23.6580  -15.5480    6.0820 N.3   371  PHE371     -0.1241
     98  CA       -22.8230  -15.9350    4.9380 C.3   371  PHE371      0.1605
     99  C        -21.7020  -16.8610    5.3560 C.2   371  PHE371      0.2264
    100  O        -21.4060  -17.8470    4.6570 O.2   371  PHE371     -0.2867
    101  CB       -22.2720  -14.6800    4.2500 C.3   371  PHE371      0.0534
    102  CG       -23.2950  -14.0090    3.4250 C.ar  371  PHE371     -0.0203
    103  CD1      -23.5200  -14.4380    2.1230 C.ar  371  PHE371     -0.0042
    104  CD2      -24.1210  -13.0520    3.9820 C.ar  371  PHE371     -0.0042
    105  CE1      -24.5200  -13.8680    1.3590 C.ar  371  PHE371     -0.0003
    106  CE2      -25.1340  -12.4750    3.2320 C.ar  371  PHE371     -0.0003
    107  CZ       -25.3380  -12.8890    1.9130 C.ar  371  PHE371     -0.0000
@<TRIPOS>BOND
     1     8     7    1
     2     7     6    1
     3     6     5    1
     4    19    17    1
     5     5     2    1
     6    26    24    1
     7     2     3    1
     8     2     1    1
     9    18    17    1
    10    17    14    1
    11     4     3    2
    12    25    24    1
    13     3     9   am
    14    24    21    1
    15    14    13    1
    16    14    15    1
    17   105   107   ar
    18   105   103   ar
    19     9    10    1
    20    33    31    1
    21    54    52    1
    22    38    35    1
    23   107   106   ar
    24   103   102   ar
    25    53    52    1
    26    16    15    2
    27    10    11    1
    28    21    22    1
    29    21    20    1
    30    23    22    2
    31    22    27   am
    32    52    51    1
    33    27    28    1
    34    35    34    1
    35    35    36    1
    36    28    31    1
    37    28    29    1
    38    31    32    1
    39   106   104   ar
    40    11    12    2
    41   102   104   ar
    42   102   101    1
    43    37    36    2
    44    36    39   am
    45    51    48    1
    46   101    98    1
    47    68    66   ar
    48    68    67   ar
    49    66    64   ar
    50    29    30    2
    51    67    65   ar
    52    64    62   ar
    53    64    63   ar
    54    65    62   ar
    55    62    60   ar
    56    63    61   ar
    57   100    99    2
    58    61    60   ar
    59    60    59    1
    60    59    56    1
    61    39    40    1
    62    48    47    1
    63    48    49    1
    64    98    99    1
    65    98    97    1
    66    88    87    1
    67    44    46    1
    68    44    43    1
    69    40    43    1
    70    40    41    1
    71    74    73    1
    72    82    80    1
    73    56    57    1
    74    56    55    1
    75    49    50    2
    76    58    57    2
    77    43    45    1
    78    81    80    1
    79    87    89    1
    80    87    84    1
    81    41    42    2
    82    86    85    2
    83    95    94    1
    84    75    73    1
    85    73    70    1
    86    80    77    1
    87    93    92    2
    88    91    94    1
    89    91    90    1
    90    91    92    1
    91    85    84    1
    92    85    90   am
    93    94    96    1
    94    84    83    1
    95    77    78    1
    96    77    76    1
    97    79    78    2
    98    72    71    2
    99    70    71    1
   100    70    69    1
