@<TRIPOS>MOLECULE
tmp/5olgA06.pdb
 89 86 0 0 0
SMALL
GASTEIGER

@<TRIPOS>ATOM
      1  N        -32.2200   12.2560   28.5450 N.3    77  HIS77      -0.1241
      2  CA       -32.1530   10.8340   28.8860 C.3    77  HIS77       0.1621
      3  C        -32.8420    9.9380   27.8490 C.2    77  HIS77       0.2264
      4  O        -32.4110    8.7910   27.6390 O.2    77  HIS77      -0.2867
      5  CB       -32.6990   10.6160   30.2950 C.3    77  HIS77       0.0745
      6  CG       -31.8140   11.2240   31.3410 C.ar   77  HIS77       0.0817
      7  ND1      -31.8970   12.5570   31.7070 N.ar   77  HIS77      -0.2268
      8  CD2      -30.7820   10.7040   32.0440 C.ar   77  HIS77       0.1154
      9  CE1      -30.9710   12.8200   32.6100 C.ar   77  HIS77       0.1986
     10  NE2      -30.2750   11.7160   32.8220 N.ar   77  HIS77      -0.2212
     11  N        -29.1380  -21.8170   28.2990 N.3   124  ALA124     -0.1245
     12  CA       -30.1870  -20.8050   28.2730 C.3   124  ALA124      0.1562
     13  C        -30.0910  -19.8650   29.4790 C.2   124  ALA124      0.2260
     14  O        -30.4370  -18.6860   29.3660 O.2   124  ALA124     -0.2867
     15  CB       -31.5640  -21.4710   28.1930 C.3   124  ALA124      0.0290
     16  N        -27.2830  -17.5010   28.7020 N.3   127  ILE127     -0.1231
     17  CA       -27.7330  -16.5260   27.7070 C.3   127  ILE127      0.1692
     18  C        -28.5540  -15.4250   28.3800 C.2   127  ILE127      0.2591
     19  O        -28.3370  -14.2290   28.1440 O.2   127  ILE127     -0.2718
     20  CB       -28.5060  -17.2200   26.5650 C.3   127  ILE127      0.0266
     21  CG1      -27.5310  -18.0410   25.7050 C.3   127  ILE127      0.0019
     22  CG2      -29.2260  -16.1510   25.6560 C.3   127  ILE127      0.0020
     23  CD1      -28.2070  -19.0520   24.7690 C.3   127  ILE127      0.0001
     24  N        -29.5090  -15.8110   29.2330 N.am  128  ALA128     -0.1980
     25  CA       -30.3310  -14.8200   29.9310 C.3   128  ALA128      0.1597
     26  C        -29.4620  -13.8770   30.7710 C.2   128  ALA128      0.2287
     27  O        -29.6460  -12.6440   30.7650 O.2   128  ALA128     -0.2864
     28  CB       -31.3600  -15.5350   30.8250 C.3   128  ALA128      0.0319
     29  N        -27.6310  -11.4080   28.6090 N.3   131  TRP131     -0.1227
     30  CA       -28.4630  -10.3060   28.1230 C.3   131  TRP131      0.1737
     31  C        -28.7020   -9.2610   29.2150 C.2   131  TRP131      0.2595
     32  O        -28.6980   -8.0620   28.9290 O.2   131  TRP131     -0.2718
     33  CB       -29.7910  -10.8320   27.5790 C.3   131  TRP131      0.0564
     34  CG       -29.6950  -11.2400   26.1480 C.ar  131  TRP131      0.0003
     35  CD1      -29.5620  -12.5120   25.6350 C.ar  131  TRP131      0.0946
     36  CD2      -29.7250  -10.3540   25.0310 C.ar  131  TRP131      0.0152
     37  NE1      -29.5120  -12.4580   24.2590 N.ar  131  TRP131     -0.2442
     38  CE2      -29.5980  -11.1490   23.8610 C.ar  131  TRP131      0.0810
     39  CE3      -29.8190   -8.9570   24.9110 C.ar  131  TRP131      0.0012
     40  CZ2      -29.5800  -10.6010   22.5810 C.ar  131  TRP131      0.0191
     41  CZ3      -29.8210   -8.4070   23.6450 C.ar  131  TRP131      0.0001
     42  CH2      -29.6970   -9.2350   22.4850 C.ar  131  TRP131      0.0015
     43  N        -28.9240   -9.6890   30.4650 N.am  132  VAL132     -0.1980
     44  CA       -29.0610   -8.7330   31.5640 C.3   132  VAL132      0.1595
     45  C        -27.7750   -7.9300   31.7190 C.2   132  VAL132      0.2287
     46  O        -27.8060   -6.7000   31.8140 O.2   132  VAL132     -0.2864
     47  CB       -29.4460   -9.4390   32.8880 C.3   132  VAL132      0.0276
     48  CG1      -29.3780   -8.4520   34.0770 C.3   132  VAL132      0.0022
     49  CG2      -30.8760  -10.0700   32.8320 C.3   132  VAL132      0.0022
     50  N        -27.4510   -5.2630   28.9960 N.3   135  PHE135     -0.1227
     51  CA       -28.2270   -4.0590   29.2760 C.3   135  PHE135      0.1736
     52  C        -27.5400   -3.1770   30.3280 C.2   135  PHE135      0.2595
     53  O        -27.4590   -1.9590   30.1620 O.2   135  PHE135     -0.2718
     54  CB       -29.6490   -4.4510   29.7000 C.3   135  PHE135      0.0547
     55  CG       -30.5900   -4.5970   28.5460 C.ar  135  PHE135     -0.0202
     56  CD1      -31.2910   -3.4830   28.0580 C.ar  135  PHE135     -0.0042
     57  CD2      -30.7870   -5.8330   27.9360 C.ar  135  PHE135     -0.0042
     58  CE1      -32.1820   -3.6140   26.9730 C.ar  135  PHE135     -0.0003
     59  CE2      -31.6660   -5.9790   26.8360 C.ar  135  PHE135     -0.0003
     60  CZ       -32.3650   -4.8460   26.3490 C.ar  135  PHE135     -0.0000
     61  N        -27.0210   -3.7710   31.4040 N.am  136  ALA136     -0.1980
     62  CA       -26.3560   -2.9740   32.4400 C.3   136  ALA136      0.1597
     63  C        -25.0960   -2.2680   31.9050 C.2   136  ALA136      0.2287
     64  O        -24.8860   -1.0810   32.1860 O.2   136  ALA136     -0.2864
     65  CB       -26.0050   -3.8650   33.6490 C.3   136  ALA136      0.0319
     66  N        -26.1900    0.3550   28.9140 N.3   139  LEU139     -0.1245
     67  CA       -26.9630    1.5070   29.3930 C.3   139  LEU139      0.1561
     68  C        -26.3690    2.1370   30.6430 C.2   139  LEU139      0.2260
     69  O        -27.0480    2.9230   31.2970 O.2   139  LEU139     -0.2867
     70  CB       -28.4220    1.1240   29.6690 C.3   139  LEU139      0.0270
     71  CG       -29.1430    0.5190   28.4500 C.3   139  LEU139      0.0019
     72  CD1      -30.6030    0.2090   28.8200 C.3   139  LEU139      0.0001
     73  CD2      -29.0040    1.3540   27.1410 C.3   139  LEU139      0.0001
     74  N        -26.9760    5.6920   31.1980 N.3   142  MET142     -0.1230
     75  CA       -28.2660    6.0960   31.7530 C.3   142  MET142      0.1702
     76  C        -28.2780    6.0830   33.2780 C.2   142  MET142      0.2592
     77  O        -29.2010    6.6490   33.8740 O.2   142  MET142     -0.2718
     78  CB       -29.3760    5.1900   31.1960 C.3   142  MET142      0.0401
     79  CG       -29.5170    5.3520   29.6410 C.3   142  MET142      0.0596
     80  SD       -30.9720    4.4960   29.0290 S.3   142  MET142     -0.1393
     81  CE       -32.2680    5.6680   29.5330 C.3   142  MET142      0.0692
     82  N        -27.2940    5.4560   33.9270 N.am  143  LEU143     -0.1980
     83  CA       -27.2190    5.4770   35.3870 C.3   143  LEU143      0.1596
     84  C        -26.5160    6.7200   35.9170 C.2   143  LEU143      0.2287
     85  O        -26.4260    6.8930   37.1460 O.2   143  LEU143     -0.2864
     86  CB       -26.5120    4.2150   35.9070 C.3   143  LEU143      0.0297
     87  CG       -27.0490    2.8740   35.3920 C.3   143  LEU143      0.0022
     88  CD1      -26.2650    1.7330   36.0250 C.3   143  LEU143      0.0001
     89  CD2      -28.5140    2.7180   35.7240 C.3   143  LEU143      0.0001
@<TRIPOS>BOND
     1    42    40   ar
     2    42    41   ar
     3    40    38   ar
     4    41    39   ar
     5    38    37   ar
     6    38    36   ar
     7    37    35   ar
     8    23    21    1
     9    39    36   ar
    10    36    34   ar
    11    35    34   ar
    12    22    20    1
    13    21    20    1
    14    34    33    1
    15    60    59   ar
    16    60    58   ar
    17    20    17    1
    18    59    57   ar
    19    58    56   ar
    20    73    71    1
    21    33    30    1
    22     4     3    2
    23    17    18    1
    24    17    16    1
    25     3     2    1
    26    57    55   ar
    27    56    55   ar
    28    30    29    1
    29    30    31    1
    30    19    18    2
    31    15    12    1
    32    12    11    1
    33    12    13    1
    34    18    24   am
    35    71    72    1
    36    71    70    1
    37     1     2    1
    38    55    54    1
    39     2     5    1
    40    66    67    1
    41    32    31    2
    42    50    51    1
    43    80    81    1
    44    80    79    1
    45    31    43   am
    46    24    25    1
    47    51    54    1
    48    51    52    1
    49    14    13    2
    50    67    70    1
    51    67    68    1
    52    79    78    1
    53    25    26    1
    54    25    28    1
    55    53    52    2
    56     5     6    1
    57    52    61   am
    58    43    44    1
    59    68    69    2
    60    27    26    2
    61    78    75    1
    62    74    75    1
    63     6     7   ar
    64     6     8   ar
    65    61    62    1
    66    44    45    1
    67    44    47    1
    68     7     9   ar
    69    45    46    2
    70    75    76    1
    71    63    64    2
    72    63    62    1
    73     8    10   ar
    74    62    65    1
    75     9    10   ar
    76    49    47    1
    77    47    48    1
    78    76    77    2
    79    76    82   am
    80    82    83    1
    81    83    86    1
    82    83    84    1
    83    87    89    1
    84    87    86    1
    85    87    88    1
    86    84    85    2
