@<TRIPOS>MOLECULE
tmp/5olgA17.pdb
 84 81 0 0 0
SMALL
GASTEIGER

@<TRIPOS>ATOM
      1  N        -22.5860   -5.5790   23.1210 N.3    91  GLN91      -0.1245
      2  CA       -22.1340   -6.3010   24.3100 C.3    91  GLN91       0.1566
      3  C        -22.6940   -7.7190   24.3520 C.2    91  GLN91       0.2260
      4  O        -21.9790   -8.6720   24.7130 O.2    91  GLN91      -0.2867
      5  CB       -22.5460   -5.5520   25.5750 C.3    91  GLN91       0.0367
      6  CG       -21.6910   -6.0220   26.7690 C.3    91  GLN91       0.0905
      7  CD       -20.2030   -5.7520   26.5280 C.2    91  GLN91       0.2608
      8  OE1      -19.8280   -4.6880   26.0170 O.2    91  GLN91      -0.2717
      9  NE2      -19.3450   -6.7360   26.8690 N.am   91  GLN91      -0.0878
     10  N        -20.5240  -11.3530   24.4480 N.3    95  PHE95      -0.1241
     11  CA       -20.7520  -12.4910   25.3390 C.3    95  PHE95       0.1605
     12  C        -21.0520  -13.7610   24.5520 C.2    95  PHE95       0.2264
     13  O        -20.5600  -14.8450   24.8950 O.2    95  PHE95      -0.2867
     14  CB       -21.9130  -12.1870   26.3060 C.3    95  PHE95       0.0534
     15  CG       -21.5600  -11.2270   27.4070 C.ar   95  PHE95      -0.0203
     16  CD1      -20.3580  -11.3430   28.0990 C.ar   95  PHE95      -0.0042
     17  CD2      -22.4070  -10.1820   27.7370 C.ar   95  PHE95      -0.0042
     18  CE1      -20.0420  -10.4510   29.1450 C.ar   95  PHE95      -0.0003
     19  CE2      -22.0900   -9.2790   28.7760 C.ar   95  PHE95      -0.0003
     20  CZ       -20.9160   -9.4070   29.4680 C.ar   95  PHE95      -0.0000
     21  N        -24.2610   -2.9720   31.1280 N.3   137  ILE137     -0.1245
     22  CA       -23.0630   -2.3720   30.5310 C.3   137  ILE137      0.1561
     23  C        -23.4230   -1.3150   29.4670 C.2   137  ILE137      0.2260
     24  O        -22.8800   -0.2030   29.4550 O.2   137  ILE137     -0.2867
     25  CB       -22.1580   -3.4740   29.9330 C.3   137  ILE137      0.0252
     26  CG1      -21.4750   -4.2600   31.0640 C.3   137  ILE137      0.0019
     27  CG2      -21.1190   -2.8720   28.9570 C.3   137  ILE137      0.0019
     28  CD1      -21.0000   -5.6770   30.6440 C.3   137  ILE137      0.0001
     29  N        -12.5220    4.0200   27.8320 N.3   181  TYR181     -0.1241
     30  CA       -12.0150    3.1940   28.9410 C.3   181  TYR181      0.1605
     31  C        -12.9700    2.0740   29.3090 C.2   181  TYR181      0.2264
     32  O        -12.5460    0.9370   29.5310 O.2   181  TYR181     -0.2867
     33  CB       -11.7860    4.0270   30.1830 C.3   181  TYR181      0.0534
     34  CG       -10.6360    4.9860   30.0820 C.ar  181  TYR181     -0.0201
     35  CD1       -9.4300    4.5930   29.5370 C.ar  181  TYR181     -0.0009
     36  CD2      -10.7640    6.2940   30.5450 C.ar  181  TYR181     -0.0009
     37  CE1       -8.3690    5.4830   29.4600 C.ar  181  TYR181      0.0417
     38  CE2       -9.7010    7.1880   30.4910 C.ar  181  TYR181      0.0417
     39  CZ        -8.5080    6.7610   29.9430 C.ar  181  TYR181      0.1957
     40  OH        -7.4400    7.6330   29.8770 O.3   181  TYR181     -0.2866
     41  N        -11.9960   -0.4420   26.0890 N.3   185  PHE185     -0.1227
     42  CA       -10.9000   -1.1990   26.7060 C.3   185  PHE185      0.1736
     43  C        -11.4200   -2.3570   27.5570 C.2   185  PHE185      0.2595
     44  O        -11.0210   -3.5200   27.3640 O.2   185  PHE185     -0.2718
     45  CB       -10.0230   -0.2750   27.5790 C.3   185  PHE185      0.0547
     46  CG        -9.1820    0.7090   26.8130 C.ar  185  PHE185     -0.0202
     47  CD1       -9.1550    0.7160   25.4280 C.ar  185  PHE185     -0.0042
     48  CD2       -8.3450    1.6070   27.5020 C.ar  185  PHE185     -0.0042
     49  CE1       -8.3280    1.6250   24.7160 C.ar  185  PHE185     -0.0003
     50  CE2       -7.5460    2.5050   26.7980 C.ar  185  PHE185     -0.0003
     51  CZ        -7.5640    2.5180   25.3940 C.ar  185  PHE185     -0.0000
     52  N        -12.3290   -2.0630   28.4940 N.am  186  ALA186     -0.1966
     53  CA       -12.7810   -3.0720   29.4560 C.3   186  ALA186      0.1728
     54  C        -13.7660   -4.0530   28.8370 C.2   186  ALA186      0.2616
     55  O        -13.6580   -5.2630   29.0570 O.2   186  ALA186     -0.2715
     56  CB       -13.4300   -2.4000   30.6800 C.3   186  ALA186      0.0334
     57  N        -14.7850   -3.5480   28.1290 N.am  187  CYS187     -0.1968
     58  CA       -15.9270   -4.3860   27.7510 C.3   187  CYS187      0.1712
     59  C        -15.8200   -4.9970   26.3530 C.2   187  CYS187      0.2296
     60  O        -16.5240   -5.9770   26.0680 O.2   187  CYS187     -0.2864
     61  CB       -17.2240   -3.5740   27.8690 C.3   187  CYS187      0.0983
     62  SG       -17.5800   -3.2550   29.6430 S.3   187  CYS187     -0.0798
     63  N        -10.7820   -6.3180   26.0410 N.3   190  VAL190     -0.1231
     64  CA       -10.3900   -7.4130   26.9330 C.3   190  VAL190      0.1678
     65  C        -11.1250   -8.7110   26.6020 C.2   190  VAL190      0.2434
     66  O        -10.4600   -9.7470   26.4500 O.2   190  VAL190     -0.2733
     67  CB       -10.5450   -6.9740   28.4060 C.3   190  VAL190      0.0265
     68  CG1      -10.6020   -8.1930   29.3430 C.3   190  VAL190      0.0020
     69  CG2       -9.3750   -6.0560   28.7820 C.3   190  VAL190      0.0020
     70  N        -12.4540   -8.7270   26.4220 N.am  191  PRO191     -0.2729
     71  CA       -13.0750   -9.9800   25.9430 C.3   191  PRO191      0.1401
     72  C        -12.5420  -10.4610   24.6010 C.2   191  PRO191      0.2269
     73  O        -12.3700  -11.6750   24.4200 O.2   191  PRO191     -0.2865
     74  CB       -14.5840   -9.6330   25.8740 C.3   191  PRO191      0.0296
     75  CG       -14.7540   -8.5520   26.8950 C.3   191  PRO191      0.0237
     76  CD       -13.4800   -7.7050   26.7450 C.3   191  PRO191      0.0939
     77  N         -9.3430  -12.1570   25.2980 N.3   194  LEU194     -0.1245
     78  CA        -9.6190  -13.4430   25.9380 C.3   194  LEU194      0.1561
     79  C        -10.0220  -14.4940   24.9140 C.2   194  LEU194      0.2260
     80  O         -9.5920  -15.6490   24.9900 O.2   194  LEU194     -0.2867
     81  CB       -10.7310  -13.2940   26.9710 C.3   194  LEU194      0.0270
     82  CG       -10.3510  -12.5260   28.2340 C.3   194  LEU194      0.0019
     83  CD1      -11.6010  -12.3380   29.0350 C.3   194  LEU194      0.0001
     84  CD2       -9.3220  -13.3140   29.0070 C.3   194  LEU194      0.0001
@<TRIPOS>BOND
     1     1     2    1
     2     2     3    1
     3     2     5    1
     4     3     4    2
     5    73    72    2
     6    10    11    1
     7    12    13    2
     8    12    11    1
     9    72    71    1
    10    49    51   ar
    11    49    47   ar
    12    79    80    2
    13    79    78    1
    14    77    78    1
    15    11    14    1
    16    51    50   ar
    17    47    46   ar
    18     5     6    1
    19    74    71    1
    20    74    75    1
    21    78    81    1
    22    71    70    1
    23     8     7    2
    24    63    64    1
    25    60    59    2
    26    41    42    1
    27    14    15    1
    28    59    58    1
    29    70    65   am
    30    70    76    1
    31    66    65    2
    32     7     6    1
    33     7     9   am
    34    65    64    1
    35    42    43    1
    36    42    45    1
    37    76    75    1
    38    50    48   ar
    39    46    48   ar
    40    46    45    1
    41    64    67    1
    42    81    82    1
    43    44    43    2
    44    15    17   ar
    45    15    16   ar
    46    43    52   am
    47    17    19   ar
    48    58    61    1
    49    58    57    1
    50    29    30    1
    51    61    62    1
    52    16    18   ar
    53    57    54   am
    54    82    84    1
    55    82    83    1
    56    67    69    1
    57    67    68    1
    58    52    53    1
    59    19    20   ar
    60    54    55    2
    61    54    53    1
    62    30    31    1
    63    30    33    1
    64    27    25    1
    65    18    20   ar
    66    31    32    2
    67    24    23    2
    68    53    56    1
    69    37    35   ar
    70    37    39   ar
    71    23    22    1
    72    35    34   ar
    73    40    39    1
    74    25    22    1
    75    25    26    1
    76    39    38   ar
    77    34    33    1
    78    34    36   ar
    79    38    36   ar
    80    22    21    1
    81    28    26    1
