@<TRIPOS>MOLECULE
tmp/5olgA05.pdb
 182 173 0 0 0
SMALL
GASTEIGER

@<TRIPOS>ATOM
      1  N        -23.7730  -25.0370   21.2730 N.3    43  THR43      -0.1203
      2  CA       -23.0480  -24.0700   20.4550 C.3    43  THR43       0.1994
      3  C        -24.0060  -23.1720   19.6870 C.2    43  THR43       0.2617
      4  O        -23.9060  -21.9370   19.7240 O.2    43  THR43      -0.2717
      5  CB       -22.1290  -24.7800   19.4660 C.3    43  THR43       0.1784
      6  OG1      -21.4610  -25.8720   20.1180 O.3    43  THR43      -0.2211
      7  CG2      -21.1110  -23.7810   18.9330 C.3    43  THR43       0.0376
      8  N        -24.9560  -23.7880   18.9950 N.am   44  ASN44      -0.1974
      9  CA       -25.8780  -23.0350   18.1870 C.3    44  ASN44       0.1688
     10  C        -26.9430  -22.2900   19.0020 C.2    44  ASN44       0.2292
     11  O        -27.6400  -21.4520   18.4230 O.2    44  ASN44      -0.2864
     12  CB       -26.5250  -23.9880   17.1800 C.3    44  ASN44       0.1181
     13  CG       -25.5790  -24.3770   16.0910 C.2    44  ASN44       0.2629
     14  OD1      -24.5330  -23.7430   15.9170 O.2    44  ASN44      -0.2716
     15  ND2      -25.9370  -25.4130   15.3220 N.am   44  ASN44      -0.0877
     16  N        -25.2160  -19.1790   18.9480 N.3    47  VAL47      -0.1245
     17  CA       -25.3540  -18.6720   17.5830 C.3    47  VAL47       0.1561
     18  C        -26.6930  -17.9510   17.3970 C.2    47  VAL47       0.2260
     19  O        -26.7750  -16.9070   16.7360 O.2    47  VAL47      -0.2867
     20  CB       -25.2010  -19.8360   16.5790 C.3    47  VAL47       0.0252
     21  CG1      -25.8030  -19.4340   15.1940 C.3    47  VAL47       0.0019
     22  CG2      -23.7340  -20.1970   16.4190 C.3    47  VAL47       0.0019
     23  N        -26.6850  -14.6440   19.1620 N.3    50  LEU50      -0.1245
     24  CA       -25.9550  -13.6970   18.3330 C.3    50  LEU50       0.1561
     25  C        -26.8010  -13.2310   17.1480 C.2    50  LEU50       0.2260
     26  O        -26.8090  -12.0350   16.8140 O.2    50  LEU50      -0.2867
     27  CB       -24.6410  -14.3500   17.8680 C.3    50  LEU50       0.0270
     28  CG       -23.6550  -13.5970   16.9970 C.3    50  LEU50       0.0019
     29  CD1      -23.1650  -12.3060   17.7580 C.3    50  LEU50       0.0001
     30  CD2      -22.4250  -14.5300   16.6890 C.3    50  LEU50       0.0001
     31  N        -20.0510  -14.4960   21.4770 N.3    97  LEU97      -0.1245
     32  CA       -18.8100  -14.9230   20.8330 C.3    97  LEU97       0.1561
     33  C        -17.8650  -15.5670   21.8330 C.2    97  LEU97       0.2260
     34  O        -17.2160  -16.5750   21.5160 O.2    97  LEU97      -0.2867
     35  CB       -18.1040  -13.7400   20.1570 C.3    97  LEU97       0.0270
     36  CG       -18.8540  -13.1780   18.9480 C.3    97  LEU97       0.0019
     37  CD1      -18.3250  -11.7530   18.5490 C.3    97  LEU97       0.0001
     38  CD2      -18.7560  -14.1920   17.7500 C.3    97  LEU97       0.0001
     39  N        -19.2090  -19.1240   22.6150 N.3   100  ILE100     -0.1245
     40  CA       -18.9260  -20.0630   21.5350 C.3   100  ILE100      0.1561
     41  C        -17.4830  -20.5410   21.6160 C.2   100  ILE100      0.2260
     42  O        -17.2040  -21.7330   21.4750 O.2   100  ILE100     -0.2867
     43  CB       -19.2530  -19.4190   20.1720 C.3   100  ILE100      0.0252
     44  CG1      -20.7800  -19.2270   20.0990 C.3   100  ILE100      0.0019
     45  CG2      -18.7000  -20.3130   19.0370 C.3   100  ILE100      0.0019
     46  CD1      -21.3630  -18.3560   18.9740 C.3   100  ILE100      0.0001
     47  N        -16.3360  -24.4480   22.4810 N.3   104  ARG104     -0.1245
     48  CA       -15.4970  -25.2810   21.6220 C.3   104  ARG104      0.1563
     49  C        -14.2150  -25.7180   22.3390 C.2   104  ARG104      0.2260
     50  O        -13.7310  -26.8200   22.0890 O.2   104  ARG104     -0.2867
     51  CB       -15.1640  -24.5530   20.3120 C.3   104  ARG104      0.0307
     52  CG       -16.3640  -24.3200   19.3390 C.3   104  ARG104      0.0489
     53  CD       -16.9900  -25.6510   18.8370 C.3   104  ARG104      0.2205
     54  NE       -17.9050  -26.2470   19.8250 N.pl3 104  ARG104     -0.0865
     55  CZ       -18.1250  -27.5480   19.9770 C.cat 104  ARG104      0.5346
     56  NH1      -18.9680  -27.9870   20.9150 N.pl3 104  ARG104      0.1354
     57  NH2      -17.4880  -28.4150   19.1980 N.pl3 104  ARG104      0.1354
     58  N        -10.0680  -33.1200   12.9790 N.3   311  GLN311     -0.1231
     59  CA        -9.9540  -32.1780   11.8730 C.3   311  GLN311      0.1698
     60  C        -11.2560  -31.4170   11.6710 C.2   311  GLN311      0.2592
     61  O        -11.2320  -30.2410   11.2820 O.2   311  GLN311     -0.2718
     62  CB        -9.5160  -32.9060   10.5940 C.3   311  GLN311      0.0381
     63  CG        -8.0190  -33.1740   10.5880 C.3   311  GLN311      0.0905
     64  CD        -7.5760  -34.2250    9.5700 C.2   311  GLN311      0.2608
     65  OE1       -8.4010  -34.8850    8.9320 O.2   311  GLN311     -0.2717
     66  NE2       -6.2620  -34.3870    9.4240 N.am  311  GLN311     -0.0878
     67  N        -12.3940  -32.0500   11.9800 N.am  312  LYS312     -0.1980
     68  CA       -13.6650  -31.3300   11.9580 C.3   312  LYS312      0.1596
     69  C        -13.7480  -30.2990   13.0780 C.2   312  LYS312      0.2287
     70  O        -14.3240  -29.2240   12.8840 O.2   312  LYS312     -0.2864
     71  CB       -14.8350  -32.3090   12.0430 C.3   312  LYS312      0.0298
     72  CG       -15.0100  -33.1390   10.7880 C.3   312  LYS312      0.0038
     73  CD       -16.1210  -34.1730   10.9450 C.3   312  LYS312      0.0206
     74  CE       -16.2290  -35.0430    9.6830 C.3   312  LYS312      0.1093
     75  NZ       -17.0990  -36.2470    9.8820 N.3   312  LYS312     -0.1314
     76  N        -11.7190  -27.3240   11.9060 N.3   315  HIS315     -0.1226
     77  CA       -12.4870  -26.5870   10.9080 C.3   315  HIS315      0.1752
     78  C        -13.6170  -25.7820   11.5530 C.2   315  HIS315      0.2595
     79  O        -13.8500  -24.6210   11.1890 O.2   315  HIS315     -0.2718
     80  CB       -13.0350  -27.5670    9.8670 C.3   315  HIS315      0.0759
     81  CG       -13.6880  -26.9040    8.6900 C.ar  315  HIS315      0.0818
     82  ND1      -15.0410  -26.6390    8.6390 N.ar  315  HIS315     -0.2268
     83  CD2      -13.1740  -26.4570    7.5190 C.ar  315  HIS315      0.1154
     84  CE1      -15.3310  -26.0510    7.4910 C.ar  315  HIS315      0.1986
     85  NE2      -14.2160  -25.9220    6.7970 N.ar  315  HIS315     -0.2212
     86  N        -14.3520  -26.3960   12.4900 N.am  316  ALA316     -0.1980
     87  CA       -15.4290  -25.6870   13.1790 C.3   316  ALA316      0.1597
     88  C        -14.8920  -24.5280   14.0250 C.2   316  ALA316      0.2287
     89  O        -15.4910  -23.4470   14.0650 O.2   316  ALA316     -0.2864
     90  CB       -16.2230  -26.6670   14.0440 C.3   316  ALA316      0.0319
     91  N        -14.0850  -21.6010   11.7910 N.3   319  SER319     -0.1202
     92  CA       -15.2810  -20.8870   11.3720 C.3   319  SER319      0.2020
     93  C        -15.7530  -19.9210   12.4470 C.2   319  SER319      0.2618
     94  O        -16.0460  -18.7520   12.1580 O.2   319  SER319     -0.2717
     95  CB       -16.3720  -21.8840   11.0150 C.3   319  SER319      0.2103
     96  OG       -15.9200  -22.6540    9.9280 O.3   319  SER319     -0.2182
     97  N        -15.8350  -20.3950   13.6960 N.am  320  ALA320     -0.1979
     98  CA       -16.2290  -19.5380   14.7980 C.3   320  ALA320      0.1597
     99  C        -15.2250  -18.4010   14.9960 C.2   320  ALA320      0.2287
    100  O        -15.6100  -17.2410   15.2550 O.2   320  ALA320     -0.2864
    101  CB       -16.3960  -20.3870   16.0650 C.3   320  ALA320      0.0319
    102  N        -15.7750  -15.5760   12.5200 N.3   323  ILE323     -0.1245
    103  CA       -16.8600  -14.7050   12.9590 C.3   323  ILE323      0.1561
    104  C        -16.4040  -13.7440   14.0530 C.2   323  ILE323      0.2260
    105  O        -16.7450  -12.5510   14.0230 O.2   323  ILE323     -0.2867
    106  CB       -18.0590  -15.5660   13.3820 C.3   323  ILE323      0.0252
    107  CG1      -18.5790  -16.2550   12.0960 C.3   323  ILE323      0.0019
    108  CG2      -19.1020  -14.7110   14.0960 C.3   323  ILE323      0.0019
    109  CD1      -19.9900  -16.6380   12.1280 C.3   323  ILE323      0.0001
    110  N        -21.7650  -18.9310    7.9200 N.3   373  TYR373     -0.1241
    111  CA       -22.3700  -20.2360    8.2000 C.3   373  TYR373      0.1605
    112  C        -22.6860  -20.9700    6.9080 C.2   373  TYR373      0.2264
    113  O        -22.4250  -22.1710    6.7950 O.2   373  TYR373     -0.2867
    114  CB       -23.6480  -20.1120    9.0450 C.3   373  TYR373      0.0534
    115  CG       -23.4620  -19.4070   10.3610 C.ar  373  TYR373     -0.0201
    116  CD1      -22.3840  -19.6990   11.1890 C.ar  373  TYR373     -0.0009
    117  CD2      -24.3650  -18.4350   10.7700 C.ar  373  TYR373     -0.0009
    118  CE1      -22.2160  -19.0400   12.4250 C.ar  373  TYR373      0.0417
    119  CE2      -24.2080  -17.7660   11.9720 C.ar  373  TYR373      0.0417
    120  CZ       -23.1310  -18.0620   12.7940 C.ar  373  TYR373      0.1957
    121  OH       -22.9980  -17.3690   13.9790 O.3   373  TYR373     -0.2866
    122  N        -19.3660  -22.1580    5.2410 N.3   376  ARG376     -0.1231
    123  CA       -18.4330  -23.0260    5.9570 C.3   376  ARG376      0.1694
    124  C        -19.0660  -24.1900    6.7120 C.2   376  ARG376      0.2592
    125  O        -18.3270  -25.0590    7.1870 O.2   376  ARG376     -0.2718
    126  CB       -17.5760  -22.2080    6.9440 C.3   376  ARG376      0.0321
    127  CG       -16.6190  -21.2060    6.2680 C.3   376  ARG376      0.0489
    128  CD       -15.5210  -20.7770    7.2060 C.3   376  ARG376      0.2205
    129  NE       -14.9630  -21.9270    7.9280 N.pl3 376  ARG376     -0.0865
    130  CZ       -13.7570  -22.4600    7.7010 C.cat 376  ARG376      0.5346
    131  NH1      -12.9610  -21.9430    6.7760 N.pl3 376  ARG376      0.1354
    132  NH2      -13.3370  -23.5050    8.4160 N.pl3 376  ARG376      0.1354
    133  N        -20.3860  -24.2540    6.8330 N.am  377  ILE377     -0.1966
    134  CA       -21.0380  -25.2450    7.6720 C.3   377  ILE377      0.1727
    135  C        -22.0960  -25.9450    6.8290 C.2   377  ILE377      0.2616
    136  O        -23.2070  -25.4290    6.6580 O.2   377  ILE377     -0.2715
    137  CB       -21.6570  -24.6330    8.9290 C.3   377  ILE377      0.0290
    138  CG1      -20.6140  -23.7830    9.6700 C.3   377  ILE377      0.0022
    139  CG2      -22.2340  -25.7550    9.8140 C.3   377  ILE377      0.0023
    140  CD1      -21.1230  -23.0780   10.9390 C.3   377  ILE377      0.0001
    141  N        -21.7700  -27.1510    6.3480 N.am  378  ARG378     -0.1963
    142  CA       -22.6580  -27.8890    5.4510 C.3   378  ARG378      0.1729
    143  C        -24.0820  -27.9820    5.9970 C.2   378  ARG378      0.2616
    144  O        -25.0600  -27.7870    5.2650 O.2   378  ARG378     -0.2715
    145  CB       -22.1120  -29.3020    5.2120 C.3   378  ARG378      0.0348
    146  CG       -20.6030  -29.4810    4.9580 C.3   378  ARG378      0.0492
    147  CD       -20.5110  -30.8140    4.1710 C.3   378  ARG378      0.2205
    148  NE       -19.2490  -31.5260    4.3260 N.pl3 378  ARG378     -0.0865
    149  CZ       -18.4080  -31.7700    3.3270 C.cat 378  ARG378      0.5346
    150  NH1      -18.7090  -31.3680    2.0980 N.pl3 378  ARG378      0.1354
    151  NH2      -17.2710  -32.4180    3.5570 N.pl3 378  ARG378      0.1354
    152  N        -24.2220  -28.2990    7.2820 N.am  379  GLU379     -0.1963
    153  CA       -25.5520  -28.5190    7.8430 C.3   379  GLU379      0.1733
    154  C        -26.4190  -27.2570    7.7770 C.2   379  GLU379      0.2616
    155  O        -27.6350  -27.3450    7.5560 O.2   379  GLU379     -0.2715
    156  CB       -25.4100  -29.0130    9.2820 C.3   379  GLU379      0.0429
    157  CG       -26.6840  -29.5190    9.8730 C.3   379  GLU379      0.1163
    158  CD       -27.1160  -30.8180    9.2650 C.2   379  GLU379      0.3649
    159  OE1      -26.2330  -31.6050    8.8680 O.co2 379  GLU379     -0.2457
    160  OE2      -28.3380  -31.0460    9.1670 O.co2 379  GLU379     -0.2457
    161  N        -25.8180  -26.0730    7.9830 N.am  380  PHE380     -0.1960
    162  CA       -26.5540  -24.8240    7.7930 C.3   380  PHE380      0.1771
    163  C        -26.8730  -24.6020    6.3230 C.2   380  PHE380      0.2619
    164  O        -28.0240  -24.3360    5.9570 O.2   380  PHE380     -0.2715
    165  CB       -25.7490  -23.6190    8.3150 C.3   380  PHE380      0.0574
    166  CG       -26.0100  -23.2770    9.7590 C.ar  380  PHE380     -0.0200
    167  CD1      -27.2030  -22.6690   10.1340 C.ar  380  PHE380     -0.0042
    168  CD2      -25.0540  -23.5450   10.7340 C.ar  380  PHE380     -0.0042
    169  CE1      -27.4610  -22.3490   11.4650 C.ar  380  PHE380     -0.0003
    170  CE2      -25.3010  -23.2240   12.0930 C.ar  380  PHE380     -0.0003
    171  CZ       -26.5080  -22.6230   12.4460 C.ar  380  PHE380     -0.0000
    172  N        -25.8430  -24.6470    5.4730 N.am  381  ARG381     -0.1977
    173  CA       -26.0360  -24.4800    4.0380 C.3   381  ARG381      0.1597
    174  C        -27.1880  -25.3430    3.5240 C.2   381  ARG381      0.2287
    175  O        -28.0700  -24.8620    2.8030 O.2   381  ARG381     -0.2864
    176  CB       -24.7240  -24.8130    3.3260 C.3   381  ARG381      0.0334
    177  CG       -24.7910  -24.8040    1.8300 C.3   381  ARG381      0.0492
    178  CD       -23.3810  -24.8080    1.2310 C.3   381  ARG381      0.2205
    179  NE       -22.6370  -26.0480    1.4410 N.pl3 381  ARG381     -0.0865
    180  CZ       -21.5640  -26.1720    2.2160 C.cat 381  ARG381      0.5346
    181  NH1      -20.9530  -27.3490    2.3210 N.pl3 381  ARG381      0.1354
    182  NH2      -21.1080  -25.1310    2.9140 N.pl3 381  ARG381      0.1354
@<TRIPOS>BOND
     1   178   179    1
     2   178   177    1
     3   179   180    2
     4   177   176    1
     5   150   149    1
     6   180   181    1
     7   180   182    1
     8   175   174    2
     9   176   173    1
    10   149   151    1
    11   149   148    2
    12   174   173    1
    13   173   172    1
    14   147   148    1
    15   147   146    1
    16   146   145    1
    17   145   142    1
    18   122   123    1
    19   144   143    2
    20   142   143    1
    21   142   141    1
    22   172   163   am
    23   123   124    1
    24   123   126    1
    25   164   163    2
    26   143   152   am
    27   127   126    1
    28   127   128    1
    29   163   162    1
    30   141   135   am
    31   136   135    2
    32   124   133   am
    33   124   125    2
    34   131   130    1
    35   113   112    2
    36    85    84   ar
    37    85    83   ar
    38   135   134    1
    39   133   134    1
    40   112   111    1
    41   128   129    1
    42   152   153    1
    43    84    82   ar
    44    83    81   ar
    45   155   154    2
    46   134   137    1
    47   130   129    2
    48   130   132    1
    49   154   153    1
    50   154   161   am
    51   162   161    1
    52   162   165    1
    53   153   156    1
    54   110   111    1
    55   111   114    1
    56   165   166    1
    57    82    81   ar
    58    81    80    1
    59   159   158   ar
    60   137   138    1
    61   137   139    1
    62    65    64    2
    63   114   115    1
    64   160   158   ar
    65   158   157    1
    66   156   157    1
    67    66    64   am
    68    64    63    1
    69   138   140    1
    70    74    75    1
    71    74    73    1
    72   166   167   ar
    73   166   168   ar
    74    80    77    1
    75    96    95    1
    76   167   169   ar
    77   115   117   ar
    78   115   116   ar
    79    63    62    1
    80    62    59    1
    81   168   170   ar
    82   117   119   ar
    83    72    73    1
    84    72    71    1
    85    77    78    1
    86    77    76    1
    87    95    92    1
    88    79    78    2
    89   116   118   ar
    90    61    60    2
    91    92    91    1
    92    92    93    1
    93   169   171   ar
    94    78    86   am
    95    60    59    1
    96    60    67   am
    97    59    58    1
    98    68    67    1
    99    68    71    1
   100    68    69    1
   101   119   120   ar
   102   170   171   ar
   103   107   109    1
   104   107   106    1
   105    94    93    2
   106   118   120   ar
   107    93    97   am
   108    86    87    1
   109   102   103    1
   110   120   121    1
   111    70    69    2
   112   103   106    1
   113   103   104    1
   114    87    88    1
   115    87    90    1
   116   106   108    1
   117    97    98    1
   118   105   104    2
   119    88    89    2
   120    98    99    1
   121    98   101    1
   122    99   100    2
   123    21    20    1
   124    15    13   am
   125    14    13    2
   126    13    12    1
   127    22    20    1
   128    20    17    1
   129    30    28    1
   130    19    18    2
   131    26    25    2
   132    28    29    1
   133    28    27    1
   134    25    24    1
   135    12     9    1
   136    18    17    1
   137    17    16    1
   138    38    36    1
   139    27    24    1
   140     9     8    1
   141     9    10    1
   142    24    23    1
   143    11    10    2
   144    37    36    1
   145    53    52    1
   146    53    54    1
   147     7     5    1
   148    36    35    1
   149    46    44    1
   150     8     3   am
   151    45    43    1
   152    57    55    1
   153    52    51    1
   154     5     6    1
   155     5     2    1
   156     3     4    2
   157     3     2    1
   158    54    55    2
   159    55    56    1
   160    44    43    1
   161    35    32    1
   162    43    40    1
   163    51    48    1
   164     2     1    1
   165    32    31    1
   166    32    33    1
   167    42    41    2
   168    34    33    2
   169    40    41    1
   170    40    39    1
   171    48    49    1
   172    48    47    1
   173    50    49    2
