@<TRIPOS>MOLECULE
tmp/5olgA00.pdb
 103 95 0 0 0
SMALL
GASTEIGER

@<TRIPOS>ATOM
      1  N        -25.7360  -26.8730   22.0440 N.3    42  VAL42      -0.1245
      2  CA       -25.4690  -25.7130   22.8870 C.3    42  VAL42       0.1561
      3  C        -24.7470  -24.6360   22.0990 C.2    42  VAL42       0.2260
      4  O        -25.0560  -23.4440   22.2320 O.2    42  VAL42      -0.2867
      5  CB       -24.6700  -26.1200   24.1370 C.3    42  VAL42       0.0252
      6  CG1      -23.9520  -24.9050   24.6670 C.3    42  VAL42       0.0019
      7  CG2      -25.6060  -26.6920   25.1780 C.3    42  VAL42       0.0019
      8  N        -26.0070  -20.2400   21.3740 N.3    46  PHE46      -0.1241
      9  CA       -25.2740  -18.9700   21.3700 C.3    46  PHE46       0.1605
     10  C        -25.2810  -18.3490   19.9900 C.2    46  PHE46       0.2264
     11  O        -25.4100  -17.1270   19.8560 O.2    46  PHE46      -0.2867
     12  CB       -23.8480  -19.1900   21.8910 C.3    46  PHE46       0.0534
     13  CG       -23.8100  -19.6110   23.3420 C.ar   46  PHE46      -0.0203
     14  CD1      -24.1220  -18.7060   24.3330 C.ar   46  PHE46      -0.0042
     15  CD2      -23.4810  -20.9090   23.7040 C.ar   46  PHE46      -0.0042
     16  CE1      -24.1120  -19.0900   25.6620 C.ar   46  PHE46      -0.0003
     17  CE2      -23.4680  -21.2860   25.0220 C.ar   46  PHE46      -0.0003
     18  CZ       -23.8000  -20.3900   25.9980 C.ar   46  PHE46      -0.0000
     19  N        -20.5240  -11.3530   24.4480 N.3    95  PHE95      -0.1241
     20  CA       -20.7520  -12.4910   25.3390 C.3    95  PHE95       0.1605
     21  C        -21.0520  -13.7610   24.5520 C.2    95  PHE95       0.2264
     22  O        -20.5600  -14.8450   24.8950 O.2    95  PHE95      -0.2867
     23  CB       -21.9130  -12.1870   26.3060 C.3    95  PHE95       0.0534
     24  CG       -21.5600  -11.2270   27.4070 C.ar   95  PHE95      -0.0203
     25  CD1      -20.3580  -11.3430   28.0990 C.ar   95  PHE95      -0.0042
     26  CD2      -22.4070  -10.1820   27.7370 C.ar   95  PHE95      -0.0042
     27  CE1      -20.0420  -10.4510   29.1450 C.ar   95  PHE95      -0.0003
     28  CE2      -22.0900   -9.2790   28.7760 C.ar   95  PHE95      -0.0003
     29  CZ       -20.9160   -9.4070   29.4680 C.ar   95  PHE95      -0.0000
     30  N        -17.7590  -15.0010   23.0430 N.3    98  LEU98      -0.1231
     31  CA       -16.8740  -15.6050   24.0350 C.3    98  LEU98       0.1693
     32  C        -17.3990  -16.9690   24.4760 C.2    98  LEU98       0.2591
     33  O        -16.6180  -17.8960   24.7040 O.2    98  LEU98      -0.2718
     34  CB       -16.7070  -14.6660   25.2370 C.3    98  LEU98       0.0284
     35  CG       -15.8350  -15.1640   26.4060 C.3    98  LEU98       0.0019
     36  CD1      -14.4050  -15.5360   25.9700 C.3    98  LEU98       0.0001
     37  CD2      -15.7870  -14.1360   27.5720 C.3    98  LEU98       0.0001
     38  N        -18.7260  -17.1220   24.5650 N.am   99  ALA99      -0.1980
     39  CA       -19.3200  -18.3950   24.9540 C.3    99  ALA99       0.1597
     40  C        -19.0670  -19.4740   23.9020 C.2    99  ALA99       0.2287
     41  O        -18.7590  -20.6190   24.2440 O.2    99  ALA99      -0.2864
     42  CB       -20.8280  -18.2300   25.1710 C.3    99  ALA99       0.0319
     43  N        -15.4590  -20.6520   24.3200 N.3   102  ILE102     -0.1231
     44  CA       -15.2920  -21.4870   25.5100 C.3   102  ILE102      0.1692
     45  C        -15.9470  -22.8490   25.3030 C.2   102  ILE102      0.2592
     46  O        -15.3680  -23.8920   25.6440 O.2   102  ILE102     -0.2718
     47  CB       -15.8340  -20.7450   26.7560 C.3   102  ILE102      0.0266
     48  CG1      -14.9010  -19.5660   27.0870 C.3   102  ILE102      0.0019
     49  CG2      -15.9820  -21.6940   27.9800 C.3   102  ILE102      0.0020
     50  CD1      -15.4890  -18.5480   28.0700 C.3   102  ILE102      0.0001
     51  N        -17.1580  -22.8580   24.7270 N.am  103  ASP103     -0.1974
     52  CA       -17.8250  -24.1060   24.3940 C.3   103  ASP103      0.1709
     53  C        -16.9300  -25.0050   23.5400 C.2   103  ASP103      0.2293
     54  O        -16.7670  -26.1970   23.8300 O.2   103  ASP103     -0.2864
     55  CB       -19.1350  -23.8030   23.6660 C.3   103  ASP103      0.1436
     56  CG       -19.8670  -25.0610   23.2550 C.2   103  ASP103      0.3671
     57  OD1      -20.3960  -25.7230   24.1500 O.co2 103  ASP103     -0.2456
     58  OD2      -19.8680  -25.4180   22.0580 O.co2 103  ASP103     -0.2456
     59  N        -14.0380  -26.4300   25.5910 N.3   106  ILE106     -0.1245
     60  CA       -14.4480  -27.5400   26.4600 C.3   106  ILE106      0.1561
     61  C        -14.6090  -28.8120   25.6400 C.2   106  ILE106      0.2260
     62  O        -14.2120  -29.9060   26.0710 O.2   106  ILE106     -0.2867
     63  CB       -15.7480  -27.2020   27.2200 C.3   106  ILE106      0.0252
     64  CG1      -15.5280  -26.0800   28.2380 C.3   106  ILE106      0.0019
     65  CG2      -16.3190  -28.4660   27.9080 C.3   106  ILE106      0.0019
     66  CD1      -16.8370  -25.4010   28.6610 C.3   106  ILE106      0.0001
     67  N        -21.9210  -29.1900   29.7080 N.3   118  VAL118     -0.1245
     68  CA       -22.4980  -28.1520   28.8770 C.3   118  VAL118      0.1561
     69  C        -23.8570  -28.6710   28.4210 C.2   118  VAL118      0.2260
     70  O        -23.9270  -29.5420   27.5540 O.2   118  VAL118     -0.2867
     71  CB       -21.5740  -27.8320   27.6940 C.3   118  VAL118      0.0252
     72  CG1      -22.0180  -26.5900   26.9400 C.3   118  VAL118      0.0019
     73  CG2      -20.1440  -27.6520   28.1900 C.3   118  VAL118      0.0019
     74  N        -28.3860  -25.1620   31.0060 N.3   122  ARG122     -0.1231
     75  CA       -27.4110  -24.2150   31.5340 C.3   122  ARG122      0.1694
     76  C        -27.0600  -23.1600   30.4970 C.2   122  ARG122      0.2591
     77  O        -26.7620  -22.0230   30.8600 O.2   122  ARG122     -0.2718
     78  CB       -26.1370  -24.9370   31.9900 C.3   122  ARG122      0.0321
     79  CG       -26.3130  -25.8570   33.2180 C.3   122  ARG122      0.0489
     80  CD       -25.0540  -26.7080   33.5190 C.3   122  ARG122      0.2205
     81  NE       -25.4030  -27.8230   34.4040 N.pl3 122  ARG122     -0.0865
     82  CZ       -24.6320  -28.8790   34.6240 C.cat 122  ARG122      0.5346
     83  NH1      -25.0360  -29.8430   35.4470 N.pl3 122  ARG122      0.1354
     84  NH2      -23.4610  -28.9780   34.0250 N.pl3 122  ARG122      0.1354
     85  N        -27.0810  -23.5180   29.2130 N.am  123  ALA123     -0.1980
     86  CA       -26.8040  -22.5270   28.1730 C.3   123  ALA123      0.1597
     87  C        -27.8720  -21.4350   28.1570 C.2   123  ALA123      0.2287
     88  O        -27.5620  -20.2440   28.0260 O.2   123  ALA123     -0.2864
     89  CB       -26.7020  -23.2140   26.8060 C.3   123  ALA123      0.0319
     90  N        -27.1490  -19.0530   31.0490 N.3   126  ILE126     -0.1245
     91  CA       -26.0350  -18.1780   30.6960 C.3   126  ILE126      0.1561
     92  C        -26.4910  -17.1130   29.7060 C.2   126  ILE126      0.2260
     93  O        -26.1640  -15.9320   29.8610 O.2   126  ILE126     -0.2867
     94  CB       -24.8740  -19.0150   30.1470 C.3   126  ILE126      0.0252
     95  CG1      -24.3320  -19.9240   31.2710 C.3   126  ILE126      0.0019
     96  CG2      -23.8050  -18.1190   29.5490 C.3   126  ILE126      0.0019
     97  CD1      -23.3010  -20.9540   30.7690 C.3   126  ILE126      0.0001
     98  N        -26.3460  -13.1540   30.3720 N.3   130  CYS130     -0.1235
     99  CA       -25.5280  -12.3060   29.5260 C.3   130  CYS130      0.1677
    100  C        -26.3550  -11.1640   28.9300 C.2   130  CYS130      0.2270
    101  O        -25.8590  -10.0410   28.8130 O.2   130  CYS130     -0.2867
    102  CB       -24.8640  -13.1770   28.4420 C.3   130  CYS130      0.0956
    103  SG       -23.4820  -14.1580   29.1450 S.3   130  CYS130     -0.0801
@<TRIPOS>BOND
     1    11    10    2
     2    10     9    1
     3     9     8    1
     4     9    12    1
     5    12    13    1
     6     1     2    1
     7    58    56   ar
     8     3     4    2
     9     3     2    1
    10     2     5    1
    11    30    31    1
    12    56    55    1
    13    56    57   ar
    14    13    15   ar
    15    13    14   ar
    16    53    54    2
    17    53    52    1
    18    55    52    1
    19    15    17   ar
    20    40    41    2
    21    40    39    1
    22    31    32    1
    23    31    34    1
    24     5     6    1
    25     5     7    1
    26    43    44    1
    27    14    16   ar
    28    52    51    1
    29    19    20    1
    30    32    38   am
    31    32    33    2
    32    21    22    2
    33    21    20    1
    34    38    39    1
    35    51    45   am
    36    39    42    1
    37    17    18   ar
    38    34    35    1
    39    45    44    1
    40    45    46    2
    41    20    23    1
    42    44    47    1
    43    59    60    1
    44    61    62    2
    45    61    60    1
    46    16    18   ar
    47    36    35    1
    48    23    24    1
    49    35    37    1
    50    60    63    1
    51    47    48    1
    52    47    49    1
    53    89    86    1
    54    72    71    1
    55    48    50    1
    56    63    65    1
    57    63    64    1
    58    24    26   ar
    59    24    25   ar
    60    70    69    2
    61    71    73    1
    62    71    68    1
    63    26    28   ar
    64    88    87    2
    65    25    27   ar
    66    87    86    1
    67    86    85    1
    68    64    66    1
    69    69    68    1
    70   102   103    1
    71   102    99    1
    72    28    29   ar
    73   101   100    2
    74    68    67    1
    75   100    99    1
    76    27    29   ar
    77    85    76   am
    78    99    98    1
    79    96    94    1
    80    92    93    2
    81    92    91    1
    82    94    91    1
    83    94    95    1
    84    76    77    2
    85    76    75    1
    86    91    90    1
    87    97    95    1
    88    74    75    1
    89    75    78    1
    90    78    79    1
    91    79    80    1
    92    80    81    1
    93    84    82    1
    94    81    82    2
    95    82    83    1
