@<TRIPOS>MOLECULE
tmp/5olhA14.pdb
 176 166 0 0 0
SMALL
GASTEIGER

@<TRIPOS>ATOM
      1  N        -26.8960    8.2560    3.1920 N.3    11  TYR11      -0.1241
      2  CA       -26.6620    7.5580    4.4510 C.3    11  TYR11       0.1605
      3  C        -27.9060    6.7950    4.8940 C.2    11  TYR11       0.2264
      4  O        -27.8230    5.6210    5.2710 O.2    11  TYR11      -0.2867
      5  CB       -26.2130    8.5520    5.5220 C.3    11  TYR11       0.0534
      6  CG       -26.3730    8.0470    6.9400 C.ar   11  TYR11      -0.0201
      7  CD1      -25.5100    7.0910    7.4650 C.ar   11  TYR11      -0.0009
      8  CD2      -27.3860    8.5310    7.7550 C.ar   11  TYR11      -0.0009
      9  CE1      -25.6530    6.6340    8.7620 C.ar   11  TYR11       0.0417
     10  CE2      -27.5400    8.0790    9.0500 C.ar   11  TYR11       0.0417
     11  CZ       -26.6740    7.1300    9.5480 C.ar   11  TYR11       0.1957
     12  OH       -26.8330    6.6880   10.8400 O.3    11  TYR11      -0.2866
     13  N        -29.8920    5.3300   15.1020 N.3    65  ALA65      -0.1245
     14  CA       -28.7330    6.0240   14.5450 C.3    65  ALA65       0.1562
     15  C        -29.1470    7.0650   13.5090 C.2    65  ALA65       0.2260
     16  O        -28.5610    8.1520   13.4490 O.2    65  ALA65      -0.2867
     17  CB       -27.7580    5.0160   13.9370 C.3    65  ALA65       0.0290
     18  N        -30.5200   10.0680   15.6860 N.3    68  ILE68      -0.1231
     19  CA       -29.5520   10.8770   16.4170 C.3    68  ILE68       0.1692
     20  C        -28.5490   11.5640   15.5050 C.2    68  ILE68       0.2592
     21  O        -27.8120   12.4470   15.9630 O.2    68  ILE68      -0.2718
     22  CB       -28.8050   10.0250   17.4620 C.3    68  ILE68       0.0266
     23  CG1      -28.3600   10.8990   18.6320 C.3    68  ILE68       0.0019
     24  CG2      -27.5960    9.3430   16.8400 C.3    68  ILE68       0.0020
     25  CD1      -27.6990   10.1240   19.7410 C.3    68  ILE68       0.0001
     26  N        -28.4970   11.1870   14.2260 N.am   69  SER69      -0.1952
     27  CA       -27.6540   11.9090   13.2800 C.3    69  SER69       0.1924
     28  C        -28.2240   13.2780   12.9300 C.2    69  SER69       0.2314
     29  O        -27.4640   14.1710   12.5430 O.2    69  SER69      -0.2863
     30  CB       -27.4630   11.0870   12.0060 C.3    69  SER69       0.2116
     31  OG       -28.6900   10.9440   11.3130 O.3    69  SER69      -0.2180
     32  N        -29.0670    6.9440   22.1860 N.3    83  ALA83      -0.1245
     33  CA       -27.6340    6.9890   21.9190 C.3    83  ALA83       0.1562
     34  C        -26.9390    5.7040   22.3450 C.2    83  ALA83       0.2260
     35  O        -26.0010    5.2550   21.6780 O.2    83  ALA83      -0.2867
     36  CB       -27.0030    8.1830   22.6340 C.3    83  ALA83       0.0290
     37  N        -27.5140    0.9200   21.2450 N.3    86  VAL86      -0.1231
     38  CA       -26.6300    0.1370   20.3920 C.3    86  VAL86       0.1692
     39  C        -25.4380   -0.3950   21.1870 C.2    86  VAL86       0.2591
     40  O        -24.8760   -1.4450   20.8470 O.2    86  VAL86      -0.2718
     41  CB       -26.2040    0.9840   19.1800 C.3    86  VAL86       0.0266
     42  CG1      -25.3790    2.1960   19.6270 C.3    86  VAL86       0.0020
     43  CG2      -25.4610    0.1280   18.1500 C.3    86  VAL86       0.0020
     44  N        -25.0460    0.2910   22.2660 N.am   87  LEU87      -0.1980
     45  CA       -23.9910   -0.2410   23.1230 C.3    87  LEU87       0.1596
     46  C        -24.4560   -1.4840   23.8740 C.2    87  LEU87       0.2287
     47  O        -23.6390   -2.3550   24.1920 O.2    87  LEU87      -0.2864
     48  CB       -23.5120    0.8300   24.1050 C.3    87  LEU87       0.0297
     49  CG       -23.0820    2.1790   23.5200 C.3    87  LEU87       0.0022
     50  CD1      -22.7270    3.1600   24.6300 C.3    87  LEU87       0.0001
     51  CD2      -21.9220    2.0210   22.5480 C.3    87  LEU87       0.0001
     52  N        -24.1970   -4.2340   21.2130 N.3    90  ALA90      -0.1245
     53  CA       -22.7870   -4.5480   21.0120 C.3    90  ALA90       0.1562
     54  C        -22.2270   -5.3300   22.1930 C.2    90  ALA90       0.2260
     55  O        -21.4470   -6.2720   22.0100 O.2    90  ALA90      -0.2867
     56  CB       -21.9820   -3.2690   20.7820 C.3    90  ALA90       0.0290
     57  N        -24.5320   12.4340   20.0150 N.3   170  PHE170     -0.1227
     58  CA       -23.8690   11.3900   20.7950 C.3   170  PHE170      0.1736
     59  C        -22.7220   11.9560   21.6230 C.2   170  PHE170      0.2595
     60  O        -22.6830   11.7960   22.8480 O.2   170  PHE170     -0.2718
     61  CB       -23.3580   10.2930   19.8610 C.3   170  PHE170      0.0547
     62  CG       -22.8110    9.0810   20.5690 C.ar  170  PHE170     -0.0202
     63  CD1      -21.5010    9.0560   21.0340 C.ar  170  PHE170     -0.0042
     64  CD2      -23.5990    7.9510   20.7420 C.ar  170  PHE170     -0.0042
     65  CE1      -20.9940    7.9350   21.6820 C.ar  170  PHE170     -0.0003
     66  CE2      -23.0980    6.8190   21.3850 C.ar  170  PHE170     -0.0003
     67  CZ       -21.7930    6.8120   21.8550 C.ar  170  PHE170     -0.0000
     68  N        -21.7680   12.6180   20.9680 N.am  171  GLU171     -0.1979
     69  CA       -20.5940   13.0880   21.6930 C.3   171  GLU171      0.1602
     70  C        -20.8980   14.2640   22.6080 C.2   171  GLU171      0.2287
     71  O        -20.0270   14.6580   23.3900 O.2   171  GLU171     -0.2864
     72  CB       -19.4820   13.4430   20.7100 C.3   171  GLU171      0.0415
     73  CG       -19.0380   12.2440   19.8910 C.3   171  GLU171      0.1163
     74  CD       -17.7550   12.4850   19.1290 C.2   171  GLU171      0.3649
     75  OE1      -17.0450   13.4680   19.4380 O.co2 171  GLU171     -0.2457
     76  OE2      -17.4590   11.6830   18.2180 O.co2 171  GLU171     -0.2457
     77  N        -16.7580   11.0130   26.7050 N.3   176  MET176     -0.1245
     78  CA       -15.7550   10.2950   25.9360 C.3   176  MET176      0.1570
     79  C        -14.8730    9.4160   26.8150 C.2   176  MET176      0.2261
     80  O        -14.3340    8.4160   26.3260 O.2   176  MET176     -0.2867
     81  CB       -14.9130   11.2870   25.1340 C.3   176  MET176      0.0387
     82  CG       -14.3560   10.7080   23.8550 C.3   176  MET176      0.0595
     83  SD       -15.5950    9.8390   22.8670 S.3   176  MET176     -0.1393
     84  CE       -16.6950   11.1820   22.4300 C.3   176  MET176      0.0692
     85  N        -16.6670    6.1520   26.9080 N.3   179  MET179     -0.1245
     86  CA       -16.5340    5.4090   25.6580 C.3   179  MET179      0.1570
     87  C        -15.1710    4.7400   25.5430 C.2   179  MET179      0.2261
     88  O        -15.0630    3.6230   25.0240 O.2   179  MET179     -0.2867
     89  CB       -16.7610    6.3380   24.4670 C.3   179  MET179      0.0387
     90  CG       -18.1910    6.7980   24.2970 C.3   179  MET179      0.0595
     91  SD       -19.3510    5.4200   24.2440 S.3   179  MET179     -0.1393
     92  CE       -18.8060    4.5470   22.7770 C.3   179  MET179      0.0692
     93  N        -16.2140    1.5660   28.1520 N.3   183  ASN183     -0.1240
     94  CA       -16.8010    0.7620   27.0880 C.3   183  ASN183      0.1653
     95  C        -15.7270    0.0290   26.2920 C.2   183  ASN183      0.2266
     96  O        -15.7350   -1.2050   26.2080 O.2   183  ASN183     -0.2867
     97  CB       -17.6600    1.6330   26.1740 C.3   183  ASN183      0.1155
     98  CG       -18.5760    0.8090   25.2990 C.2   183  ASN183      0.2627
     99  OD1      -18.3280    0.6380   24.1060 O.2   183  ASN183     -0.2716
    100  ND2      -19.6290    0.2620   25.8990 N.am  183  ASN183     -0.0877
    101  N        -15.9870   -3.0150   14.3940 N.3   331  TRP331     -0.1241
    102  CA       -16.2190   -2.0740   15.4810 C.3   331  TRP331      0.1605
    103  C        -14.9800   -1.3070   15.8980 C.2   331  TRP331      0.2264
    104  O        -15.1160   -0.2090   16.4490 O.2   331  TRP331     -0.2867
    105  CB       -16.7770   -2.7980   16.7090 C.3   331  TRP331      0.0550
    106  CG       -18.2190   -3.1300   16.5910 C.ar  331  TRP331      0.0003
    107  CD1      -18.7550   -4.3350   16.2560 C.ar  331  TRP331      0.0946
    108  CD2      -19.3220   -2.2430   16.8100 C.ar  331  TRP331      0.0152
    109  NE1      -20.1290   -4.2560   16.2600 N.ar  331  TRP331     -0.2442
    110  CE2      -20.4990   -2.9800   16.5910 C.ar  331  TRP331      0.0810
    111  CE3      -19.4260   -0.8970   17.1710 C.ar  331  TRP331      0.0012
    112  CZ2      -21.7630   -2.4180   16.7190 C.ar  331  TRP331      0.0191
    113  CZ3      -20.6820   -0.3410   17.2960 C.ar  331  TRP331      0.0001
    114  CH2      -21.8350   -1.1010   17.0750 C.ar  331  TRP331      0.0015
    115  N        -14.5450    2.5380   14.8430 N.3   334  LEU334     -0.1231
    116  CA       -15.3190    3.4430   15.6840 C.3   334  LEU334      0.1693
    117  C        -14.6400    3.6640   17.0340 C.2   334  LEU334      0.2592
    118  O        -14.5760    4.7960   17.5270 O.2   334  LEU334     -0.2718
    119  CB       -16.7310    2.8880   15.8630 C.3   334  LEU334      0.0284
    120  CG       -17.8820    3.8670   16.0890 C.3   334  LEU334      0.0019
    121  CD1      -17.7840    5.0610   15.1530 C.3   334  LEU334      0.0001
    122  CD2      -19.2050    3.1430   15.8910 C.3   334  LEU334      0.0001
    123  N        -14.1060    2.5980   17.6380 N.am  335  HIS335     -0.1976
    124  CA       -13.4200    2.7420   18.9200 C.3   335  HIS335      0.1656
    125  C        -12.1030    3.4940   18.7750 C.2   335  HIS335      0.2291
    126  O        -11.7210    4.2610   19.6680 O.2   335  HIS335     -0.2864
    127  CB       -13.1720    1.3710   19.5430 C.3   335  HIS335      0.0771
    128  CG       -14.4060    0.7220   20.0760 C.ar  335  HIS335      0.0820
    129  ND1      -15.1050    1.2280   21.1510 N.ar  335  HIS335     -0.2267
    130  CD2      -15.0650   -0.3950   19.6890 C.ar  335  HIS335      0.1154
    131  CE1      -16.1460    0.4530   21.3990 C.ar  335  HIS335      0.1986
    132  NE2      -16.1430   -0.5400   20.5280 N.ar  335  HIS335     -0.2212
    133  N        -12.7580    7.2300   18.5190 N.3   338  ASN338     -0.1240
    134  CA       -13.0370    7.7730   19.8440 C.3   338  ASN338      0.1653
    135  C        -11.7610    7.9610   20.6480 C.2   338  ASN338      0.2266
    136  O        -11.6600    8.9080   21.4350 O.2   338  ASN338     -0.2867
    137  CB       -14.0020    6.8670   20.6020 C.3   338  ASN338      0.1155
    138  CG       -15.4010    6.9040   20.0370 C.2   338  ASN338      0.2627
    139  OD1      -15.7870    7.8650   19.3680 O.2   338  ASN338     -0.2716
    140  ND2      -16.1800    5.8620   20.3130 N.am  338  ASN338     -0.0877
    141  N        -16.5810   14.2510    9.3980 N.3   352  LEU352     -0.1245
    142  CA       -17.9240   13.7080    9.5610 C.3   352  LEU352      0.1561
    143  C        -18.1700   12.5310    8.6230 C.2   352  LEU352      0.2260
    144  O        -18.8220   11.5520    9.0070 O.2   352  LEU352     -0.2867
    145  CB       -18.9610   14.8050    9.3320 C.3   352  LEU352      0.0270
    146  CG       -20.3770   14.4340    9.7660 C.3   352  LEU352      0.0019
    147  CD1      -20.4330   14.2920   11.2780 C.3   352  LEU352      0.0001
    148  CD2      -21.3940   15.4490    9.2700 C.3   352  LEU352      0.0001
    149  N        -16.8400    9.5430   10.1160 N.3   355  MET355     -0.1230
    150  CA       -17.7470    9.0920   11.1670 C.3   355  MET355      0.1702
    151  C        -18.9020    8.2960   10.5770 C.2   355  MET355      0.2592
    152  O        -19.2470    7.2180   11.0730 O.2   355  MET355     -0.2718
    153  CB       -18.2690   10.2910   11.9590 C.3   355  MET355      0.0401
    154  CG       -17.1900   11.0780   12.6750 C.3   355  MET355      0.0596
    155  SD       -16.3260   10.0620   13.8780 S.3   355  MET355     -0.1393
    156  CE       -17.7040    9.3980   14.8100 C.3   355  MET355      0.0692
    157  N        -19.5130    8.8200    9.5110 N.am  356  TYR356     -0.1976
    158  CA       -20.5940    8.1040    8.8430 C.3   356  TYR356      0.1639
    159  C        -20.1180    6.7560    8.3130 C.2   356  TYR356      0.2290
    160  O        -20.8490    5.7600    8.3810 O.2   356  TYR356     -0.2864
    161  CB       -21.1650    8.9630    7.7140 C.3   356  TYR356      0.0560
    162  CG       -22.2160    9.9570    8.1700 C.ar  356  TYR356     -0.0198
    163  CD1      -21.8620   11.1280    8.8270 C.ar  356  TYR356     -0.0009
    164  CD2      -23.5630    9.7200    7.9450 C.ar  356  TYR356     -0.0009
    165  CE1      -22.8210   12.0330    9.2420 C.ar  356  TYR356      0.0417
    166  CE2      -24.5290   10.6180    8.3550 C.ar  356  TYR356      0.0417
    167  CZ       -24.1540   11.7750    9.0020 C.ar  356  TYR356      0.1957
    168  OH       -25.1180   12.6730    9.4160 O.3   356  TYR356     -0.2866
    169  N        -19.7320    4.3000   11.2870 N.3   359  ILE359     -0.1245
    170  CA       -21.0460    3.8930   11.7810 C.3   359  ILE359      0.1561
    171  C        -21.6510    2.8290   10.8700 C.2   359  ILE359      0.2260
    172  O        -22.1590    1.8010   11.3320 O.2   359  ILE359     -0.2867
    173  CB       -21.9640    5.1240   11.9100 C.3   359  ILE359      0.0252
    174  CG1      -21.5400    5.9990   13.0960 C.3   359  ILE359      0.0019
    175  CG2      -23.4340    4.7130   12.0070 C.3   359  ILE359      0.0019
    176  CD1      -21.8990    5.4300   14.4600 C.3   359  ILE359      0.0001
@<TRIPOS>BOND
     1     1     2    1
     2     2     3    1
     3     2     5    1
     4     3     4    2
     5     5     6    1
     6     6     7   ar
     7     6     8   ar
     8     7     9   ar
     9   161   162    1
    10   161   158    1
    11     8    10   ar
    12   164   162   ar
    13   164   166   ar
    14   162   163   ar
    15   159   160    2
    16   159   158    1
    17   166   167   ar
    18   143   144    2
    19   143   142    1
    20     9    11   ar
    21   163   165   ar
    22   158   157    1
    23   167   165   ar
    24   167   168    1
    25    10    11   ar
    26   148   146    1
    27   145   142    1
    28   145   146    1
    29   141   142    1
    30   157   151   am
    31    11    12    1
    32   146   147    1
    33   149   150    1
    34   151   152    2
    35   151   150    1
    36   171   172    2
    37   171   170    1
    38   150   153    1
    39   169   170    1
    40    31    30    1
    41   170   173    1
    42   173   175    1
    43   173   174    1
    44   153   154    1
    45    30    27    1
    46    29    28    2
    47   154   155    1
    48    28    27    1
    49   174   176    1
    50    27    26    1
    51    16    15    2
    52    15    14    1
    53   155   156    1
    54    17    14    1
    55    26    20   am
    56   101   102    1
    57    14    13    1
    58   115   116    1
    59   121   120    1
    60   102   103    1
    61   102   105    1
    62    20    21    2
    63    20    19    1
    64   116   119    1
    65   116   117    1
    66    18    19    1
    67   119   120    1
    68   122   120    1
    69   103   104    2
    70   107   109   ar
    71   107   106   ar
    72   109   110   ar
    73    19    22    1
    74   110   112   ar
    75   110   108   ar
    76   106   105    1
    77   106   108   ar
    78   112   114   ar
    79   108   111   ar
    80    24    22    1
    81   117   118    2
    82   117   123   am
    83   114   113   ar
    84   111   113   ar
    85    22    23    1
    86   123   124    1
    87    43    41    1
    88    76    74   ar
    89   133   134    1
    90    23    25    1
    91   125   124    1
    92   125   126    2
    93   124   127    1
    94    74    75   ar
    95    74    73    1
    96    41    42    1
    97    41    38    1
    98   139   138    2
    99   127   128    1
   100   130   128   ar
   101   130   132   ar
   102   134   137    1
   103   134   135    1
   104    61    62    1
   105    61    58    1
   106    73    72    1
   107    57    58    1
   108   138   140   am
   109   138   137    1
   110   128   129   ar
   111    38    39    1
   112    38    37    1
   113   132   131   ar
   114    62    64   ar
   115    62    63   ar
   116   135   136    2
   117    72    69    1
   118    64    66   ar
   119    56    53    1
   120    58    59    1
   121    40    39    2
   122    68    59   am
   123    68    69    1
   124    53    52    1
   125    53    54    1
   126    63    65   ar
   127   129   131   ar
   128    39    44   am
   129    66    67   ar
   130    59    60    2
   131    35    34    2
   132    65    67   ar
   133    69    70    1
   134    33    32    1
   135    33    34    1
   136    33    36    1
   137    55    54    2
   138    44    45    1
   139    84    83    1
   140    51    49    1
   141    70    71    2
   142    92    91    1
   143    83    82    1
   144    45    46    1
   145    45    48    1
   146    49    48    1
   147    49    50    1
   148    82    81    1
   149    46    47    2
   150    99    98    2
   151    91    90    1
   152    90    89    1
   153    89    86    1
   154    88    87    2
   155    81    78    1
   156    98   100   am
   157    98    97    1
   158    87    86    1
   159    86    85    1
   160    78    77    1
   161    78    79    1
   162    97    94    1
   163    96    95    2
   164    95    94    1
   165    80    79    2
   166    94    93    1
