@<TRIPOS>MOLECULE
tmp/5olhA03.pdb
 79 73 0 0 0
SMALL
GASTEIGER

@<TRIPOS>ATOM
      1  N        -28.5830    3.6810    2.6950 N.3    14  VAL14      -0.1245
      2  CA       -27.6650    2.5990    3.0330 C.3    14  VAL14       0.1561
      3  C        -28.0450    1.9770    4.3720 C.2    14  VAL14       0.2260
      4  O        -28.0580    0.7480    4.5170 O.2    14  VAL14      -0.2867
      5  CB       -26.2110    3.1100    3.0270 C.3    14  VAL14       0.0252
      6  CG1      -25.2630    2.0450    3.5600 C.3    14  VAL14       0.0019
      7  CG2      -25.8040    3.5340    1.6200 C.3    14  VAL14       0.0019
      8  N        -30.9860   -0.2850    3.8700 N.3    17  ALA17      -0.1231
      9  CA       -30.5920   -1.5170    3.1960 C.3    17  ALA17       0.1694
     10  C        -29.9100   -2.4770    4.1620 C.2    17  ALA17       0.2591
     11  O        -30.1520   -3.6900    4.1190 O.2    17  ALA17      -0.2718
     12  CB       -29.6730   -1.2000    2.0150 C.3    17  ALA17       0.0304
     13  N        -29.0610   -1.9520    5.0470 N.am   18  ILE18      -0.1980
     14  CA       -28.3840   -2.7980    6.0260 C.3    18  ILE18       0.1595
     15  C        -29.3850   -3.3670    7.0240 C.2    18  ILE18       0.2287
     16  O        -29.2950   -4.5370    7.4160 O.2    18  ILE18      -0.2864
     17  CB       -27.2650   -2.0020    6.7240 C.3    18  ILE18       0.0276
     18  CG1      -26.1670   -1.6550    5.7190 C.3    18  ILE18       0.0022
     19  CG2      -26.7010   -2.7720    7.9140 C.3    18  ILE18       0.0022
     20  CD1      -25.1290   -0.7140    6.2600 C.3    18  ILE18       0.0001
     21  N        -31.2600   -6.2470    5.4080 N.3    21  LEU21      -0.1245
     22  CA       -30.4230   -7.4350    5.2610 C.3    21  LEU21       0.1561
     23  C        -30.1110   -8.0730    6.6110 C.2    21  LEU21       0.2260
     24  O        -30.0510   -9.3030    6.7210 O.2    21  LEU21      -0.2867
     25  CB       -29.1360   -7.0840    4.5190 C.3    21  LEU21       0.0270
     26  CG       -29.3090   -6.7210    3.0430 C.3    21  LEU21       0.0019
     27  CD1      -27.9800   -6.2910    2.4350 C.3    21  LEU21       0.0001
     28  CD2      -29.9110   -7.8860    2.2690 C.3    21  LEU21       0.0001
     29  N        -21.6010    3.0620    9.5580 N.3   360  VAL360     -0.1245
     30  CA       -22.1500    2.1010    8.6060 C.3   360  VAL360      0.1561
     31  C        -21.3900    0.7800    8.6770 C.2   360  VAL360      0.2260
     32  O        -21.9920   -0.3010    8.6680 O.2   360  VAL360     -0.2867
     33  CB       -22.1350    2.7020    7.1880 C.3   360  VAL360      0.0252
     34  CG1      -22.3540    1.6260    6.1420 C.3   360  VAL360      0.0019
     35  CG2      -23.1890    3.7940    7.0670 C.3   360  VAL360      0.0019
     36  N        -22.8860   -2.9540    9.4180 N.3   364  THR364     -0.1218
     37  CA       -22.7420   -4.0310    8.4390 C.3   364  THR364      0.1862
     38  C        -22.4390   -5.3670    9.1060 C.2   364  THR364      0.2287
     39  O        -22.8350   -6.4210    8.5930 O.2   364  THR364     -0.2866
     40  CB       -21.6460   -3.6700    7.4290 C.3   364  THR364      0.1770
     41  OG1      -22.1060   -2.6100    6.5800 O.3   364  THR364     -0.2211
     42  CG2      -21.2720   -4.8650    6.5670 C.3   364  THR364      0.0375
     43  N        -24.9310   -8.0870    9.3290 N.3   367  VAL367     -0.1231
     44  CA       -25.3250   -8.8100    8.1280 C.3   367  VAL367      0.1692
     45  C        -24.4260  -10.0110    7.8460 C.2   367  VAL367      0.2591
     46  O        -24.9120  -11.0180    7.3200 O.2   367  VAL367     -0.2718
     47  CB       -25.3490   -7.8610    6.9080 C.3   367  VAL367      0.0266
     48  CG1      -25.8420   -8.5800    5.6620 C.3   367  VAL367      0.0020
     49  CG2      -26.2300   -6.6410    7.1740 C.3   367  VAL367      0.0020
     50  N        -23.1440   -9.9580    8.2280 N.am  368  VAL368     -0.1980
     51  CA       -22.1720  -10.9230    7.7110 C.3   368  VAL368      0.1595
     52  C        -22.2510  -12.2810    8.3930 C.2   368  VAL368      0.2287
     53  O        -21.8210  -13.2750    7.8000 O.2   368  VAL368     -0.2864
     54  CB       -20.7370  -10.3840    7.8460 C.3   368  VAL368      0.0276
     55  CG1      -20.5740   -9.1290    7.0230 C.3   368  VAL368      0.0022
     56  CG2      -20.4120  -10.1060    9.3100 C.3   368  VAL368      0.0022
     57  N        -23.9130  -15.1940    6.5490 N.3   371  PHE371     -0.1241
     58  CA       -23.1540  -15.6800    5.4000 C.3   371  PHE371      0.1605
     59  C        -22.0230  -16.6120    5.8070 C.2   371  PHE371      0.2264
     60  O        -21.6810  -17.5270    5.0480 O.2   371  PHE371     -0.2867
     61  CB       -22.6070  -14.5060    4.5890 C.3   371  PHE371      0.0534
     62  CG       -23.6480  -13.8240    3.7710 C.ar  371  PHE371     -0.0203
     63  CD1      -23.9490  -14.2780    2.4990 C.ar  371  PHE371     -0.0042
     64  CD2      -24.3560  -12.7540    4.2870 C.ar  371  PHE371     -0.0042
     65  CE1      -24.9230  -13.6660    1.7480 C.ar  371  PHE371     -0.0003
     66  CE2      -25.3320  -12.1370    3.5400 C.ar  371  PHE371     -0.0003
     67  CZ       -25.6180  -12.5960    2.2690 C.ar  371  PHE371     -0.0000
     68  N        -21.5410  -20.5000    4.3190 N.3   375  TYR375     -0.1241
     69  CA       -20.3730  -20.9480    3.5760 C.3   375  TYR375      0.1605
     70  C        -19.5100  -21.9280    4.3590 C.2   375  TYR375      0.2264
     71  O        -18.7130  -22.6500    3.7490 O.2   375  TYR375     -0.2867
     72  CB       -19.5290  -19.7440    3.1470 C.3   375  TYR375      0.0534
     73  CG       -20.1000  -18.9930    1.9660 C.ar  375  TYR375     -0.0201
     74  CD1      -19.8260  -19.3980    0.6660 C.ar  375  TYR375     -0.0009
     75  CD2      -20.9150  -17.8830    2.1490 C.ar  375  TYR375     -0.0009
     76  CE1      -20.3470  -18.7160   -0.4210 C.ar  375  TYR375      0.0417
     77  CE2      -21.4430  -17.1950    1.0710 C.ar  375  TYR375      0.0417
     78  CZ       -21.1560  -17.6150   -0.2130 C.ar  375  TYR375      0.1957
     79  OH       -21.6780  -16.9350   -1.2900 O.3   375  TYR375     -0.2866
@<TRIPOS>BOND
     1    79    78    1
     2    76    78   ar
     3    76    74   ar
     4    78    77   ar
     5    74    73   ar
     6    77    75   ar
     7     7     5    1
     8    65    67   ar
     9    65    63   ar
    10    73    75   ar
    11    73    72    1
    12    12     9    1
    13    67    66   ar
    14    28    26    1
    15    27    26    1
    16    63    62   ar
    17     1     2    1
    18     5     2    1
    19     5     6    1
    20     2     3    1
    21    26    25    1
    22    72    69    1
    23     9     8    1
    24     9    10    1
    25    66    64   ar
    26    69    68    1
    27    69    70    1
    28    71    70    2
    29    62    64   ar
    30    62    61    1
    31    11    10    2
    32    10    13   am
    33     3     4    2
    34    25    22    1
    35    61    58    1
    36    13    14    1
    37    60    59    2
    38    22    21    1
    39    22    23    1
    40    58    59    1
    41    58    57    1
    42    48    47    1
    43    18    20    1
    44    18    17    1
    45    14    17    1
    46    14    15    1
    47    34    33    1
    48    42    40    1
    49    41    40    1
    50    23    24    2
    51    17    19    1
    52    47    49    1
    53    47    44    1
    54    55    54    1
    55    15    16    2
    56    35    33    1
    57    33    30    1
    58    46    45    2
    59    40    37    1
    60    51    54    1
    61    51    50    1
    62    51    52    1
    63    53    52    2
    64    45    44    1
    65    45    50   am
    66    54    56    1
    67    44    43    1
    68    37    38    1
    69    37    36    1
    70    39    38    2
    71    30    31    1
    72    30    29    1
    73    32    31    2
