@<TRIPOS>MOLECULE
tmp/5olkA00.pdb
 122 116 0 0 0
SMALL
GASTEIGER

@<TRIPOS>ATOM
      1  N        -68.3850   38.2870  -49.1420 N.3     5  ILE5       -0.1245
      2  CA       -68.1030   39.7130  -48.9600 C.3     5  ILE5        0.1561
      3  C        -66.7850   39.9180  -48.1840 C.2     5  ILE5        0.2260
      4  O        -66.4990   39.1830  -47.2340 O.2     5  ILE5       -0.2867
      5  CB       -69.2850   40.4690  -48.2980 C.3     5  ILE5        0.0252
      6  CG1      -69.0830   42.0080  -48.3830 C.3     5  ILE5        0.0019
      7  CG2      -69.5270   39.9930  -46.8460 C.3     5  ILE5        0.0019
      8  CD1      -70.3110   42.8110  -48.3650 C.3     5  ILE5        0.0001
      9  N        -64.9830   42.0280  -45.5600 N.3     7  LYS7       -0.1231
     10  CA       -65.2800   42.9100  -44.4280 C.3     7  LYS7        0.1693
     11  C        -64.2310   44.0020  -44.3030 C.2     7  LYS7        0.2591
     12  O        -63.2140   43.9470  -44.9970 O.2     7  LYS7       -0.2718
     13  CB       -65.4400   42.1070  -43.1200 C.3     7  LYS7        0.0285
     14  CG       -66.5050   40.9880  -43.2020 C.3     7  LYS7        0.0035
     15  CD       -67.9760   41.4570  -43.1890 C.3     7  LYS7        0.0206
     16  CE       -68.4720   41.7860  -41.7950 C.3     7  LYS7        0.1093
     17  NZ       -69.9260   42.1180  -41.7880 N.3     7  LYS7       -0.1314
     18  N        -64.4840   45.0190  -43.4480 N.am    8  ARG8       -0.1980
     19  CA       -63.5800   46.1680  -43.2150 C.3     8  ARG8        0.1597
     20  C        -62.1820   45.7670  -42.7380 C.2     8  ARG8        0.2287
     21  O        -61.2090   46.4540  -43.0750 O.2     8  ARG8       -0.2864
     22  CB       -64.2080   47.2060  -42.2630 C.3     8  ARG8        0.0334
     23  CG       -65.3260   48.0060  -42.9050 C.3     8  ARG8        0.0492
     24  CD       -65.7970   49.1520  -42.0320 C.3     8  ARG8        0.2205
     25  NE       -67.1000   49.6560  -42.4780 N.pl3   8  ARG8       -0.0865
     26  CZ       -68.2650   49.3060  -41.9380 C.cat   8  ARG8        0.5346
     27  NH1      -68.3030   48.4790  -40.9030 N.pl3   8  ARG8        0.1354
     28  NH2      -69.3970   49.8050  -42.4100 N.pl3   8  ARG8        0.1354
     29  N        -66.5690   36.8300  -45.4200 N.3    13  ALA13      -0.1231
     30  CA       -67.7840   36.3790  -44.7340 C.3    13  ALA13       0.1679
     31  C        -68.8940   36.0380  -45.7490 C.2    13  ALA13       0.2434
     32  O        -68.9050   36.6220  -46.8420 O.2    13  ALA13      -0.2733
     33  CB       -68.2660   37.4520  -43.7880 C.3    13  ALA13       0.0304
     34  N        -69.8270   35.0950  -45.4440 N.am   14  PRO14      -0.2718
     35  CA       -70.9060   34.8010  -46.4110 C.3    14  PRO14       0.1535
     36  C        -71.7790   36.0240  -46.6460 C.2    14  PRO14       0.2599
     37  O        -72.0710   36.7760  -45.7180 O.2    14  PRO14      -0.2715
     38  CB       -71.6910   33.6530  -45.7540 C.3    14  PRO14       0.0310
     39  CG       -70.7830   33.1120  -44.6980 C.3    14  PRO14       0.0237
     40  CD       -69.9810   34.2810  -44.2210 C.3    14  PRO14       0.0939
     41  N        -72.1260   36.2570  -47.9040 N.am   15  PHE15      -0.1960
     42  CA       -72.9440   37.3820  -48.3210 C.3    15  PHE15       0.1771
     43  C        -74.3890   37.1840  -47.8660 C.2    15  PHE15       0.2619
     44  O        -74.9770   36.1500  -48.1590 O.2    15  PHE15      -0.2715
     45  CB       -72.8800   37.5260  -49.8440 C.3    15  PHE15       0.0574
     46  CG       -73.4920   38.8010  -50.3540 C.ar   15  PHE15      -0.0200
     47  CD1      -74.8570   38.8790  -50.6230 C.ar   15  PHE15      -0.0042
     48  CD2      -72.7120   39.9260  -50.5630 C.ar   15  PHE15      -0.0042
     49  CE1      -75.4300   40.0710  -51.0760 C.ar   15  PHE15      -0.0003
     50  CE2      -73.2830   41.1080  -51.0350 C.ar   15  PHE15      -0.0003
     51  CZ       -74.6350   41.1700  -51.2960 C.ar   15  PHE15      -0.0000
     52  N        -74.9510   38.1750  -47.1430 N.am   16  VAL16      -0.1977
     53  CA       -76.3410   38.1960  -46.6500 C.3    16  VAL16       0.1596
     54  C        -77.0150   39.5020  -47.1330 C.2    16  VAL16       0.2287
     55  O        -76.6890   40.5810  -46.6350 O.2    16  VAL16      -0.2864
     56  CB       -76.4410   37.9980  -45.1020 C.3    16  VAL16       0.0276
     57  CG1      -77.8990   38.0030  -44.6370 C.3    16  VAL16       0.0022
     58  CG2      -75.7340   36.7090  -44.6570 C.3    16  VAL16       0.0022
     59  N        -78.5100   42.2510  -44.7520 N.3    19  LYS19      -0.1231
     60  CA       -77.5830   43.2200  -44.1460 C.3    19  LYS19       0.1693
     61  C        -77.6270   44.5610  -44.9060 C.2    19  LYS19       0.2591
     62  O        -77.5360   45.6170  -44.2900 O.2    19  LYS19      -0.2718
     63  CB       -76.1490   42.6630  -44.0670 C.3    19  LYS19       0.0285
     64  CG       -75.9520   41.6270  -42.9620 C.3    19  LYS19       0.0035
     65  CD       -74.6460   41.8560  -42.2520 C.3    19  LYS19       0.0206
     66  CE       -74.5900   41.2490  -40.8730 C.3    19  LYS19       0.1093
     67  NZ       -74.1220   39.8340  -40.9120 N.3    19  LYS19      -0.1314
     68  N        -77.7990   44.5060  -46.2350 N.am   20  ILE20      -0.1980
     69  CA       -77.9500   45.6830  -47.0960 C.3    20  ILE20       0.1595
     70  C        -79.3480   46.2880  -46.8490 C.2    20  ILE20       0.2287
     71  O        -79.4500   47.4920  -46.6200 O.2    20  ILE20      -0.2864
     72  CB       -77.6700   45.3450  -48.5990 C.3    20  ILE20       0.0276
     73  CG1      -76.2100   44.8620  -48.7770 C.3    20  ILE20       0.0022
     74  CG2      -77.9660   46.5530  -49.5230 C.3    20  ILE20       0.0022
     75  CD1      -75.9320   44.1650  -50.0270 C.3    20  ILE20       0.0001
     76  N        -79.5770   48.1180  -43.3810 N.3    23  ALA23      -0.1245
     77  CA       -78.8210   49.3730  -43.4080 C.3    23  ALA23       0.1562
     78  C        -79.6590   50.4750  -44.0850 C.2    23  ALA23       0.2260
     79  O        -79.7560   51.5890  -43.5690 O.2    23  ALA23      -0.2867
     80  CB       -77.4940   49.1760  -44.1320 C.3    23  ALA23       0.0290
     81  N        -67.2210   45.7280  -48.2710 N.3    64  VAL64      -0.1245
     82  CA       -68.2270   46.4470  -47.4760 C.3    64  VAL64       0.1561
     83  C        -68.3280   47.9180  -47.9780 C.2    64  VAL64       0.2260
     84  O        -69.4310   48.4020  -48.2210 O.2    64  VAL64      -0.2867
     85  CB       -67.9930   46.3160  -45.9450 C.3    64  VAL64       0.0252
     86  CG1      -68.7410   47.3830  -45.1550 C.3    64  VAL64       0.0019
     87  CG2      -68.3760   44.9280  -45.4520 C.3    64  VAL64       0.0019
     88  N        -69.9990   48.0540  -51.3860 N.3    67  VAL67      -0.1231
     89  CA       -71.4170   47.8710  -51.1300 C.3    67  VAL67       0.1692
     90  C        -72.0160   49.2120  -50.6620 C.2    67  VAL67       0.2591
     91  O        -73.0420   49.6300  -51.1880 O.2    67  VAL67      -0.2718
     92  CB       -71.6910   46.7200  -50.1310 C.3    67  VAL67       0.0266
     93  CG1      -73.1300   46.7720  -49.6040 C.3    67  VAL67       0.0020
     94  CG2      -71.4060   45.3620  -50.7660 C.3    67  VAL67       0.0020
     95  N        -71.3890   49.8650  -49.6750 N.am   68  GLN68      -0.1979
     96  CA       -71.8100   51.1620  -49.1430 C.3    68  GLN68       0.1601
     97  C        -71.9060   52.2140  -50.2670 C.2    68  GLN68       0.2287
     98  O        -72.9530   52.8320  -50.4130 O.2    68  GLN68      -0.2864
     99  CB       -70.8520   51.6180  -48.0360 C.3    68  GLN68       0.0394
    100  CG       -70.8910   50.7990  -46.7370 C.3    68  GLN68       0.0908
    101  CD       -72.0740   51.1400  -45.8620 C.2    68  GLN68       0.2608
    102  OE1      -73.2180   50.7840  -46.1650 O.2    68  GLN68      -0.2717
    103  NE2      -71.8330   51.8470  -44.7620 N.am   68  GLN68      -0.0878
    104  N        -74.9780   51.4030  -52.3050 N.3    71  VAL71      -0.1245
    105  CA       -76.2130   51.7300  -51.5780 C.3    71  VAL71       0.1561
    106  C        -76.5330   53.2190  -51.7970 C.2    71  VAL71       0.2260
    107  O        -77.6490   53.5400  -52.2210 O.2    71  VAL71      -0.2867
    108  CB       -76.1400   51.3760  -50.0740 C.3    71  VAL71       0.0252
    109  CG1      -77.3090   51.9650  -49.3160 C.3    71  VAL71       0.0019
    110  CG2      -76.0570   49.8720  -49.8440 C.3    71  VAL71       0.0019
    111  N        -77.5220   59.0500  -45.1710 N.3    87  TYR87      -0.1241
    112  CA       -76.7310   57.8230  -45.2440 C.3    87  TYR87       0.1605
    113  C        -75.2420   58.1730  -45.4150 C.2    87  TYR87       0.2264
    114  O        -74.3940   57.6110  -44.7110 O.2    87  TYR87      -0.2867
    115  CB       -77.2100   56.9510  -46.4290 C.3    87  TYR87       0.0534
    116  CG       -76.8050   55.4950  -46.3630 C.ar   87  TYR87      -0.0201
    117  CD1      -75.5050   55.0930  -46.6790 C.ar   87  TYR87      -0.0009
    118  CD2      -77.7320   54.5090  -46.0470 C.ar   87  TYR87      -0.0009
    119  CE1      -75.1290   53.7530  -46.6200 C.ar   87  TYR87       0.0417
    120  CE2      -77.3690   53.1660  -45.9850 C.ar   87  TYR87       0.0417
    121  CZ       -76.0640   52.7940  -46.2590 C.ar   87  TYR87       0.1957
    122  OH       -75.7390   51.4610  -46.2430 O.3    87  TYR87      -0.2866
@<TRIPOS>BOND
     1   104   105    1
     2   107   106    2
     3   106   105    1
     4   105   108    1
     5    88    89    1
     6    51    49   ar
     7    51    50   ar
     8    91    90    2
     9    89    90    1
    10    89    92    1
    11    49    47   ar
    12    50    48   ar
    13    94    92    1
    14    90    95   am
    15    47    46   ar
    16    48    46   ar
    17    98    97    2
    18    46    45    1
    19    97    96    1
    20    92    93    1
    21   108   110    1
    22   108   109    1
    23    75    73    1
    24    45    42    1
    25    95    96    1
    26    74    72    1
    27    96    99    1
    28     1     2    1
    29     2     5    1
    30     2     3    1
    31    73    72    1
    32    72    69    1
    33     6     8    1
    34     6     5    1
    35    42    41    1
    36    42    43    1
    37     5     7    1
    38    81    82    1
    39    84    83    2
    40     3     4    2
    41    44    43    2
    42    99   100    1
    43    83    82    1
    44    41    36   am
    45    43    52   am
    46    82    85    1
    47    52    53    1
    48    54    53    1
    49    54    55    2
    50    69    70    1
    51    69    68    1
    52    70    71    2
    53    32    31    2
    54   100   101    1
    55   117   119   ar
    56   117   116   ar
    57    53    56    1
    58    36    35    1
    59    36    37    2
    60   119   121   ar
    61   115   116    1
    62   115   112    1
    63    35    38    1
    64    35    34    1
    65   116   118   ar
    66   121   122    1
    67   121   120   ar
    68    68    61   am
    69   102   101    2
    70   118   120   ar
    71    85    87    1
    72    85    86    1
    73   101   103   am
    74    38    39    1
    75    31    34   am
    76    31    30    1
    77     9    10    1
    78    34    40    1
    79    29    30    1
    80   113   112    1
    81   113   114    2
    82   112   111    1
    83    56    58    1
    84    56    57    1
    85    12    11    2
    86    61    62    2
    87    61    60    1
    88    59    60    1
    89    30    33    1
    90    39    40    1
    91    10    11    1
    92    10    13    1
    93    11    18   am
    94    60    63    1
    95    80    77    1
    96    78    79    2
    97    78    77    1
    98    63    64    1
    99    18    19    1
   100    77    76    1
   101    19    20    1
   102    19    22    1
   103    14    15    1
   104    14    13    1
   105    15    16    1
   106    21    20    2
   107    64    65    1
   108    23    22    1
   109    23    24    1
   110    25    24    1
   111    25    26    2
   112    28    26    1
   113    65    66    1
   114    26    27    1
   115    16    17    1
   116    67    66    1
