@<TRIPOS>MOLECULE
tmp/5olkA01.pdb
 113 106 0 0 0
SMALL
GASTEIGER

@<TRIPOS>ATOM
      1  N        -64.4840   45.0190  -43.4480 N.3     8  ARG8       -0.1245
      2  CA       -63.5800   46.1680  -43.2150 C.3     8  ARG8        0.1563
      3  C        -62.1820   45.7670  -42.7380 C.2     8  ARG8        0.2260
      4  O        -61.2090   46.4540  -43.0750 O.2     8  ARG8       -0.2867
      5  CB       -64.2080   47.2060  -42.2630 C.3     8  ARG8        0.0307
      6  CG       -65.3260   48.0060  -42.9050 C.3     8  ARG8        0.0489
      7  CD       -65.7970   49.1520  -42.0320 C.3     8  ARG8        0.2205
      8  NE       -67.1000   49.6560  -42.4780 N.pl3   8  ARG8       -0.0865
      9  CZ       -68.2650   49.3060  -41.9380 C.cat   8  ARG8        0.5346
     10  NH1      -68.3030   48.4790  -40.9030 N.pl3   8  ARG8        0.1354
     11  NH2      -69.3970   49.8050  -42.4100 N.pl3   8  ARG8        0.1354
     12  N        -79.5770   48.1180  -43.3810 N.3    23  ALA23      -0.1245
     13  CA       -78.8210   49.3730  -43.4080 C.3    23  ALA23       0.1562
     14  C        -79.6590   50.4750  -44.0850 C.2    23  ALA23       0.2260
     15  O        -79.7560   51.5890  -43.5690 O.2    23  ALA23      -0.2867
     16  CB       -77.4940   49.1760  -44.1320 C.3    23  ALA23       0.0290
     17  N        -82.8390   51.3180  -41.8400 N.3    26  ASN26      -0.1225
     18  CA       -82.4900   52.1430  -40.6900 C.3    26  ASN26       0.1785
     19  C        -82.3080   53.6110  -41.0560 C.2    26  ASN26       0.2597
     20  O        -82.6660   54.4880  -40.2570 O.2    26  ASN26      -0.2718
     21  CB       -81.2560   51.5980  -39.9820 C.3    26  ASN26       0.1169
     22  CG       -81.5260   50.3800  -39.1410 C.2    26  ASN26       0.2627
     23  OD1      -80.8670   49.3570  -39.2930 O.2    26  ASN26      -0.2716
     24  ND2      -82.4920   50.4620  -38.2270 N.am   26  ASN26      -0.0877
     25  N        -81.7630   53.8800  -42.2690 N.am   27  ALA27      -0.1979
     26  CA       -81.5760   55.2370  -42.7840 C.3    27  ALA27       0.1597
     27  C        -82.9640   55.8120  -43.0680 C.2    27  ALA27       0.2287
     28  O        -83.2390   56.9490  -42.6980 O.2    27  ALA27      -0.2864
     29  CB       -80.7280   55.2080  -44.0450 C.3    27  ALA27       0.0319
     30  N        -84.9650   56.5140  -39.7060 N.3    30  ALA30      -0.1231
     31  CA       -84.4060   57.7020  -39.0630 C.3    30  ALA30       0.1694
     32  C        -84.9950   59.0110  -39.5920 C.2    30  ALA30       0.2591
     33  O        -85.0110   60.0110  -38.8700 O.2    30  ALA30      -0.2718
     34  CB       -82.8970   57.7200  -39.2350 C.3    30  ALA30       0.0304
     35  N        -85.4750   59.0100  -40.8380 N.am   31  LEU31      -0.1980
     36  CA       -86.0360   60.2000  -41.4740 C.3    31  LEU31       0.1596
     37  C        -87.5430   60.1760  -41.6180 C.2    31  LEU31       0.2287
     38  O        -88.1410   61.2290  -41.8600 O.2    31  LEU31      -0.2864
     39  CB       -85.3760   60.4290  -42.8430 C.3    31  LEU31       0.0297
     40  CG       -84.0570   61.1540  -42.7920 C.3    31  LEU31       0.0022
     41  CD1      -82.9210   60.1970  -42.5590 C.3    31  LEU31       0.0001
     42  CD2      -83.8370   61.9060  -44.0420 C.3    31  LEU31       0.0001
     43  N        -71.3890   49.8650  -49.6750 N.3    68  GLN68      -0.1245
     44  CA       -71.8100   51.1620  -49.1430 C.3    68  GLN68       0.1566
     45  C        -71.9060   52.2140  -50.2670 C.2    68  GLN68       0.2260
     46  O        -72.9530   52.8320  -50.4130 O.2    68  GLN68      -0.2867
     47  CB       -70.8520   51.6180  -48.0360 C.3    68  GLN68       0.0367
     48  CG       -70.8910   50.7990  -46.7370 C.3    68  GLN68       0.0905
     49  CD       -72.0740   51.1400  -45.8620 C.2    68  GLN68       0.2608
     50  OE1      -73.2180   50.7840  -46.1650 O.2    68  GLN68      -0.2717
     51  NE2      -71.8330   51.8470  -44.7620 N.am   68  GLN68      -0.0878
     52  N        -78.4350   61.6470  -45.7250 N.3    86  ALA86      -0.1231
     53  CA       -78.3010   61.2250  -44.3270 C.3    86  ALA86       0.1694
     54  C        -77.4230   59.9770  -44.1970 C.2    86  ALA86       0.2592
     55  O        -76.6480   59.8810  -43.2440 O.2    86  ALA86      -0.2718
     56  CB       -79.6730   60.9740  -43.7200 C.3    86  ALA86       0.0304
     57  N        -77.5220   59.0500  -45.1710 N.am   87  TYR87      -0.1976
     58  CA       -76.7310   57.8230  -45.2440 C.3    87  TYR87       0.1639
     59  C        -75.2420   58.1730  -45.4150 C.2    87  TYR87       0.2290
     60  O        -74.3940   57.6110  -44.7110 O.2    87  TYR87      -0.2864
     61  CB       -77.2100   56.9510  -46.4290 C.3    87  TYR87       0.0560
     62  CG       -76.8050   55.4950  -46.3630 C.ar   87  TYR87      -0.0198
     63  CD1      -75.5050   55.0930  -46.6790 C.ar   87  TYR87      -0.0009
     64  CD2      -77.7320   54.5090  -46.0470 C.ar   87  TYR87      -0.0009
     65  CE1      -75.1290   53.7530  -46.6200 C.ar   87  TYR87       0.0417
     66  CE2      -77.3690   53.1660  -45.9850 C.ar   87  TYR87       0.0417
     67  CZ       -76.0640   52.7940  -46.2590 C.ar   87  TYR87       0.1957
     68  OH       -75.7390   51.4610  -46.2430 O.3    87  TYR87      -0.2866
     69  N        -73.9460   59.8330  -42.0530 N.3    90  TYR90      -0.1227
     70  CA       -73.8740   58.8360  -40.9760 C.3    90  TYR90       0.1736
     71  C        -72.6980   57.8810  -41.1790 C.2    90  TYR90       0.2595
     72  O        -71.9510   57.6680  -40.2450 O.2    90  TYR90      -0.2718
     73  CB       -75.2040   58.0710  -40.8590 C.3    90  TYR90       0.0548
     74  CG       -75.2910   57.0850  -39.7200 C.ar   90  TYR90      -0.0200
     75  CD1      -74.8480   55.7740  -39.8700 C.ar   90  TYR90      -0.0009
     76  CD2      -75.8930   57.4340  -38.5150 C.ar   90  TYR90      -0.0009
     77  CE1      -74.9910   54.8340  -38.8490 C.ar   90  TYR90       0.0417
     78  CE2      -76.0360   56.5010  -37.4810 C.ar   90  TYR90       0.0417
     79  CZ       -75.5820   55.2020  -37.6580 C.ar   90  TYR90       0.1957
     80  OH       -75.7010   54.2700  -36.6620 O.3    90  TYR90      -0.2866
     81  N        -72.5270   57.3380  -42.4000 N.am   91  ARG91      -0.1980
     82  CA       -71.4270   56.4470  -42.7840 C.3    91  ARG91       0.1597
     83  C        -70.0580   57.1020  -42.5000 C.2    91  ARG91       0.2287
     84  O        -69.1850   56.4630  -41.8920 O.2    91  ARG91      -0.2864
     85  CB       -71.5590   56.0560  -44.2760 C.3    91  ARG91       0.0334
     86  CG       -70.5040   55.0900  -44.7690 C.3    91  ARG91       0.0492
     87  CD       -70.3530   55.1890  -46.2650 C.3    91  ARG91       0.2205
     88  NE       -69.1640   54.4950  -46.7350 N.pl3  91  ARG91      -0.0865
     89  CZ       -68.8620   54.3220  -48.0140 C.cat  91  ARG91       0.5346
     90  NH1      -69.6620   54.7870  -48.9570 N.pl3  91  ARG91       0.1354
     91  NH2      -67.7770   53.6460  -48.3600 N.pl3  91  ARG91       0.1354
     92  N        -69.4790   57.4720  -38.6570 N.3    94  ARG94      -0.1245
     93  CA       -69.1670   56.1510  -38.1050 C.3    94  ARG94       0.1563
     94  C        -67.7390   55.7310  -38.4120 C.2    94  ARG94       0.2260
     95  O        -67.1260   55.0420  -37.6040 O.2    94  ARG94      -0.2867
     96  CB       -70.1640   55.0980  -38.6010 C.3    94  ARG94       0.0307
     97  CG       -71.5130   55.1320  -37.8930 C.3    94  ARG94       0.0489
     98  CD       -71.4190   54.6170  -36.4670 C.3    94  ARG94       0.2205
     99  NE       -72.6330   54.8930  -35.6910 N.pl3  94  ARG94      -0.0865
    100  CZ       -72.7240   54.8000  -34.3650 C.cat  94  ARG94       0.5346
    101  NH1      -71.6760   54.4170  -33.6440 N.pl3  94  ARG94       0.1354
    102  NH2      -73.8650   55.0910  -33.7510 N.pl3  94  ARG94       0.1354
    103  N        -64.7300   55.1710  -35.5700 N.3    98  ARG98      -0.1245
    104  CA       -64.0760   53.8680  -35.6000 C.3    98  ARG98       0.1563
    105  C        -62.5470   53.9870  -35.4660 C.2    98  ARG98       0.2260
    106  O        -61.8700   52.9960  -35.1450 O.2    98  ARG98      -0.2867
    107  CB       -64.4370   53.1670  -36.9070 C.3    98  ARG98       0.0307
    108  CG       -64.6290   51.6800  -36.7910 C.3    98  ARG98       0.0489
    109  CD       -65.5760   51.1240  -37.8440 C.3    98  ARG98       0.2205
    110  NE       -65.3600   51.6820  -39.1790 N.pl3  98  ARG98      -0.0865
    111  CZ       -66.3360   52.1270  -39.9650 C.cat  98  ARG98       0.5346
    112  NH1      -67.6030   52.0630  -39.5650 N.pl3  98  ARG98       0.1354
    113  NH2      -66.0550   52.6200  -41.1710 N.pl3  98  ARG98       0.1354
@<TRIPOS>BOND
     1    46    45    2
     2    45    44    1
     3    43    44    1
     4    44    47    1
     5    90    89    1
     6    91    89    1
     7    47    48    1
     8    89    88    2
     9    48    49    1
    10    88    87    1
    11    63    65   ar
    12    63    62   ar
    13    65    67   ar
    14    61    62    1
    15    61    58    1
    16    62    64   ar
    17    87    86    1
    18    67    68    1
    19    67    66   ar
    20    50    49    2
    21    64    66   ar
    22    49    51   am
    23    52    53    1
    24    59    58    1
    25    59    60    2
    26    58    57    1
    27    57    54   am
    28    86    85    1
    29    53    54    1
    30    53    56    1
    31    85    82    1
    32    54    55    2
    33    16    13    1
    34    14    15    2
    35    14    13    1
    36    29    26    1
    37    42    40    1
    38     1     2    1
    39    13    12    1
    40     2     3    1
    41     2     5    1
    42     4     3    2
    43    27    26    1
    44    27    28    2
    45     6     5    1
    46     6     7    1
    47    39    40    1
    48    39    36    1
    49    40    41    1
    50    26    25    1
    51    82    83    1
    52    82    81    1
    53    83    84    2
    54     8     7    1
    55     8     9    2
    56    11     9    1
    57    81    71   am
    58    25    19   am
    59    69    70    1
    60     9    10    1
    61    38    37    2
    62    17    18    1
    63    37    36    1
    64    36    35    1
    65    71    70    1
    66    71    72    2
    67   113   111    1
    68    19    18    1
    69    19    20    2
    70    70    73    1
    71    73    74    1
    72    35    32   am
    73    18    21    1
    74    21    22    1
    75   111   112    1
    76   111   110    2
    77    75    74   ar
    78    75    77   ar
    79    74    76   ar
    80    30    31    1
    81    32    31    1
    82    32    33    2
    83    23    22    2
    84    34    31    1
    85   110   109    1
    86    22    24   am
    87    77    79   ar
    88    92    93    1
    89    96    93    1
    90    96    97    1
    91    76    78   ar
    92    94    93    1
    93    94    95    2
    94    97    98    1
    95   109   108    1
    96    79    78   ar
    97    79    80    1
    98   107   108    1
    99   107   104    1
   100    98    99    1
   101    99   100    2
   102   104   103    1
   103   104   105    1
   104   105   106    2
   105   100   102    1
   106   100   101    1
