@<TRIPOS>MOLECULE
tmp/5oloA10.pdb
 209 199 0 0 0
SMALL
GASTEIGER

@<TRIPOS>ATOM
      1  N         25.7190  172.8130    3.2730 N.3    11  TYR11      -0.1241
      2  CA        25.5820  173.5140    4.5450 C.3    11  TYR11       0.1605
      3  C         26.8750  174.2250    4.9290 C.2    11  TYR11       0.2264
      4  O         26.8580  175.4020    5.3030 O.2    11  TYR11      -0.2867
      5  CB        25.1530  172.5280    5.6320 C.3    11  TYR11       0.0534
      6  CG        25.2470  173.0700    7.0400 C.ar   11  TYR11      -0.0201
      7  CD1       24.2700  173.9150    7.5510 C.ar   11  TYR11      -0.0009
      8  CD2       26.3090  172.7260    7.8630 C.ar   11  TYR11      -0.0009
      9  CE1       24.3560  174.4070    8.8400 C.ar   11  TYR11       0.0417
     10  CE2       26.4020  173.2120    9.1520 C.ar   11  TYR11       0.0417
     11  CZ        25.4260  174.0510    9.6360 C.ar   11  TYR11       0.1957
     12  OH        25.5280  174.5320   10.9210 O.3    11  TYR11      -0.2866
     13  N         31.4370  181.1610   16.4120 N.3    61  ALA61      -0.1245
     14  CA        30.1910  180.4090   16.5310 C.3    61  ALA61       0.1562
     15  C         29.9200  179.5780   15.2830 C.2    61  ALA61       0.2260
     16  O         29.6040  178.3880   15.3780 O.2    61  ALA61      -0.2867
     17  CB        29.0270  181.3580   16.8150 C.3    61  ALA61       0.0290
     18  N         32.0700  176.6160   15.0890 N.3    64  PHE64      -0.1227
     19  CA        31.5820  175.6100   16.0290 C.3    64  PHE64       0.1736
     20  C         30.4430  174.8010   15.4200 C.2    64  PHE64       0.2595
     21  O         30.4330  173.5670   15.4910 O.2    64  PHE64      -0.2718
     22  CB        31.1210  176.2690   17.3310 C.3    64  PHE64       0.0547
     23  CG        32.2380  176.8000   18.1830 C.ar   64  PHE64      -0.0202
     24  CD1       33.5630  176.5970   17.8330 C.ar   64  PHE64      -0.0042
     25  CD2       31.9580  177.4980   19.3470 C.ar   64  PHE64      -0.0042
     26  CE1       34.5880  177.0910   18.6220 C.ar   64  PHE64      -0.0003
     27  CE2       32.9760  177.9920   20.1420 C.ar   64  PHE64      -0.0003
     28  CZ        34.2920  177.7880   19.7810 C.ar   64  PHE64      -0.0000
     29  N         29.4690  175.4890   14.8140 N.am   65  ALA65      -0.1980
     30  CA        28.3150  174.8050   14.2380 C.3    65  ALA65       0.1597
     31  C         28.7290  173.8110   13.1640 C.2    65  ALA65       0.2287
     32  O         28.0850  172.7690   13.0030 O.2    65  ALA65      -0.2864
     33  CB        27.3340  175.8240   13.6630 C.3    65  ALA65       0.0319
     34  N         30.1730  170.6240   15.0680 N.3    68  ILE68      -0.1245
     35  CA        29.1350  169.7450   15.5990 C.3    68  ILE68       0.1561
     36  C         28.4570  168.9740   14.4750 C.2    68  ILE68       0.2260
     37  O         28.0110  167.8360   14.6740 O.2    68  ILE68      -0.2867
     38  CB        28.1160  170.5580   16.4160 C.3    68  ILE68       0.0252
     39  CG1       28.8370  171.4300   17.4430 C.3    68  ILE68       0.0019
     40  CG2       27.1200  169.6330   17.1010 C.3    68  ILE68       0.0019
     41  CD1       27.9250  172.3890   18.1740 C.3    68  ILE68       0.0001
     42  N         31.1570  174.1850   23.0250 N.3    82  ILE82      -0.1231
     43  CA        30.9760  174.3950   21.5910 C.3    82  ILE82       0.1692
     44  C         29.5030  174.6130   21.2670 C.2    82  ILE82       0.2591
     45  O         29.1440  175.5080   20.4900 O.2    82  ILE82      -0.2718
     46  CB        31.5520  173.1990   20.8070 C.3    82  ILE82       0.0266
     47  CG1       33.0560  173.0620   21.0450 C.3    82  ILE82       0.0019
     48  CG2       31.2650  173.3360   19.3220 C.3    82  ILE82       0.0020
     49  CD1       33.8890  174.0470   20.2690 C.3    82  ILE82       0.0001
     50  N         28.6290  173.8070   21.8710 N.am   83  ALA83      -0.1980
     51  CA        27.2030  173.8670   21.5840 C.3    83  ALA83       0.1597
     52  C         26.5150  175.0760   22.2000 C.2    83  ALA83       0.2287
     53  O         25.4340  175.4500   21.7390 O.2    83  ALA83      -0.2864
     54  CB        26.5190  172.5920   22.0760 C.3    83  ALA83       0.0319
     55  N         27.2010  180.0490   21.2380 N.3    86  VAL86      -0.1231
     56  CA        26.3570  180.9200   20.4260 C.3    86  VAL86       0.1692
     57  C         25.2310  181.5150   21.2660 C.2    86  VAL86       0.2591
     58  O         24.7680  182.6310   20.9960 O.2    86  VAL86      -0.2718
     59  CB        25.8280  180.1420   19.2060 C.3    86  VAL86       0.0266
     60  CG1       25.0570  178.9050   19.6540 C.3    86  VAL86       0.0020
     61  CG2       24.9780  181.0400   18.3110 C.3    86  VAL86       0.0020
     62  N         24.7860  180.8010   22.3040 N.am   87  LEU87      -0.1980
     63  CA        23.7850  181.3560   23.2080 C.3    87  LEU87       0.1596
     64  C         24.3160  182.5760   23.9490 C.2    87  LEU87       0.2287
     65  O         23.5450  183.4810   24.2880 O.2    87  LEU87      -0.2864
     66  CB        23.3300  180.2920   24.2050 C.3    87  LEU87       0.0297
     67  CG        22.8440  178.9700   23.6120 C.3    87  LEU87       0.0022
     68  CD1       22.5070  177.9930   24.7240 C.3    87  LEU87       0.0001
     69  CD2       21.6420  179.1910   22.7100 C.3    87  LEU87       0.0001
     70  N         24.2390  168.8110   19.8140 N.3   170  PHE170     -0.1227
     71  CA        23.5970  169.8250   20.6480 C.3   170  PHE170      0.1736
     72  C         22.4950  169.2210   21.5080 C.2   170  PHE170      0.2595
     73  O         22.4470  169.4480   22.7220 O.2   170  PHE170     -0.2718
     74  CB        23.0330  170.9460   19.7770 C.3   170  PHE170      0.0547
     75  CG        22.4040  172.0650   20.5620 C.ar  170  PHE170     -0.0202
     76  CD1       21.0560  172.0400   20.8810 C.ar  170  PHE170     -0.0042
     77  CD2       23.1640  173.1420   20.9850 C.ar  170  PHE170     -0.0042
     78  CE1       20.4790  173.0740   21.6000 C.ar  170  PHE170     -0.0003
     79  CE2       22.5940  174.1760   21.7020 C.ar  170  PHE170     -0.0003
     80  CZ        21.2510  174.1430   22.0110 C.ar  170  PHE170     -0.0000
     81  N         21.5940  168.4510   20.8930 N.am  171  GLU171     -0.1979
     82  CA        20.4900  167.8750   21.6480 C.3   171  GLU171      0.1602
     83  C         20.9540  166.8030   22.6250 C.2   171  GLU171      0.2287
     84  O         20.2540  166.5360   23.6070 O.2   171  GLU171     -0.2864
     85  CB        19.4360  167.2980   20.6980 C.3   171  GLU171      0.0415
     86  CG        19.8440  166.0150   19.9790 C.3   171  GLU171      0.1163
     87  CD        20.6120  166.2710   18.6940 C.2   171  GLU171      0.3649
     88  OE1       21.1160  167.4000   18.5120 O.co2 171  GLU171     -0.2457
     89  OE2       20.7040  165.3410   17.8620 O.co2 171  GLU171     -0.2457
     90  N         16.5300  169.9100   26.7250 N.3   176  MET176     -0.1245
     91  CA        15.5410  170.6840   25.9880 C.3   176  MET176      0.1570
     92  C         14.6840  171.5540   26.8990 C.2   176  MET176      0.2261
     93  O         14.0450  172.4920   26.4120 O.2   176  MET176     -0.2867
     94  CB        14.6590  169.7490   25.1590 C.3   176  MET176      0.0387
     95  CG        14.0400  170.4080   23.9390 C.3   176  MET176      0.0595
     96  SD        15.2270  171.3650   22.9680 S.3   176  MET176     -0.1393
     97  CE        16.4010  170.0980   22.4930 C.3   176  MET176      0.0692
     98  N         16.4710  174.8770   27.1210 N.3   179  MET179     -0.1245
     99  CA        16.3010  175.6430   25.8900 C.3   179  MET179      0.1570
    100  C         14.9340  176.3100   25.8320 C.2   179  MET179      0.2261
    101  O         14.8170  177.4660   25.4050 O.2   179  MET179     -0.2867
    102  CB        16.5050  174.7390   24.6760 C.3   179  MET179      0.0387
    103  CG        17.9370  174.2900   24.4720 C.3   179  MET179      0.0595
    104  SD        19.0930  175.6660   24.3350 S.3   179  MET179     -0.1393
    105  CE        18.3200  176.6420   23.0530 C.3   179  MET179      0.0692
    106  N         16.1130  179.4260   28.2780 N.3   183  ASN183     -0.1240
    107  CA        16.6800  180.2470   27.2140 C.3   183  ASN183      0.1653
    108  C         15.5900  180.9910   26.4480 C.2   183  ASN183      0.2266
    109  O         15.6110  182.2230   26.3540 O.2   183  ASN183     -0.2867
    110  CB        17.5210  179.3880   26.2700 C.3   183  ASN183      0.1155
    111  CG        18.3810  180.2250   25.3380 C.2   183  ASN183      0.2627
    112  OD1       18.0330  180.4360   24.1780 O.2   183  ASN183     -0.2716
    113  ND2       19.5050  180.7190   25.8500 N.am  183  ASN183     -0.0877
    114  N         15.5580  184.0170   14.6420 N.3   326  TRP326     -0.1241
    115  CA        15.7790  183.0810   15.7370 C.3   326  TRP326      0.1605
    116  C         14.5340  182.3130   16.1500 C.2   326  TRP326      0.2264
    117  O         14.6560  181.1990   16.6680 O.2   326  TRP326     -0.2867
    118  CB        16.3410  183.8250   16.9530 C.3   326  TRP326      0.0550
    119  CG        17.7970  184.1380   16.8410 C.ar  326  TRP326      0.0003
    120  CD1       18.3590  185.3250   16.4630 C.ar  326  TRP326      0.0946
    121  CD2       18.8830  183.2450   17.1030 C.ar  326  TRP326      0.0152
    122  NE1       19.7300  185.2260   16.4820 N.ar  326  TRP326     -0.2442
    123  CE2       20.0770  183.9580   16.8710 C.ar  326  TRP326      0.0810
    124  CE3       18.9620  181.9120   17.5160 C.ar  326  TRP326      0.0012
    125  CZ2       21.3350  183.3810   17.0350 C.ar  326  TRP326      0.0191
    126  CZ3       20.2100  181.3430   17.6800 C.ar  326  TRP326      0.0001
    127  CH2       21.3800  182.0760   17.4380 C.ar  326  TRP326      0.0015
    128  N         14.1510  178.4160   14.9870 N.3   329  LEU329     -0.1231
    129  CA        14.9080  177.4590   15.7880 C.3   329  LEU329      0.1693
    130  C         14.2580  177.2500   17.1520 C.2   329  LEU329      0.2592
    131  O         14.0970  176.1120   17.6060 O.2   329  LEU329     -0.2718
    132  CB        16.3530  177.9370   15.9380 C.3   329  LEU329      0.0284
    133  CG        17.4100  176.8520   16.1400 C.3   329  LEU329      0.0019
    134  CD1       17.1720  175.6990   15.1790 C.3   329  LEU329      0.0001
    135  CD2       18.7970  177.4290   15.9390 C.3   329  LEU329      0.0001
    136  N         13.8550  178.3390   17.8070 N.am  330  HIS330     -0.1976
    137  CA        13.2160  178.2300   19.1130 C.3   330  HIS330      0.1656
    138  C         11.9100  177.4500   19.0370 C.2   330  HIS330      0.2291
    139  O         11.6200  176.6250   19.9120 O.2   330  HIS330     -0.2864
    140  CB        12.9740  179.6240   19.6860 C.3   330  HIS330      0.0771
    141  CG        14.1900  180.2340   20.3030 C.ar  330  HIS330      0.0820
    142  ND1       14.8600  179.6480   21.3560 N.ar  330  HIS330     -0.2267
    143  CD2       14.8580  181.3760   20.0190 C.ar  330  HIS330      0.1154
    144  CE1       15.8880  180.4040   21.6940 C.ar  330  HIS330      0.1986
    145  NE2       15.9100  181.4580   20.8980 N.ar  330  HIS330     -0.2212
    146  N         11.0980  175.2170   16.7620 N.3   332  ILE332     -0.1231
    147  CA        11.4480  173.8220   16.5090 C.3   332  ILE332      0.1692
    148  C         11.7910  173.1190   17.8150 C.2   332  ILE332      0.2592
    149  O         11.3970  171.9690   18.0430 O.2   332  ILE332     -0.2718
    150  CB        12.5990  173.7320   15.4920 C.3   332  ILE332      0.0266
    151  CG1       12.0930  174.0720   14.0880 C.3   332  ILE332      0.0019
    152  CG2       13.2210  172.3460   15.5080 C.3   332  ILE332      0.0020
    153  CD1       13.1820  174.1290   13.0340 C.3   332  ILE332      0.0001
    154  N         12.5080  173.8060   18.7050 N.am  333  ASN333     -0.1974
    155  CA        12.7700  173.2360   20.0210 C.3   333  ASN333      0.1688
    156  C         11.4790  173.0490   20.8070 C.2   333  ASN333      0.2292
    157  O         11.3310  172.0680   21.5450 O.2   333  ASN333     -0.2864
    158  CB        13.7480  174.1190   20.7930 C.3   333  ASN333      0.1181
    159  CG        15.1560  174.0170   20.2650 C.2   333  ASN333      0.2629
    160  OD1       15.5260  173.0150   19.6560 O.2   333  ASN333     -0.2716
    161  ND2       15.9570  175.0520   20.4990 N.am  333  ASN333     -0.0877
    162  N          9.7260  169.6540   19.7100 N.3   336  THR336     -0.1218
    163  CA        10.4120  168.4600   20.1890 C.3   336  THR336      0.1862
    164  C         10.1860  168.2620   21.6810 C.2   336  THR336      0.2287
    165  O         10.0390  167.1280   22.1550 O.2   336  THR336     -0.2866
    166  CB        11.9030  168.5660   19.8710 C.3   336  THR336      0.1770
    167  OG1       12.0880  168.5310   18.4500 O.3   336  THR336     -0.2211
    168  CG2       12.6810  167.4290   20.5080 C.3   336  THR336      0.0375
    169  N          9.8080  164.7110   14.4070 N.3   344  HIS344     -0.1226
    170  CA        10.8620  165.6980   14.5800 C.3   344  HIS344      0.1752
    171  C         11.2710  166.2890   13.2360 C.2   344  HIS344      0.2595
    172  O         11.2580  165.6120   12.2040 O.2   344  HIS344     -0.2718
    173  CB        12.0650  165.0760   15.2860 C.3   344  HIS344      0.0759
    174  CG        11.8680  164.9020   16.7590 C.ar  344  HIS344      0.0818
    175  ND1       12.8570  164.4290   17.5940 N.ar  344  HIS344     -0.2268
    176  CD2       10.7950  165.1470   17.5480 C.ar  344  HIS344      0.1154
    177  CE1       12.4000  164.3850   18.8330 C.ar  344  HIS344      0.1986
    178  NE2       11.1510  164.8160   18.8330 N.ar  344  HIS344     -0.2212
    179  N         11.6240  167.5710   13.2580 N.am  345  ALA345     -0.1980
    180  CA        11.9270  168.2840   12.0260 C.3   345  ALA345      0.1597
    181  C         13.0980  167.6220   11.3080 C.2   345  ALA345      0.2287
    182  O         14.0900  167.2490   11.9480 O.2   345  ALA345     -0.2864
    183  CB        12.2570  169.7480   12.3170 C.3   345  ALA345      0.0319
    184  N         16.3810  171.7580    9.7500 N.3   350  MET350     -0.1245
    185  CA        17.2500  172.1850   10.8420 C.3   350  MET350      0.1570
    186  C         18.3820  173.0570   10.3230 C.2   350  MET350      0.2261
    187  O         18.5800  174.1830   10.7920 O.2   350  MET350     -0.2867
    188  CB        17.8020  170.9650   11.5760 C.3   350  MET350      0.0387
    189  CG        16.8390  170.3780   12.5800 C.3   350  MET350      0.0595
    190  SD        16.4120  171.5870   13.8460 S.3   350  MET350     -0.1393
    191  CE        18.0370  172.0230   14.4610 C.3   350  MET350      0.0692
    192  N         19.1090  176.7760   11.2120 N.3   354  ILE354     -0.1245
    193  CA        20.3910  177.2110   11.7580 C.3   354  ILE354      0.1561
    194  C         20.9870  178.3140   10.8920 C.2   354  ILE354      0.2260
    195  O         21.4370  179.3500   11.3970 O.2   354  ILE354     -0.2867
    196  CB        21.3510  176.0150   11.8930 C.3   354  ILE354      0.0252
    197  CG1       20.8160  175.0080   12.9120 C.3   354  ILE354      0.0019
    198  CG2       22.7500  176.4840   12.2930 C.3   354  ILE354      0.0019
    199  CD1       21.6650  173.7610   13.0370 C.3   354  ILE354      0.0001
    200  N         21.9840  182.4480   11.6570 N.3   358  HIS358     -0.1241
    201  CA        23.2800  183.0720   11.4180 C.3   358  HIS358      0.1621
    202  C         23.1680  184.2600   10.4730 C.2   358  HIS358      0.2264
    203  O         23.9730  185.1930   10.5590 O.2   358  HIS358     -0.2867
    204  CB        24.2670  182.0500   10.8550 C.3   358  HIS358      0.0745
    205  CG        24.6470  180.9760   11.8220 C.ar  358  HIS358      0.0817
    206  ND1       25.1810  179.7700   11.4210 N.ar  358  HIS358     -0.2268
    207  CD2       24.5820  180.9270   13.1720 C.ar  358  HIS358      0.1154
    208  CE1       25.4230  179.0230   12.4820 C.ar  358  HIS358      0.1986
    209  NE2       25.0690  179.7010   13.5580 N.ar  358  HIS358     -0.2212
@<TRIPOS>BOND
     1     1     2    1
     2     2     3    1
     3     2     5    1
     4     3     4    2
     5     5     6    1
     6     6     7   ar
     7     6     8   ar
     8     7     9   ar
     9     8    10   ar
    10     9    11   ar
    11    10    11   ar
    12    11    12    1
    13   184   185    1
    14   186   187    2
    15   186   185    1
    16   202   203    2
    17   202   201    1
    18   185   188    1
    19   204   201    1
    20   204   205    1
    21   194   195    2
    22   194   193    1
    23   192   193    1
    24   181   182    2
    25   181   180    1
    26   201   200    1
    27   206   205   ar
    28   206   208   ar
    29   188   189    1
    30   193   196    1
    31   205   207   ar
    32   196   198    1
    33   196   197    1
    34   180   183    1
    35   180   179    1
    36   172   171    2
    37   208   209   ar
    38   189   190    1
    39   197   199    1
    40    32    31    2
    41   153   151    1
    42    31    30    1
    43   207   209   ar
    44   171   179   am
    45   171   170    1
    46    33    30    1
    47   190   191    1
    48   151   150    1
    49    30    29    1
    50   169   170    1
    51    36    37    2
    52    36    35    1
    53   170   173    1
    54   114   115    1
    55    29    20   am
    56   128   129    1
    57    34    35    1
    58    18    19    1
    59   134   133    1
    60    15    16    2
    61    15    14    1
    62   173   174    1
    63    20    21    2
    64    20    19    1
    65   150   152    1
    66   150   147    1
    67    35    38    1
    68   115   116    1
    69   115   118    1
    70   129   132    1
    71   129   130    1
    72   132   133    1
    73   135   133    1
    74    19    22    1
    75   116   117    2
    76    13    14    1
    77    38    40    1
    78    38    39    1
    79   120   122   ar
    80   120   119   ar
    81   122   123   ar
    82   147   146    1
    83   147   148    1
    84    14    17    1
    85   174   176   ar
    86   174   175   ar
    87   119   118    1
    88   119   121   ar
    89   123   125   ar
    90   123   121   ar
    91   125   127   ar
    92   121   124   ar
    93   130   131    2
    94   130   136   am
    95    22    23    1
    96   127   126   ar
    97    39    41    1
    98   124   126   ar
    99   176   178   ar
   100   175   177   ar
   101   136   137    1
   102   148   149    2
   103   148   154   am
   104    24    23   ar
   105    24    26   ar
   106    89    87   ar
   107    23    25   ar
   108    61    59    1
   109   167   166    1
   110    88    87   ar
   111    26    28   ar
   112    87    86    1
   113   154   155    1
   114   178   177   ar
   115   138   137    1
   116   138   139    2
   117   137   140    1
   118    59    60    1
   119    59    56    1
   120    48    46    1
   121    25    27   ar
   122   160   159    2
   123   140   141    1
   124   162   163    1
   125    74    75    1
   126    74    71    1
   127    28    27   ar
   128    70    71    1
   129   166   163    1
   130   166   168    1
   131    86    85    1
   132   143   141   ar
   133   143   145   ar
   134   155   158    1
   135   155   156    1
   136   163   164    1
   137   159   161   am
   138   159   158    1
   139    49    47    1
   140   141   142   ar
   141    56    55    1
   142    56    57    1
   143    45    44    2
   144    75    76   ar
   145    75    77   ar
   146    71    72    1
   147    85    82    1
   148   156   157    2
   149    46    47    1
   150    46    43    1
   151    76    78   ar
   152    81    72   am
   153    81    82    1
   154   145   144   ar
   155    77    79   ar
   156    58    57    2
   157    57    62   am
   158    44    43    1
   159    44    50   am
   160   142   144   ar
   161    72    73    2
   162    51    50    1
   163    51    54    1
   164    51    52    1
   165    43    42    1
   166    78    80   ar
   167    82    83    1
   168   164   165    2
   169    79    80   ar
   170    53    52    2
   171    62    63    1
   172    97    96    1
   173    83    84    2
   174    69    67    1
   175    96    95    1
   176   105   104    1
   177    63    64    1
   178    63    66    1
   179    67    66    1
   180    67    68    1
   181    95    94    1
   182    64    65    2
   183   112   111    2
   184   104   103    1
   185   103   102    1
   186   102    99    1
   187    94    91    1
   188   111   113   am
   189   111   110    1
   190   101   100    2
   191   100    99    1
   192    99    98    1
   193    91    90    1
   194    91    92    1
   195   110   107    1
   196   109   108    2
   197    93    92    2
   198   108   107    1
   199   107   106    1
