@<TRIPOS>MOLECULE
tmp/5olrC01.pdb
 104 97 0 0 0
SMALL
GASTEIGER

@<TRIPOS>ATOM
      1  N        -72.5470   38.3140  168.1620 N.3   102  ARG102     -0.1245
      2  CA       -71.4160   37.4070  168.2990 C.3   102  ARG102      0.1563
      3  C        -70.3000   38.1310  169.0290 C.2   102  ARG102      0.2260
      4  O        -70.2540   39.3490  169.0080 O.2   102  ARG102     -0.2867
      5  CB       -70.9370   37.0110  166.9140 C.3   102  ARG102      0.0307
      6  CG       -71.9420   36.2380  166.0570 C.3   102  ARG102      0.0489
      7  CD       -71.2980   35.8620  164.7490 C.3   102  ARG102      0.2205
      8  NE       -72.1760   35.1110  163.8650 N.pl3 102  ARG102     -0.0865
      9  CZ       -71.7840   34.5290  162.7360 C.cat 102  ARG102      0.5346
     10  NH1      -70.5220   34.5200  162.3720 N.pl3 102  ARG102      0.1354
     11  NH2      -72.6770   33.9450  161.9520 N.pl3 102  ARG102      0.1354
     12  N        -77.9230   29.8470  164.0710 N.3   130  HIS130     -0.1241
     13  CA       -76.5610   29.6680  163.5350 C.3   130  HIS130      0.1621
     14  C        -75.6540   30.8010  164.0180 C.2   130  HIS130      0.2264
     15  O        -75.9240   31.9770  163.7730 O.2   130  HIS130     -0.2867
     16  CB       -76.5920   29.6570  162.0070 C.3   130  HIS130      0.0745
     17  CG       -75.2240   29.7470  161.3980 C.ar  130  HIS130      0.0817
     18  ND1      -74.3700   28.6690  161.3500 N.ar  130  HIS130     -0.2268
     19  CD2      -74.5450   30.7930  160.8680 C.ar  130  HIS130      0.1154
     20  CE1      -73.2140   29.0500  160.8090 C.ar  130  HIS130      0.1986
     21  NE2      -73.3050   30.3310  160.4980 N.ar  130  HIS130     -0.2212
     22  N        -71.4520   31.8000  165.9890 N.3   132  GLN132     -0.1245
     23  CA       -70.1650   31.4540  166.5830 C.3   132  GLN132      0.1566
     24  C        -69.6220   32.7060  167.2630 C.2   132  GLN132      0.2260
     25  O        -70.0580   33.8250  166.9920 O.2   132  GLN132     -0.2867
     26  CB       -69.1760   30.9620  165.5220 C.3   132  GLN132      0.0367
     27  CG       -68.8780   32.0230  164.4950 C.3   132  GLN132      0.0905
     28  CD       -68.1210   31.5050  163.2970 C.2   132  GLN132      0.2608
     29  OE1      -68.5470   30.5230  162.6850 O.2   132  GLN132     -0.2717
     30  NE2      -66.9640   32.1160  163.0050 N.am  132  GLN132     -0.0878
     31  N        -64.6520   29.5130  169.1880 N.3   158  ILE158     -0.1245
     32  CA       -63.5290   29.0580  168.3980 C.3   158  ILE158      0.1561
     33  C        -62.2410   29.6640  168.9540 C.2   158  ILE158      0.2260
     34  O        -62.2390   30.8370  169.3330 O.2   158  ILE158     -0.2867
     35  CB       -63.7410   29.5180  166.9320 C.3   158  ILE158      0.0252
     36  CG1      -65.0430   28.9410  166.3320 C.3   158  ILE158      0.0019
     37  CG2      -62.5320   29.2220  166.0760 C.3   158  ILE158      0.0019
     38  CD1      -65.6130   29.8020  165.2340 C.3   158  ILE158      0.0001
     39  N        -59.3100   31.8800  164.4050 N.3   161  TYR161     -0.1241
     40  CA       -60.1680   31.8630  163.2160 C.3   161  TYR161      0.1605
     41  C        -59.6260   32.8670  162.2060 C.2   161  TYR161      0.2264
     42  O        -59.7280   34.0740  162.4090 O.2   161  TYR161     -0.2867
     43  CB       -61.6000   32.1890  163.6350 C.3   161  TYR161      0.0534
     44  CG       -62.6850   32.0330  162.5840 C.ar  161  TYR161     -0.0201
     45  CD1      -63.1830   30.8020  162.2470 C.ar  161  TYR161     -0.0009
     46  CD2      -63.2390   33.1450  161.9570 C.ar  161  TYR161     -0.0009
     47  CE1      -64.2080   30.6470  161.3290 C.ar  161  TYR161      0.0417
     48  CE2      -64.2460   33.0080  161.0090 C.ar  161  TYR161      0.0417
     49  CZ       -64.7250   31.7570  160.6860 C.ar  161  TYR161      0.1957
     50  OH       -65.7450   31.6010  159.7840 O.3   161  TYR161     -0.2866
     51  N        -71.5910   22.4000  166.7400 N.3   189  GLY189     -0.1210
     52  CA       -71.0210   22.1470  165.4340 C.3   189  GLY189      0.1956
     53  C        -70.2400   23.2470  164.7740 C.2   189  GLY189      0.2611
     54  O        -69.7830   23.0370  163.6420 O.2   189  GLY189     -0.2717
     55  N        -70.0720   24.4110  165.4080 N.am  190  ASN190     -0.1974
     56  CA       -69.2520   25.4600  164.8240 C.3   190  ASN190      0.1688
     57  C        -67.9990   25.7900  165.6400 C.2   190  ASN190      0.2292
     58  O        -67.3000   26.7300  165.2880 O.2   190  ASN190     -0.2864
     59  CB       -70.0730   26.7260  164.5780 C.3   190  ASN190      0.1181
     60  CG       -71.2700   26.4590  163.6880 C.2   190  ASN190      0.2629
     61  OD1      -71.1290   25.7740  162.6760 O.2   190  ASN190     -0.2716
     62  ND2      -72.4240   26.9820  164.0230 N.am  190  ASN190     -0.0877
     63  N        -64.4350   25.0800  166.5330 N.3   192  ASP192     -0.1239
     64  CA       -63.1700   24.4260  166.2570 C.3   192  ASP192      0.1674
     65  C        -62.0780   25.0280  167.1340 C.2   192  ASP192      0.2266
     66  O        -62.1730   26.1710  167.5640 O.2   192  ASP192     -0.2867
     67  CB       -62.7780   24.6510  164.7880 C.3   192  ASP192      0.1410
     68  CG       -63.7170   24.0050  163.7890 C.2   192  ASP192      0.3668
     69  OD1      -64.3580   22.9710  164.0890 O.co2 192  ASP192     -0.2456
     70  OD2      -63.7480   24.4720  162.6240 O.co2 192  ASP192     -0.2456
     71  N        -59.4230   29.8590  157.0630 N.3   197  HIS197     -0.1241
     72  CA       -60.5200   30.0450  156.1030 C.3   197  HIS197      0.1621
     73  C        -60.3000   31.3490  155.3340 C.2   197  HIS197      0.2264
     74  O        -61.1330   32.2200  155.2530 O.2   197  HIS197     -0.2867
     75  CB       -61.8830   30.0720  156.7930 C.3   197  HIS197      0.0745
     76  CG       -62.0780   29.0160  157.8240 C.ar  197  HIS197      0.0817
     77  ND1      -62.2000   27.6910  157.5200 N.ar  197  HIS197     -0.2268
     78  CD2      -62.2060   29.1110  159.1650 C.ar  197  HIS197      0.1154
     79  CE1      -62.3760   27.0070  158.6330 C.ar  197  HIS197      0.1986
     80  NE2      -62.3940   27.8450  159.6530 N.ar  197  HIS197     -0.2212
     81  N        -59.5000   23.0250  161.1620 N.3   227  ASP227     -0.1239
     82  CA       -60.4410   23.0330  160.0290 C.3   227  ASP227      0.1674
     83  C        -59.9930   24.0900  159.0240 C.2   227  ASP227      0.2266
     84  O        -59.9000   25.2720  159.3570 O.2   227  ASP227     -0.2867
     85  CB       -61.8350   23.2770  160.5730 C.3   227  ASP227      0.1410
     86  CG       -62.9330   23.3730  159.5450 C.2   227  ASP227      0.3668
     87  OD1      -62.7110   23.7990  158.4210 O.co2 227  ASP227     -0.2456
     88  OD2      -64.1040   23.0350  159.9340 O.co2 227  ASP227     -0.2456
     89  N        -61.6500   24.4350  155.8580 N.3   229  ILE229     -0.1231
     90  CA       -62.6520   24.5660  154.8050 C.3   229  ILE229      0.1692
     91  C        -62.6500   25.9910  154.2480 C.2   229  ILE229      0.2592
     92  O        -62.3540   26.9740  154.9220 O.2   229  ILE229     -0.2718
     93  CB       -64.0610   24.1800  155.3340 C.3   229  ILE229      0.0266
     94  CG1      -64.9750   23.7320  154.1810 C.3   229  ILE229      0.0019
     95  CG2      -64.6910   25.3360  156.1370 C.3   229  ILE229      0.0020
     96  CD1      -66.3450   23.2770  154.6340 C.3   229  ILE229      0.0001
     97  N        -63.0520   26.1210  152.9820 N.am  230  ASN230     -0.1974
     98  CA       -63.2380   27.4350  152.3560 C.3   230  ASN230      0.1688
     99  C        -62.0130   28.3390  152.5110 C.2   230  ASN230      0.2292
    100  O        -62.1290   29.5330  152.8230 O.2   230  ASN230     -0.2864
    101  CB       -64.5250   28.1060  152.8800 C.3   230  ASN230      0.1181
    102  CG       -65.7530   27.3450  152.4590 C.2   230  ASN230      0.2629
    103  OD1      -65.8650   26.9240  151.2930 O.2   230  ASN230     -0.2716
    104  ND2      -66.6760   27.1500  153.3950 N.am  230  ASN230     -0.0877
@<TRIPOS>BOND
     1   103   102    2
     2    98    99    1
     3    98   101    1
     4    98    97    1
     5   102   101    1
     6   102   104   am
     7    99   100    2
     8    97    91   am
     9    94    96    1
    10    94    93    1
    11    91    90    1
    12    91    92    2
    13    90    93    1
    14    90    89    1
    15    74    73    2
    16    73    72    1
    17    93    95    1
    18    72    75    1
    19    72    71    1
    20    75    76    1
    21    77    76   ar
    22    77    79   ar
    23    76    78   ar
    24    87    86   ar
    25    79    80   ar
    26    83    84    2
    27    83    82    1
    28    78    80   ar
    29    86    88   ar
    30    86    85    1
    31    50    49    1
    32    82    85    1
    33    82    81    1
    34    21    20   ar
    35    21    19   ar
    36    49    48   ar
    37    49    47   ar
    38    20    18   ar
    39    19    17   ar
    40    48    46   ar
    41    47    45   ar
    42    18    17   ar
    43    17    16    1
    44    11     9    1
    45    46    44   ar
    46    16    13    1
    47    41    42    2
    48    41    40    1
    49    45    44   ar
    50    10     9    1
    51    44    43    1
    52    70    68   ar
    53    61    60    2
    54    29    28    2
    55     9     8    2
    56    30    28   am
    57    40    43    1
    58    40    39    1
    59    28    27    1
    60    13    14    1
    61    13    12    1
    62    54    53    2
    63    60    62   am
    64    60    59    1
    65    15    14    2
    66    68    69   ar
    67    68    67    1
    68     8     7    1
    69    27    26    1
    70    59    56    1
    71     7     6    1
    72    53    55   am
    73    53    52    1
    74    67    64    1
    75    56    55    1
    76    56    57    1
    77    38    36    1
    78    58    57    2
    79    52    51    1
    80    26    23    1
    81    22    23    1
    82     6     5    1
    83    37    35    1
    84    64    63    1
    85    64    65    1
    86    36    35    1
    87    23    24    1
    88     5     2    1
    89    35    32    1
    90    25    24    2
    91    65    66    2
    92     1     2    1
    93     2     3    1
    94    32    33    1
    95    32    31    1
    96    33    34    2
    97     4     3    2
