@<TRIPOS>MOLECULE
tmp/5olsA02.pdb
 87 80 0 0 0
SMALL
GASTEIGER

@<TRIPOS>ATOM
      1  N         -5.5070    5.7860  -22.8790 N.3   189  GLY189     -0.1210
      2  CA        -4.1770    6.3090  -22.5840 C.3   189  GLY189      0.1956
      3  C         -3.5300    7.2000  -23.6390 C.2   189  GLY189      0.2611
      4  O         -2.4120    7.6930  -23.4280 O.2   189  GLY189     -0.2717
      5  N         -4.2020    7.3880  -24.7740 N.am  190  ASN190     -0.1974
      6  CA        -3.6830    8.1770  -25.8880 C.3   190  ASN190      0.1688
      7  C         -4.4830    9.4560  -26.1730 C.2   190  ASN190      0.2292
      8  O         -4.0820   10.2570  -27.0330 O.2   190  ASN190     -0.2864
      9  CB        -3.6390    7.2970  -27.1430 C.3   190  ASN190      0.1181
     10  CG        -2.5990    6.1870  -27.0540 C.2   190  ASN190      0.2629
     11  OD1       -1.6980    6.2240  -26.2330 O.2   190  ASN190     -0.2716
     12  ND2       -2.7160    5.1980  -27.9340 N.am  190  ASN190     -0.0877
     13  N         -5.4160   12.8760  -25.2630 N.3   192  ASP192     -0.1239
     14  CA        -5.1760   14.1710  -24.6270 C.3   192  ASP192      0.1674
     15  C         -6.0840   15.2680  -25.1820 C.2   192  ASP192      0.2266
     16  O         -6.6100   15.1760  -26.3080 O.2   192  ASP192     -0.2867
     17  CB        -3.7190   14.6280  -24.8380 C.3   192  ASP192      0.1410
     18  CG        -2.6910   13.7360  -24.1450 C.2   192  ASP192      0.3668
     19  OD1       -3.0210   12.9910  -23.1920 O.co2 192  ASP192     -0.2456
     20  OD2       -1.5040   13.7890  -24.5390 O.co2 192  ASP192     -0.2456
     21  N          3.9480   17.9360  -29.7440 N.3   197  HIS197     -0.1241
     22  CA         4.9230   16.8520  -29.9650 C.3   197  HIS197      0.1621
     23  C          5.7170   17.0820  -31.2530 C.2   197  HIS197      0.2264
     24  O          5.7940   16.2060  -32.1380 O.2   197  HIS197     -0.2867
     25  CB         4.2100   15.5030  -30.0030 C.3   197  HIS197      0.0745
     26  CG         3.2140   15.3250  -28.9050 C.ar  197  HIS197      0.0817
     27  ND1        3.5730   15.2860  -27.5780 N.ar  197  HIS197     -0.2268
     28  CD2        1.8670   15.2040  -28.9350 C.ar  197  HIS197      0.1154
     29  CE1        2.4880   15.1370  -26.8390 C.ar  197  HIS197      0.1986
     30  NE2        1.4400   15.0760  -27.6380 N.ar  197  HIS197     -0.2212
     31  N         -6.7300   10.6980  -20.8990 N.3   223  ASP223     -0.1225
     32  CA        -5.3080   10.7040  -20.5260 C.3   223  ASP223      0.1805
     33  C         -4.8920   12.0230  -19.8170 C.2   223  ASP223      0.2597
     34  O         -5.0560   12.1570  -18.5870 O.2   223  ASP223     -0.2718
     35  CB        -4.4290   10.3400  -21.7340 C.3   223  ASP223      0.1424
     36  CG        -2.9980    9.9840  -21.3380 C.2   223  ASP223      0.3668
     37  OD1       -2.8190    9.1100  -20.4530 O.co2 223  ASP223     -0.2456
     38  OD2       -2.0440   10.5320  -21.9720 O.co2 223  ASP223     -0.2456
     39  N         -4.3730   12.9860  -20.5670 N.am  224  ASP224     -0.1974
     40  CA        -3.9330   14.2500  -19.9950 C.3   224  ASP224      0.1709
     41  C         -4.7490   15.3850  -20.5840 C.2   224  ASP224      0.2293
     42  O         -5.4470   15.2180  -21.6030 O.2   224  ASP224     -0.2864
     43  CB        -2.4460   14.4560  -20.2780 C.3   224  ASP224      0.1436
     44  CG        -1.5880   13.3290  -19.7380 C.2   224  ASP224      0.3671
     45  OD1       -1.8230   12.8450  -18.6070 O.co2 224  ASP224     -0.2456
     46  OD2       -0.6360   12.9490  -20.4270 O.co2 224  ASP224     -0.2456
     47  N         -0.0590   18.0010  -22.8940 N.3   227  ASP227     -0.1239
     48  CA         1.0710   17.0730  -22.9280 C.3   227  ASP227      0.1674
     49  C          2.0940   17.5520  -23.9690 C.2   227  ASP227      0.2266
     50  O          1.7440   17.7240  -25.1490 O.2   227  ASP227     -0.2867
     51  CB         0.5290   15.6820  -23.2850 C.3   227  ASP227      0.1410
     52  CG         1.5970   14.5900  -23.3210 C.2   227  ASP227      0.3668
     53  OD1        2.8120   14.8960  -23.2490 O.co2 227  ASP227     -0.2456
     54  OD2        1.1920   13.4020  -23.4360 O.co2 227  ASP227     -0.2456
     55  N          5.2660   15.8840  -24.4060 N.3   229  ILE229     -0.1231
     56  CA         6.2760   14.8530  -24.5150 C.3   229  ILE229      0.1692
     57  C          6.7630   14.8190  -25.9590 C.2   229  ILE229      0.2592
     58  O          6.0040   15.1480  -26.8740 O.2   229  ILE229     -0.2718
     59  CB         5.7530   13.4620  -24.0720 C.3   229  ILE229      0.0266
     60  CG1        6.9100   12.5970  -23.5500 C.3   229  ILE229      0.0019
     61  CG2        4.9810   12.7630  -25.1980 C.3   229  ILE229      0.0020
     62  CD1        6.5240   11.1890  -23.1400 C.3   229  ILE229      0.0001
     63  N          8.0230   14.4260  -26.1390 N.am  230  ASN230     -0.1974
     64  CA         8.6270   14.2520  -27.4490 C.3   230  ASN230      0.1688
     65  C          8.3960   15.4950  -28.2800 C.2   230  ASN230      0.2292
     66  O          7.8310   15.4420  -29.3680 O.2   230  ASN230     -0.2864
     67  CB         8.0910   12.9810  -28.1240 C.3   230  ASN230      0.1181
     68  CG         8.4530   11.7250  -27.3500 C.2   230  ASN230      0.2629
     69  OD1        9.5360   11.6280  -26.8000 O.2   230  ASN230     -0.2716
     70  ND2        7.5460   10.7710  -27.2960 N.am  230  ASN230     -0.0877
     71  N         -3.2890    8.7180  -17.6700 N.3   257  ASP257     -0.1239
     72  CA        -2.2570    9.2150  -16.7400 C.3   257  ASP257      0.1674
     73  C         -2.6830   10.3500  -15.8310 C.2   257  ASP257      0.2266
     74  O         -2.0400   10.5890  -14.8000 O.2   257  ASP257     -0.2867
     75  CB        -1.0120    9.6490  -17.5090 C.3   257  ASP257      0.1410
     76  CG        -0.4410    8.5320  -18.3520 C.2   257  ASP257      0.3668
     77  OD1       -0.7640    7.3660  -18.0790 O.co2 257  ASP257     -0.2456
     78  OD2        0.3050    8.8140  -19.2980 O.co2 257  ASP257     -0.2456
     79  N          1.4850   17.9210  -18.6300 N.3   262  LYS262     -0.1245
     80  CA         2.7110   17.1270  -18.7720 C.3   262  LYS262      0.1561
     81  C          3.6070   17.9340  -19.6910 C.2   262  LYS262      0.2260
     82  O          3.4890   17.8410  -20.9140 O.2   262  LYS262     -0.2867
     83  CB         2.4150   15.7540  -19.3670 C.3   262  LYS262      0.0271
     84  CG         2.1650   14.6540  -18.3530 C.3   262  LYS262      0.0035
     85  CD         2.3070   13.2740  -19.0030 C.3   262  LYS262      0.0206
     86  CE         2.1170   12.1220  -17.9880 C.3   262  LYS262      0.1093
     87  NZ         2.5600   10.8040  -18.5410 N.3   262  LYS262     -0.1314
@<TRIPOS>BOND
     1    24    23    2
     2    23    22    1
     3    25    22    1
     4    25    26    1
     5    22    21    1
     6    66    65    2
     7    28    26   ar
     8    28    30   ar
     9    26    27   ar
    10    65    64    1
    11    67    64    1
    12    67    68    1
    13    12    10   am
    14    30    29   ar
    15    27    29   ar
    16    64    63    1
    17    68    70   am
    18    68    69    2
    19     9    10    1
    20     9     6    1
    21    10    11    2
    22     8     7    2
    23    58    57    2
    24    16    15    2
    25     7     6    1
    26    63    57   am
    27    57    56    1
    28     6     5    1
    29    13    14    1
    30    61    59    1
    31    15    14    1
    32    50    49    2
    33    17    14    1
    34    17    18    1
    35     5     3   am
    36    20    18   ar
    37    56    55    1
    38    56    59    1
    39    18    19   ar
    40    59    60    1
    41    49    48    1
    42     3     4    2
    43     3     2    1
    44    60    62    1
    45    54    52   ar
    46    52    51    1
    47    52    53   ar
    48    51    48    1
    49    48    47    1
    50     1     2    1
    51    38    36   ar
    52    35    36    1
    53    35    32    1
    54    42    41    2
    55    36    37   ar
    56    82    81    2
    57    31    32    1
    58    41    40    1
    59    39    40    1
    60    39    33   am
    61    32    33    1
    62    46    44   ar
    63    43    40    1
    64    43    44    1
    65    33    34    2
    66    44    45   ar
    67    81    80    1
    68    83    80    1
    69    83    84    1
    70    78    76   ar
    71    85    84    1
    72    85    86    1
    73    80    79    1
    74    87    86    1
    75    76    77   ar
    76    76    75    1
    77    71    72    1
    78    75    72    1
    79    72    73    1
    80    73    74    2
