@<TRIPOS>MOLECULE
tmp/5olsA03.pdb
 86 80 0 0 0
SMALL
GASTEIGER

@<TRIPOS>ATOM
      1  N         -0.0590   18.0010  -22.8940 N.3   227  ASP227     -0.1239
      2  CA         1.0710   17.0730  -22.9280 C.3   227  ASP227      0.1674
      3  C          2.0940   17.5520  -23.9690 C.2   227  ASP227      0.2266
      4  O          1.7440   17.7240  -25.1490 O.2   227  ASP227     -0.2867
      5  CB         0.5290   15.6820  -23.2850 C.3   227  ASP227      0.1410
      6  CG         1.5970   14.5900  -23.3210 C.2   227  ASP227      0.3668
      7  OD1        2.8120   14.8960  -23.2490 O.co2 227  ASP227     -0.2456
      8  OD2        1.1920   13.4020  -23.4360 O.co2 227  ASP227     -0.2456
      9  N          5.2660   15.8840  -24.4060 N.3   229  ILE229     -0.1245
     10  CA         6.2760   14.8530  -24.5150 C.3   229  ILE229      0.1561
     11  C          6.7630   14.8190  -25.9590 C.2   229  ILE229      0.2260
     12  O          6.0040   15.1480  -26.8740 O.2   229  ILE229     -0.2867
     13  CB         5.7530   13.4620  -24.0720 C.3   229  ILE229      0.0252
     14  CG1        6.9100   12.5970  -23.5500 C.3   229  ILE229      0.0019
     15  CG2        4.9810   12.7630  -25.1980 C.3   229  ILE229      0.0019
     16  CD1        6.5240   11.1890  -23.1400 C.3   229  ILE229      0.0001
     17  N         -3.2890    8.7180  -17.6700 N.3   257  ASP257     -0.1239
     18  CA        -2.2570    9.2150  -16.7400 C.3   257  ASP257      0.1674
     19  C         -2.6830   10.3500  -15.8310 C.2   257  ASP257      0.2266
     20  O         -2.0400   10.5890  -14.8000 O.2   257  ASP257     -0.2867
     21  CB        -1.0120    9.6490  -17.5090 C.3   257  ASP257      0.1410
     22  CG        -0.4410    8.5320  -18.3520 C.2   257  ASP257      0.3668
     23  OD1       -0.7640    7.3660  -18.0790 O.co2 257  ASP257     -0.2456
     24  OD2        0.3050    8.8140  -19.2980 O.co2 257  ASP257     -0.2456
     25  N          1.4850   17.9210  -18.6300 N.3   262  LYS262     -0.1245
     26  CA         2.7110   17.1270  -18.7720 C.3   262  LYS262      0.1561
     27  C          3.6070   17.9340  -19.6910 C.2   262  LYS262      0.2260
     28  O          3.4890   17.8410  -20.9140 O.2   262  LYS262     -0.2867
     29  CB         2.4150   15.7540  -19.3670 C.3   262  LYS262      0.0271
     30  CG         2.1650   14.6540  -18.3530 C.3   262  LYS262      0.0035
     31  CD         2.3070   13.2740  -19.0030 C.3   262  LYS262      0.0206
     32  CE         2.1170   12.1220  -17.9880 C.3   262  LYS262      0.1093
     33  NZ         2.5600   10.8040  -18.5410 N.3   262  LYS262     -0.1314
     34  N         10.2500   10.2190  -22.5110 N.3   267  GLY267     -0.1210
     35  CA        10.0250    8.8510  -22.1000 C.3   267  GLY267      0.1956
     36  C         11.1260    8.2910  -21.2340 C.2   267  GLY267      0.2611
     37  O         12.2550    8.7890  -21.2110 O.2   267  GLY267     -0.2717
     38  N         10.7790    7.2180  -20.5380 N.am  268  MET268     -0.1979
     39  CA        11.7090    6.4550  -19.7280 C.3   268  MET268      0.1605
     40  C         11.7300    5.0320  -20.2800 C.2   268  MET268      0.2287
     41  O         11.5530    4.0660  -19.5380 O.2   268  MET268     -0.2864
     42  CB        11.2640    6.4770  -18.2660 C.3   268  MET268      0.0413
     43  CG        11.2200    7.8710  -17.6620 C.3   268  MET268      0.0598
     44  SD        12.8680    8.4630  -17.2770 S.3   268  MET268     -0.1393
     45  CE        13.1440    7.6310  -15.7190 C.3   268  MET268      0.0692
     46  N         -1.6050   14.1730  -11.2630 N.3   296  ARG296     -0.1245
     47  CA        -0.6640   15.2800  -11.1710 C.3   296  ARG296      0.1563
     48  C         -1.1910   16.5530  -11.8760 C.2   296  ARG296      0.2260
     49  O         -2.0160   16.4790  -12.7980 O.2   296  ARG296     -0.2867
     50  CB         0.7110   14.8840  -11.7270 C.3   296  ARG296      0.0307
     51  CG         1.2560   13.4960  -11.3420 C.3   296  ARG296      0.0489
     52  CD         2.5760   13.2370  -12.0680 C.3   296  ARG296      0.2205
     53  NE         3.3330   12.0700  -11.6150 N.pl3 296  ARG296     -0.0865
     54  CZ         3.1510   10.8090  -12.0370 C.cat 296  ARG296      0.5346
     55  NH1        2.1920   10.4840  -12.9050 N.pl3 296  ARG296      0.1354
     56  NH2        3.9340    9.8520  -11.5670 N.pl3 296  ARG296      0.1354
     57  N          3.6950   19.1920  -14.1970 N.3   299  TYR299     -0.1241
     58  CA         4.6050   18.0370  -14.1900 C.3   299  TYR299      0.1605
     59  C          5.6820   18.1270  -15.2750 C.2   299  TYR299      0.2264
     60  O          5.3730   18.3310  -16.4540 O.2   299  TYR299     -0.2867
     61  CB         3.7690   16.7790  -14.3900 C.3   299  TYR299      0.0534
     62  CG         4.4670   15.4260  -14.3130 C.ar  299  TYR299     -0.0201
     63  CD1        5.5270   15.1850  -13.4380 C.ar  299  TYR299     -0.0009
     64  CD2        4.0090   14.3600  -15.0870 C.ar  299  TYR299     -0.0009
     65  CE1        6.1350   13.9250  -13.3630 C.ar  299  TYR299      0.0417
     66  CE2        4.6010   13.0950  -15.0120 C.ar  299  TYR299      0.0417
     67  CZ         5.6670   12.8770  -14.1540 C.ar  299  TYR299      0.1957
     68  OH         6.2480   11.6220  -14.0890 O.3   299  TYR299     -0.2866
     69  N          7.7030   15.7040  -16.1170 N.3   301  ASN301     -0.1225
     70  CA         7.4440   14.5220  -16.9200 C.3   301  ASN301      0.1785
     71  C          8.7460   13.9340  -17.4680 C.2   301  ASN301      0.2597
     72  O          8.8230   13.6050  -18.6260 O.2   301  ASN301     -0.2718
     73  CB         6.4550   14.8710  -18.0600 C.3   301  ASN301      0.1169
     74  CG         5.8050   13.6500  -18.6800 C.2   301  ASN301      0.2627
     75  OD1        5.3720   12.7470  -17.9720 O.2   301  ASN301     -0.2716
     76  ND2        5.7120   13.6300  -20.0130 N.am  301  ASN301     -0.0877
     77  N          9.7640   13.8290  -16.6120 N.am  302  HIS302     -0.1975
     78  CA        11.0640   13.2420  -16.9760 C.3   302  HIS302      0.1656
     79  C         11.8010   14.0330  -18.0770 C.2   302  HIS302      0.2291
     80  O         12.4460   13.4480  -18.9470 O.2   302  HIS302     -0.2864
     81  CB        10.8940   11.7540  -17.3630 C.3   302  HIS302      0.0771
     82  CG         9.9420   11.0050  -16.4760 C.ar  302  HIS302      0.0820
     83  ND1       10.3260   10.4160  -15.2900 N.ar  302  HIS302     -0.2267
     84  CD2        8.6130   10.7740  -16.5970 C.ar  302  HIS302      0.1154
     85  CE1        9.2750    9.8480  -14.7240 C.ar  302  HIS302      0.1986
     86  NE2        8.2240   10.0510  -15.4970 N.ar  302  HIS302     -0.2212
@<TRIPOS>BOND
     1    12    11    2
     2    11    10    1
     3    15    13    1
     4     4     3    2
     5    10     9    1
     6    10    13    1
     7    13    14    1
     8     3     2    1
     9    14    16    1
    10     8     6   ar
    11     6     5    1
    12     6     7   ar
    13     5     2    1
    14     2     1    1
    15    34    35    1
    16    35    36    1
    17    36    37    2
    18    36    38   am
    19    28    27    2
    20    38    39    1
    21    40    39    1
    22    40    41    2
    23    76    74   am
    24    39    42    1
    25    27    26    1
    26    29    26    1
    27    29    30    1
    28    24    22   ar
    29    31    30    1
    30    31    32    1
    31    80    79    2
    32    26    25    1
    33    74    73    1
    34    74    75    2
    35    72    71    2
    36    33    32    1
    37    22    23   ar
    38    22    21    1
    39    42    43    1
    40    79    78    1
    41    73    70    1
    42    17    18    1
    43    43    44    1
    44    21    18    1
    45    71    70    1
    46    71    77   am
    47    81    78    1
    48    81    82    1
    49    44    45    1
    50    78    77    1
    51    70    69    1
    52    18    19    1
    53    84    82   ar
    54    84    86   ar
    55    82    83   ar
    56    60    59    2
    57    19    20    2
    58    86    85   ar
    59    83    85   ar
    60    59    58    1
    61    64    66   ar
    62    64    62   ar
    63    66    67   ar
    64    61    62    1
    65    61    58    1
    66    62    63   ar
    67    57    58    1
    68    67    68    1
    69    67    65   ar
    70    63    65   ar
    71    55    54    1
    72    49    48    2
    73    52    53    1
    74    52    51    1
    75    54    53    2
    76    54    56    1
    77    48    47    1
    78    50    51    1
    79    50    47    1
    80    46    47    1
