@<TRIPOS>MOLECULE
tmp/5oltA01.pdb
 105 103 0 0 0
SMALL
GASTEIGER

@<TRIPOS>ATOM
      1  N         37.4410   11.4710   18.4580 N.3   101  TYR101     -0.1227
      2  CA        38.6960   10.9530   17.8930 C.3   101  TYR101      0.1736
      3  C         38.4340   10.1080   16.6670 C.2   101  TYR101      0.2596
      4  O         37.3810    9.4750   16.5540 O.2   101  TYR101     -0.2718
      5  CB        39.4440   10.1160   18.9400 C.3   101  TYR101      0.0548
      6  CG        39.9780   10.8940   20.1480 C.ar  101  TYR101     -0.0200
      7  CD1       40.4710   12.1950   20.0320 C.ar  101  TYR101     -0.0009
      8  CD2       40.0660   10.2640   21.3770 C.ar  101  TYR101     -0.0009
      9  CE1       40.9950   12.8760   21.1450 C.ar  101  TYR101      0.0417
     10  CE2       40.6210   10.9030   22.4820 C.ar  101  TYR101      0.0417
     11  CZ        41.0730   12.2070   22.3610 C.ar  101  TYR101      0.1957
     12  OH        41.6100   12.8100   23.5060 O.3   101  TYR101     -0.2866
     13  N         39.4140   10.0820   15.7510 N.am  102  SER102     -0.1938
     14  CA        39.2050    9.4590   14.4530 C.3   102  SER102      0.2055
     15  C         39.0310    7.9500   14.5010 C.2   102  SER102      0.2644
     16  O         38.1120    7.4090   13.8660 O.2   102  SER102     -0.2714
     17  CB        40.4000    9.7540   13.5420 C.3   102  SER102      0.2130
     18  OG        40.6290   11.1530   13.4250 O.3   102  SER102     -0.2179
     19  N         39.9010    7.2580   15.2560 N.am  103  GLY103     -0.1940
     20  CA        39.8260    5.7930   15.3010 C.3   103  GLY103      0.1998
     21  C         38.4960    5.2950   15.8200 C.2   103  GLY103      0.2480
     22  O         37.8070    4.5230   15.1470 O.2   103  GLY103     -0.2729
     23  N         38.0840    5.7830   16.9960 N.am  104  PRO104     -0.2726
     24  CA        36.7940    5.3350   17.5210 C.3   104  PRO104      0.1402
     25  C         35.6350    5.7400   16.6110 C.2   104  PRO104      0.2269
     26  O         34.6620    4.9860   16.5220 O.2   104  PRO104     -0.2865
     27  CB        36.6860    6.0440   18.8640 C.3   104  PRO104      0.0296
     28  CG        38.0170    6.5640   19.1730 C.3   104  PRO104      0.0237
     29  CD        38.8920    6.5340   17.9790 C.3   104  PRO104      0.0939
     30  N         36.5130   -1.6990   21.5730 N.3   123  TYR123     -0.1241
     31  CA        37.8170   -2.2840   21.3870 C.3   123  TYR123      0.1605
     32  C         37.8540   -3.7990   21.6520 C.2   123  TYR123      0.2264
     33  O         38.9230   -4.3960   21.7290 O.2   123  TYR123     -0.2867
     34  CB        38.8840   -1.4740   22.1540 C.3   123  TYR123      0.0534
     35  CG        39.0950   -0.1650   21.4510 C.ar  123  TYR123     -0.0201
     36  CD1       40.0180   -0.0650   20.3950 C.ar  123  TYR123     -0.0009
     37  CD2       38.3390    0.9750   21.7820 C.ar  123  TYR123     -0.0009
     38  CE1       40.1690    1.1260   19.6920 C.ar  123  TYR123      0.0417
     39  CE2       38.4950    2.1510   21.0830 C.ar  123  TYR123      0.0417
     40  CZ        39.4120    2.2380   20.0610 C.ar  123  TYR123      0.1957
     41  OH        39.5800    3.4210   19.3590 O.3   123  TYR123     -0.2866
     42  N         49.2120    7.3710   10.5220 N.3   153  PHE153     -0.1227
     43  CA        49.1480    8.1800   11.7160 C.3   153  PHE153      0.1736
     44  C         48.0940    7.6460   12.6750 C.2   153  PHE153      0.2596
     45  O         46.9810    7.2920   12.2530 O.2   153  PHE153     -0.2718
     46  CB        48.8770    9.6450   11.4060 C.3   153  PHE153      0.0547
     47  CG        48.8060   10.4770   12.6490 C.ar  153  PHE153     -0.0202
     48  CD1       49.9900   10.8910   13.2790 C.ar  153  PHE153     -0.0042
     49  CD2       47.5730   10.7470   13.2640 C.ar  153  PHE153     -0.0042
     50  CE1       49.9380   11.6410   14.4500 C.ar  153  PHE153     -0.0003
     51  CE2       47.5200   11.4840   14.4500 C.ar  153  PHE153     -0.0003
     52  CZ        48.7040   11.9240   15.0410 C.ar  153  PHE153     -0.0000
     53  N         48.4710    7.5350   13.9520 N.am  154  GLY154     -0.1957
     54  CA        47.5580    7.0710   15.0000 C.3   154  GLY154      0.1869
     55  C         47.1790    5.6090   14.8850 C.2   154  GLY154      0.2309
     56  O         46.2630    5.1470   15.5790 O.2   154  GLY154     -0.2863
     57  N         45.6570    4.4050   12.4510 N.3   156  PHE156     -0.1241
     58  CA        44.2570    4.4610   11.9970 C.3   156  PHE156      0.1605
     59  C         43.8740    3.2820   11.1110 C.2   156  PHE156      0.2264
     60  O         42.8510    2.6440   11.3430 O.2   156  PHE156     -0.2867
     61  CB        44.0020    5.7710   11.2610 C.3   156  PHE156      0.0534
     62  CG        42.5820    5.9140   10.7610 C.ar  156  PHE156     -0.0203
     63  CD1       41.5410    6.2300   11.6460 C.ar  156  PHE156     -0.0042
     64  CD2       42.2870    5.7210    9.4160 C.ar  156  PHE156     -0.0042
     65  CE1       40.2210    6.3430   11.1910 C.ar  156  PHE156     -0.0003
     66  CE2       40.9740    5.8520    8.9560 C.ar  156  PHE156     -0.0003
     67  CZ        39.9460    6.1530    9.8440 C.ar  156  PHE156     -0.0000
     68  N         43.4270    0.2150   13.1730 N.3   159  GLU159     -0.1245
     69  CA        42.1560    0.2190   13.9030 C.3   159  GLU159      0.1567
     70  C         40.9840   -0.1330   12.9850 C.2   159  GLU159      0.2260
     71  O         40.1060   -0.9390   13.3650 O.2   159  GLU159     -0.2867
     72  CB        41.9040    1.5630   14.6250 C.3   159  GLU159      0.0388
     73  CG        42.9370    1.8960   15.7010 C.3   159  GLU159      0.1160
     74  CD        42.3800    2.7210   16.8490 C.2   159  GLU159      0.3649
     75  OE1       41.2090    3.1220   16.7930 O.co2 159  GLU159     -0.2457
     76  OE2       43.1110    2.9650   17.8310 O.co2 159  GLU159     -0.2457
     77  N         41.0550   12.8990    5.0230 N.3   217  LEU217     -0.1245
     78  CA        41.7990   13.6740    6.0030 C.3   217  LEU217      0.1561
     79  C         42.0850   15.1770    5.7010 C.2   217  LEU217      0.2260
     80  O         42.7720   15.8100    6.5040 O.2   217  LEU217     -0.2867
     81  CB        43.1870   12.9570    6.1370 C.3   217  LEU217      0.0270
     82  CG        43.9190   13.0920    7.4540 C.3   217  LEU217      0.0019
     83  CD1       43.1110   12.4270    8.5710 C.3   217  LEU217      0.0001
     84  CD2       45.3090   12.4700    7.3520 C.3   217  LEU217      0.0001
     85  N         41.8950   17.8430    8.5640 N.3   220  HIS220     -0.1241
     86  CA        42.6210   17.6860    9.8280 C.3   220  HIS220      0.1621
     87  C         43.5700   18.8530   10.0810 C.2   220  HIS220      0.2264
     88  O         44.1830   19.3790    9.1660 O.2   220  HIS220     -0.2867
     89  CB        43.4100   16.3850    9.8110 C.3   220  HIS220      0.0745
     90  CG        43.9430   15.9710   11.1670 C.ar  220  HIS220      0.0817
     91  ND1       44.9690   16.6400   11.8280 N.ar  220  HIS220     -0.2268
     92  CD2       43.5880   14.9520   11.9740 C.ar  220  HIS220      0.1154
     93  CE1       45.2410   16.0170   12.9600 C.ar  220  HIS220      0.1986
     94  NE2       44.4230   14.9830   13.0680 N.ar  220  HIS220     -0.2212
     95  N         40.2360   18.8680   21.2660 N.3   282  ARG282     -0.1245
     96  CA        38.9700   18.0850   21.1820 C.3   282  ARG282      0.1563
     97  C         39.0660   16.8150   22.0360 C.2   282  ARG282      0.2260
     98  O         38.5400   15.7790   21.6930 O.2   282  ARG282     -0.2867
     99  CB        38.5770   17.8320   19.7070 C.3   282  ARG282      0.0307
    100  CG        39.6860   17.2310   18.8770 C.3   282  ARG282      0.0489
    101  CD        39.1580   16.9370   17.4830 C.3   282  ARG282      0.2205
    102  NE        40.2740   16.7050   16.5680 N.pl3 282  ARG282     -0.0865
    103  CZ        40.8580   15.5380   16.3220 C.cat 282  ARG282      0.5346
    104  NH1       40.4410   14.4000   16.8790 N.pl3 282  ARG282      0.1354
    105  NH2       41.9280   15.5170   15.5050 N.pl3 282  ARG282      0.1354
@<TRIPOS>BOND
     1    77    78    1
     2    79    78    1
     3    79    80    2
     4    78    81    1
     5    81    82    1
     6    84    82    1
     7    82    83    1
     8    85    86    1
     9    66    64   ar
    10    66    67   ar
    11    88    87    2
    12    64    62   ar
    13    89    86    1
    14    89    90    1
    15    86    87    1
    16    67    65   ar
    17    42    43    1
    18    62    61    1
    19    62    63   ar
    20    59    60    2
    21    59    58    1
    22    90    91   ar
    23    90    92   ar
    24    65    63   ar
    25    61    58    1
    26    46    43    1
    27    46    47    1
    28    43    44    1
    29    91    93   ar
    30    92    94   ar
    31    58    57    1
    32    45    44    2
    33    47    49   ar
    34    47    48   ar
    35    44    53   am
    36    93    94   ar
    37    70    71    2
    38    70    69    1
    39    68    69    1
    40    49    51   ar
    41    48    50   ar
    42    18    17    1
    43    17    14    1
    44    16    15    2
    45    69    72    1
    46    53    54    1
    47    51    52   ar
    48    50    52   ar
    49    14    15    1
    50    14    13    1
    51    15    19   am
    52    72    73    1
    53    55    54    1
    54    55    56    2
    55    22    21    2
    56    19    20    1
    57    20    21    1
    58   105   103    1
    59    73    74    1
    60    13     3   am
    61    21    23   am
    62   103   102    2
    63   103   104    1
    64    26    25    2
    65     4     3    2
    66   102   101    1
    67    25    24    1
    68     3     2    1
    69    75    74   ar
    70    74    76   ar
    71    23    24    1
    72    23    29    1
    73   101   100    1
    74    24    27    1
    75     2     1    1
    76     2     5    1
    77    29    28    1
    78    27    28    1
    79   100    99    1
    80     5     6    1
    81    41    40    1
    82    38    40   ar
    83    38    36   ar
    84    99    96    1
    85     7     6   ar
    86     7     9   ar
    87    40    39   ar
    88     6     8   ar
    89    36    35   ar
    90    39    37   ar
    91     9    11   ar
    92    96    95    1
    93    96    97    1
    94     8    10   ar
    95    31    30    1
    96    31    32    1
    97    31    34    1
    98    35    37   ar
    99    35    34    1
   100    32    33    2
   101    98    97    2
   102    11    10   ar
   103    11    12    1
