@<TRIPOS>MOLECULE
tmp/5olvA15.pdb
 181 173 0 0 0
SMALL
GASTEIGER

@<TRIPOS>ATOM
      1  N        -25.8750    8.2080    3.3510 N.3    11  TYR11      -0.1241
      2  CA       -25.6710    7.4980    4.6080 C.3    11  TYR11       0.1605
      3  C        -26.9390    6.7530    5.0410 C.2    11  TYR11       0.2264
      4  O        -26.8750    5.5700    5.4050 O.2    11  TYR11      -0.2867
      5  CB       -25.1940    8.4880    5.6870 C.3    11  TYR11       0.0534
      6  CG       -25.3780    7.9860    7.1060 C.ar   11  TYR11      -0.0201
      7  CD1      -24.5290    6.9970    7.6240 C.ar   11  TYR11      -0.0009
      8  CD2      -26.3820    8.5000    7.9290 C.ar   11  TYR11      -0.0009
      9  CE1      -24.6900    6.5080    8.8850 C.ar   11  TYR11       0.0417
     10  CE2      -26.5520    8.0120    9.2350 C.ar   11  TYR11       0.0417
     11  CZ       -25.7010    7.0200    9.7010 C.ar   11  TYR11       0.1957
     12  OH       -25.8410    6.5070   10.9610 O.3    11  TYR11      -0.2866
     13  N        -29.6410    5.2220   15.0230 N.3    65  ALA65      -0.1245
     14  CA       -28.5230    5.9690   14.4360 C.3    65  ALA65       0.1562
     15  C        -28.9940    6.9170   13.3210 C.2    65  ALA65       0.2260
     16  O        -28.4630    8.0200   13.1670 O.2    65  ALA65      -0.2867
     17  CB       -27.4500    5.0000   13.9060 C.3    65  ALA65       0.0290
     18  N        -30.4900    9.9180   15.1410 N.3    68  ILE68      -0.1231
     19  CA       -29.4460   10.7540   15.7180 C.3    68  ILE68       0.1692
     20  C        -28.7240   11.5740   14.6440 C.2    68  ILE68       0.2592
     21  O        -28.2950   12.7050   14.9070 O.2    68  ILE68      -0.2718
     22  CB       -28.4610    9.8650   16.5070 C.3    68  ILE68       0.0266
     23  CG1      -29.1510    9.2690   17.7550 C.3    68  ILE68       0.0019
     24  CG2      -27.1830   10.6400   16.8600 C.3    68  ILE68       0.0020
     25  CD1      -28.3950    8.0460   18.3340 C.3    68  ILE68       0.0001
     26  N        -28.5740   11.0340   13.4220 N.am   69  SER69      -0.1952
     27  CA       -27.8980   11.8040   12.3730 C.3    69  SER69       0.1924
     28  C        -28.6370   13.1010   12.0490 C.2    69  SER69       0.2314
     29  O        -28.0300   14.0240   11.4900 O.2    69  SER69      -0.2863
     30  CB       -27.7090   10.9700   11.0890 C.3    69  SER69       0.2116
     31  OG       -28.9340   10.7760   10.3580 O.3    69  SER69      -0.2180
     32  N        -28.9610    6.6380   21.9730 N.3    83  ALA83      -0.1245
     33  CA       -27.5360    6.5950   21.6750 C.3    83  ALA83       0.1562
     34  C        -26.8740    5.3590   22.3010 C.2    83  ALA83       0.2260
     35  O        -25.9880    4.7490   21.6960 O.2    83  ALA83      -0.2867
     36  CB       -26.8730    7.8900   22.1770 C.3    83  ALA83       0.0290
     37  N        -27.2500    0.7450   21.1330 N.3    86  VAL86      -0.1231
     38  CA       -26.3860   -0.1080   20.3100 C.3    86  VAL86       0.1692
     39  C        -25.2870   -0.7570   21.1640 C.2    86  VAL86       0.2591
     40  O        -24.8140   -1.8640   20.8570 O.2    86  VAL86      -0.2718
     41  CB       -25.7730    0.6880   19.1380 C.3    86  VAL86       0.0266
     42  CG1      -24.7160    1.7280   19.6400 C.3    86  VAL86       0.0020
     43  CG2      -25.1030   -0.2860   18.1170 C.3    86  VAL86       0.0020
     44  N        -24.8670   -0.0860   22.2440 N.am   87  LEU87      -0.1980
     45  CA       -23.8510   -0.6470   23.1420 C.3    87  LEU87       0.1596
     46  C        -24.3470   -1.9100   23.8460 C.2    87  LEU87       0.2287
     47  O        -23.5560   -2.8120   24.1390 O.2    87  LEU87      -0.2864
     48  CB       -23.4520    0.4030   24.1820 C.3    87  LEU87       0.0297
     49  CG       -23.0460    1.7880   23.6290 C.3    87  LEU87       0.0022
     50  CD1      -22.6710    2.7310   24.7940 C.3    87  LEU87       0.0001
     51  CD2      -21.8520    1.6080   22.6660 C.3    87  LEU87       0.0001
     52  N        -27.0000   14.2420   19.4850 N.3   169  LEU169     -0.1231
     53  CA       -25.8090   13.7430   18.8130 C.3   169  LEU169      0.1693
     54  C        -25.0730   12.8510   19.8000 C.2   169  LEU169      0.2592
     55  O        -25.0220   13.1770   20.9880 O.2   169  LEU169     -0.2718
     56  CB       -24.9020   14.8910   18.3570 C.3   169  LEU169      0.0284
     57  CG       -25.6200   15.8870   17.4140 C.3   169  LEU169      0.0019
     58  CD1      -24.8970   17.2280   17.3780 C.3   169  LEU169      0.0001
     59  CD2      -25.7980   15.2900   15.9920 C.3   169  LEU169      0.0001
     60  N        -24.5160   11.7340   19.3010 N.am  170  PHE170     -0.1962
     61  CA       -23.9200   10.7210   20.1730 C.3   170  PHE170      0.1771
     62  C        -22.8660   11.3450   21.0870 C.2   170  PHE170      0.2619
     63  O        -22.9320   11.2110   22.3170 O.2   170  PHE170     -0.2715
     64  CB       -23.3140    9.5830   19.3180 C.3   170  PHE170      0.0574
     65  CG       -22.8250    8.3880   20.1230 C.ar  170  PHE170     -0.0200
     66  CD1      -21.5710    8.4090   20.7330 C.ar  170  PHE170     -0.0042
     67  CD2      -23.6010    7.2470   20.2450 C.ar  170  PHE170     -0.0042
     68  CE1      -21.1050    7.3220   21.4690 C.ar  170  PHE170     -0.0003
     69  CE2      -23.1460    6.1490   20.9920 C.ar  170  PHE170     -0.0003
     70  CZ       -21.8770    6.1870   21.5860 C.ar  170  PHE170     -0.0000
     71  N        -21.9210   12.0860   20.5090 N.am  171  GLU171     -0.1977
     72  CA       -20.8170   12.6070   21.3060 C.3   171  GLU171      0.1602
     73  C        -21.2080   13.7610   22.2150 C.2   171  GLU171      0.2287
     74  O        -20.4150   14.1170   23.0910 O.2   171  GLU171     -0.2864
     75  CB       -19.6690   13.0460   20.3980 C.3   171  GLU171      0.0415
     76  CG       -18.8600   11.9080   19.8240 C.3   171  GLU171      0.1163
     77  CD       -17.6070   12.3880   19.0530 C.2   171  GLU171      0.3649
     78  OE1      -17.0170   13.4530   19.4090 O.co2 171  GLU171     -0.2457
     79  OE2      -17.2040   11.6850   18.1140 O.co2 171  GLU171     -0.2457
     80  N        -16.6710    5.9640   26.9230 N.3   179  MET179     -0.1245
     81  CA       -16.5570    5.2380   25.6530 C.3   179  MET179      0.1570
     82  C        -15.1760    4.6110   25.4820 C.2   179  MET179      0.2261
     83  O        -15.0470    3.5080   24.9340 O.2   179  MET179     -0.2867
     84  CB       -16.8770    6.1740   24.4820 C.3   179  MET179      0.0387
     85  CG       -18.3920    6.4720   24.2940 C.3   179  MET179      0.0595
     86  SD       -19.3880    4.9620   24.1750 S.3   179  MET179     -0.1393
     87  CE       -18.7060    4.1670   22.7350 C.3   179  MET179      0.0692
     88  N        -16.1900    1.3530   28.1040 N.3   183  ASN183     -0.1240
     89  CA       -16.7380    0.5340   27.0390 C.3   183  ASN183      0.1653
     90  C        -15.6260   -0.1280   26.1990 C.2   183  ASN183      0.2266
     91  O        -15.6010   -1.3480   26.0540 O.2   183  ASN183     -0.2867
     92  CB       -17.7000    1.3640   26.1790 C.3   183  ASN183      0.1155
     93  CG       -18.4810    0.5010   25.2150 C.2   183  ASN183      0.2627
     94  OD1      -18.0370    0.2660   24.0980 O.2   183  ASN183     -0.2716
     95  ND2      -19.6380   -0.0080   25.6570 N.am  183  ASN183     -0.0877
     96  N        -15.8200   -3.4120   14.2200 N.3   329  TRP329     -0.1241
     97  CA       -16.0330   -2.4620   15.3080 C.3   329  TRP329      0.1605
     98  C        -14.8150   -1.6170   15.6350 C.2   329  TRP329      0.2264
     99  O        -14.9720   -0.5180   16.1770 O.2   329  TRP329     -0.2867
    100  CB       -16.4570   -3.2080   16.5780 C.3   329  TRP329      0.0550
    101  CG       -17.9020   -3.5560   16.5030 C.ar  329  TRP329      0.0003
    102  CD1      -18.4590   -4.7450   16.0950 C.ar  329  TRP329      0.0946
    103  CD2      -18.9800   -2.6630   16.7420 C.ar  329  TRP329      0.0152
    104  NE1      -19.8290   -4.6480   16.1140 N.ar  329  TRP329     -0.2442
    105  CE2      -20.1790   -3.3800   16.5100 C.ar  329  TRP329      0.0810
    106  CE3      -19.0550   -1.3260   17.1560 C.ar  329  TRP329      0.0012
    107  CZ2      -21.4480   -2.8000   16.6830 C.ar  329  TRP329      0.0191
    108  CZ3      -20.3200   -0.7490   17.3390 C.ar  329  TRP329      0.0001
    109  CH2      -21.4980   -1.4850   17.0890 C.ar  329  TRP329      0.0015
    110  N        -14.3500    2.3820   14.5360 N.3   332  LEU332     -0.1231
    111  CA       -15.1270    3.3520   15.3040 C.3   332  LEU332      0.1693
    112  C        -14.5240    3.5720   16.6940 C.2   332  LEU332      0.2592
    113  O        -14.4270    4.7150   17.1580 O.2   332  LEU332     -0.2718
    114  CB       -16.5770    2.8730   15.3990 C.3   332  LEU332      0.0284
    115  CG       -17.7210    3.7730   15.8670 C.3   332  LEU332      0.0019
    116  CD1      -17.8010    5.1000   15.0950 C.3   332  LEU332      0.0001
    117  CD2      -19.0540    3.0170   15.7610 C.3   332  LEU332      0.0001
    118  N        -14.1130    2.4930   17.3720 N.am  333  HIS333     -0.1976
    119  CA       -13.4380    2.6470   18.6650 C.3   333  HIS333      0.1656
    120  C        -12.1320    3.4160   18.5450 C.2   333  HIS333      0.2291
    121  O        -11.8210    4.2680   19.3940 O.2   333  HIS333     -0.2864
    122  CB       -13.1770    1.2820   19.2890 C.3   333  HIS333      0.0771
    123  CG       -14.4120    0.6510   19.8440 C.ar  333  HIS333      0.0820
    124  ND1      -15.0740    1.1670   20.9420 N.ar  333  HIS333     -0.2267
    125  CD2      -15.1050   -0.4480   19.4590 C.ar  333  HIS333      0.1154
    126  CE1      -16.1260    0.4070   21.2110 C.ar  333  HIS333      0.1986
    127  NE2      -16.1720   -0.5740   20.3210 N.ar  333  HIS333     -0.2212
    128  N        -12.8150    7.1180   18.2540 N.3   336  ASN336     -0.1240
    129  CA       -13.0860    7.6850   19.5790 C.3   336  ASN336      0.1653
    130  C        -11.7930    7.9220   20.3540 C.2   336  ASN336      0.2266
    131  O        -11.6510    8.9490   21.0370 O.2   336  ASN336     -0.2867
    132  CB       -14.0160    6.7740   20.4000 C.3   336  ASN336      0.1155
    133  CG       -15.4080    6.6440   19.7990 C.2   336  ASN336      0.2627
    134  OD1      -15.8250    7.4620   18.9630 O.2   336  ASN336     -0.2716
    135  ND2      -16.1460    5.6090   20.2240 N.am  336  ASN336     -0.0877
    136  N        -16.7960   14.2070    8.8850 N.3   350  LEU350     -0.1245
    137  CA       -18.1260   13.6000    8.9250 C.3   350  LEU350      0.1561
    138  C        -18.2390   12.3780    8.0070 C.2   350  LEU350      0.2260
    139  O        -18.8560   11.3690    8.3820 O.2   350  LEU350     -0.2867
    140  CB       -19.1890   14.6420    8.5620 C.3   350  LEU350      0.0270
    141  CG       -20.6280   14.1210    8.4340 C.3   350  LEU350      0.0019
    142  CD1      -21.1260   13.4760    9.7440 C.3   350  LEU350      0.0001
    143  CD2      -21.5530   15.2680    7.9910 C.3   350  LEU350      0.0001
    144  N        -16.8320    9.4270    9.9070 N.3   353  MET353     -0.1230
    145  CA       -17.7640    8.9610   10.9300 C.3   353  MET353      0.1702
    146  C        -18.8550    8.0940   10.3180 C.2   353  MET353      0.2592
    147  O        -19.1610    7.0170   10.8310 O.2   353  MET353     -0.2718
    148  CB       -18.4060   10.1510   11.6650 C.3   353  MET353      0.0401
    149  CG       -17.4350   11.0330   12.4220 C.3   353  MET353      0.0596
    150  SD       -16.4810   10.0690   13.6070 S.3   353  MET353     -0.1393
    151  CE       -17.7820    9.2730   14.5610 C.3   353  MET353      0.0692
    152  N        -19.4830    8.5720    9.2340 N.am  354  TYR354     -0.1976
    153  CA       -20.5280    7.7920    8.5660 C.3   354  TYR354      0.1639
    154  C        -20.0130    6.4200    8.1620 C.2   354  TYR354      0.2290
    155  O        -20.7090    5.4040    8.3240 O.2   354  TYR354     -0.2864
    156  CB       -21.0180    8.5110    7.3100 C.3   354  TYR354      0.0560
    157  CG       -21.9150    9.7150    7.4950 C.ar  354  TYR354     -0.0198
    158  CD1      -22.7960    9.8220    8.5770 C.ar  354  TYR354     -0.0009
    159  CD2      -21.9010   10.7350    6.5520 C.ar  354  TYR354     -0.0009
    160  CE1      -23.6320   10.9310    8.7050 C.ar  354  TYR354      0.0417
    161  CE2      -22.7260   11.8290    6.6640 C.ar  354  TYR354      0.0417
    162  CZ       -23.5830   11.9340    7.7350 C.ar  354  TYR354      0.1957
    163  OH       -24.3900   13.0580    7.8180 O.3   354  TYR354     -0.2866
    164  N        -19.4300    4.1070   11.1390 N.3   357  ILE357     -0.1245
    165  CA       -20.6980    3.6560   11.6990 C.3   357  ILE357      0.1561
    166  C        -21.2940    2.5390   10.8290 C.2   357  ILE357      0.2260
    167  O        -21.7180    1.4930   11.3360 O.2   357  ILE357     -0.2867
    168  CB       -21.6600    4.8530   11.8540 C.3   357  ILE357      0.0252
    169  CG1      -21.1480    5.8190   12.9450 C.3   357  ILE357      0.0019
    170  CG2      -23.0400    4.3710   12.2110 C.3   357  ILE357      0.0019
    171  CD1      -21.9140    7.2090   12.9500 C.3   357  ILE357      0.0001
    172  N        -22.0490   -1.5220   11.6430 N.3   361  HIS361     -0.1241
    173  CA       -23.3560   -2.1300   11.4330 C.3   361  HIS361      0.1621
    174  C        -23.2960   -3.3030   10.4570 C.2   361  HIS361      0.2264
    175  O        -24.0580   -4.2620   10.6220 O.2   361  HIS361     -0.2867
    176  CB       -24.3670   -1.0790   10.9420 C.3   361  HIS361      0.0745
    177  CG       -24.6640   -0.0230   11.9640 C.ar  361  HIS361      0.0817
    178  ND1      -25.2870    1.1650   11.6510 N.ar  361  HIS361     -0.2268
    179  CD2      -24.3790    0.0370   13.2900 C.ar  361  HIS361      0.1154
    180  CE1      -25.4060    1.8990   12.7470 C.ar  361  HIS361      0.1986
    181  NE2      -24.8620    1.2410   13.7580 N.ar  361  HIS361     -0.2212
@<TRIPOS>BOND
     1     1     2    1
     2     2     3    1
     3     2     5    1
     4     3     4    2
     5     5     6    1
     6   159   161   ar
     7   159   157   ar
     8   161   162   ar
     9     6     7   ar
    10     6     8   ar
    11   156   157    1
    12   156   153    1
    13   157   158   ar
    14     7     9   ar
    15   162   163    1
    16   162   160   ar
    17     8    10   ar
    18   143   141    1
    19   138   139    2
    20   138   137    1
    21   154   155    2
    22   154   153    1
    23   141   140    1
    24   141   142    1
    25   140   137    1
    26   153   152    1
    27   158   160   ar
    28   136   137    1
    29     9    11   ar
    30   152   146   am
    31    10    11   ar
    32    11    12    1
    33   144   145    1
    34   146   147    2
    35   146   145    1
    36    31    30    1
    37   174   175    2
    38   174   173    1
    39   166   167    2
    40   166   165    1
    41   145   148    1
    42   176   173    1
    43   176   177    1
    44    30    27    1
    45   164   165    1
    46   173   172    1
    47    29    28    2
    48   178   177   ar
    49   178   180   ar
    50   148   149    1
    51   165   168    1
    52   168   170    1
    53   168   169    1
    54   177   179   ar
    55    28    27    1
    56    27    26    1
    57   149   150    1
    58   180   181   ar
    59   169   171    1
    60    16    15    2
    61   179   181   ar
    62    15    14    1
    63    26    20   am
    64   150   151    1
    65    17    14    1
    66    96    97    1
    67    14    13    1
    68   110   111    1
    69    20    21    2
    70    20    19    1
    71   116   115    1
    72    18    19    1
    73   111   114    1
    74   111   112    1
    75    97    98    1
    76    97   100    1
    77   114   115    1
    78    98    99    2
    79    19    22    1
    80   117   115    1
    81    59    57    1
    82   102   104   ar
    83   102   101   ar
    84   104   105   ar
    85   101   100    1
    86   101   103   ar
    87    22    24    1
    88    22    23    1
    89   105   107   ar
    90   105   103   ar
    91   107   109   ar
    92   112   113    2
    93   112   118   am
    94   103   106   ar
    95   109   108   ar
    96   106   108   ar
    97   118   119    1
    98    58    57    1
    99    57    56    1
   100    23    25    1
   101    79    77   ar
   102    43    41    1
   103   128   129    1
   104    56    53    1
   105   120   119    1
   106   120   121    2
   107   119   122    1
   108    53    52    1
   109    53    54    1
   110   134   133    2
   111    77    78   ar
   112    77    76    1
   113    41    42    1
   114    41    38    1
   115   122   123    1
   116    60    54   am
   117    60    61    1
   118    64    65    1
   119    64    61    1
   120   125   123   ar
   121   125   127   ar
   122   129   130    1
   123   129   132    1
   124   133   135   am
   125   133   132    1
   126    54    55    2
   127    76    75    1
   128   123   124   ar
   129    65    67   ar
   130    65    66   ar
   131    61    62    1
   132    67    69   ar
   133    38    37    1
   134    38    39    1
   135   127   126   ar
   136   130   131    2
   137    75    72    1
   138    71    62   am
   139    71    72    1
   140    66    68   ar
   141    40    39    2
   142   124   126   ar
   143    69    70   ar
   144    62    63    2
   145    39    44   am
   146    72    73    1
   147    68    70   ar
   148    33    32    1
   149    33    36    1
   150    33    34    1
   151    35    34    2
   152    73    74    2
   153    44    45    1
   154    51    49    1
   155    87    86    1
   156    45    46    1
   157    45    48    1
   158    49    48    1
   159    49    50    1
   160    46    47    2
   161    94    93    2
   162    86    85    1
   163    85    84    1
   164    84    81    1
   165    83    82    2
   166    93    95   am
   167    93    92    1
   168    82    81    1
   169    81    80    1
   170    91    90    2
   171    92    89    1
   172    90    89    1
   173    89    88    1
