@<TRIPOS>MOLECULE
tmp/5olvA03.pdb
 79 72 0 0 0
SMALL
GASTEIGER

@<TRIPOS>ATOM
      1  N        -12.1870   -4.6190   24.4730 N.3   189  LEU189     -0.1245
      2  CA       -10.8330   -5.0750   24.1850 C.3   189  LEU189      0.1561
      3  C        -10.4190   -6.2330   25.0890 C.2   189  LEU189      0.2260
      4  O         -9.7630   -7.1760   24.6300 O.2   189  LEU189     -0.2867
      5  CB        -9.8570   -3.9070   24.3150 C.3   189  LEU189      0.0270
      6  CG        -8.4470   -4.1400   23.7970 C.3   189  LEU189      0.0019
      7  CD1       -8.4940   -4.6330   22.3640 C.3   189  LEU189      0.0001
      8  CD2       -7.6470   -2.8530   23.9000 C.3   189  LEU189      0.0001
      9  N        -12.1820   -9.4970   23.9600 N.3   192  LEU192     -0.1231
     10  CA       -11.6200   -9.9600   22.6870 C.3   192  LEU192      0.1693
     11  C        -10.2580  -10.6120   22.8870 C.2   192  LEU192      0.2591
     12  O         -9.9640  -11.6480   22.2780 O.2   192  LEU192     -0.2718
     13  CB       -11.5290   -8.8010   21.6900 C.3   192  LEU192      0.0284
     14  CG       -12.8740   -8.2780   21.1260 C.3   192  LEU192      0.0019
     15  CD1      -12.6620   -7.0000   20.2460 C.3   192  LEU192      0.0001
     16  CD2      -13.6360   -9.3420   20.3230 C.3   192  LEU192      0.0001
     17  N         -9.4240  -10.0440   23.7690 N.am  193  LEU193     -0.1980
     18  CA        -8.1270  -10.6410   24.0540 C.3   193  LEU193      0.1596
     19  C         -8.2870  -11.9730   24.7730 C.2   193  LEU193      0.2287
     20  O         -7.5600  -12.9350   24.4940 O.2   193  LEU193     -0.2864
     21  CB        -7.2840   -9.6720   24.8850 C.3   193  LEU193      0.0297
     22  CG        -6.8410   -8.3920   24.1620 C.3   193  LEU193      0.0022
     23  CD1       -6.1290   -7.4440   25.1410 C.3   193  LEU193      0.0001
     24  CD2       -5.9370   -8.7280   22.9670 C.3   193  LEU193      0.0001
     25  N        -10.7940  -13.9540   24.3170 N.3   195  MET195     -0.1230
     26  CA       -11.1770  -14.8630   23.2310 C.3   195  MET195      0.1702
     27  C         -9.9590  -15.3260   22.4400 C.2   195  MET195      0.2592
     28  O         -9.8250  -16.5120   22.1100 O.2   195  MET195     -0.2718
     29  CB       -12.1460  -14.1820   22.2710 C.3   195  MET195      0.0401
     30  CG       -13.5170  -13.9610   22.7880 C.3   195  MET195      0.0596
     31  SD       -14.4270  -13.1680   21.4600 S.3   195  MET195     -0.1393
     32  CE       -15.4080  -12.0120   22.4350 C.3   195  MET195      0.0692
     33  N         -9.0920  -14.3840   22.0690 N.am  196  LEU196     -0.1980
     34  CA        -7.8590  -14.7620   21.3930 C.3   196  LEU196      0.1596
     35  C         -7.1260  -15.8360   22.1870 C.2   196  LEU196      0.2287
     36  O         -6.6610  -16.8350   21.6160 O.2   196  LEU196     -0.2864
     37  CB        -6.9740  -13.5300   21.1790 C.3   196  LEU196      0.0297
     38  CG        -5.5820  -13.8190   20.6080 C.3   196  LEU196      0.0022
     39  CD1       -5.7420  -14.4600   19.2390 C.3   196  LEU196      0.0001
     40  CD2       -4.7530  -12.5480   20.5030 C.3   196  LEU196      0.0001
     41  N         -8.8980  -19.3250   21.8670 N.3   199  TYR199     -0.1241
     42  CA        -8.6530  -19.9580   20.5710 C.3   199  TYR199      0.1605
     43  C         -7.2190  -20.4800   20.4510 C.2   199  TYR199      0.2264
     44  O         -6.9980  -21.5710   19.9190 O.2   199  TYR199     -0.2867
     45  CB        -9.0010  -18.9830   19.4380 C.3   199  TYR199      0.0534
     46  CG       -10.4960  -18.9220   19.2250 C.ar  199  TYR199     -0.0201
     47  CD1      -11.2010  -20.0680   18.8510 C.ar  199  TYR199     -0.0009
     48  CD2      -11.2220  -17.7460   19.4540 C.ar  199  TYR199     -0.0009
     49  CE1      -12.5780  -20.0440   18.6950 C.ar  199  TYR199      0.0417
     50  CE2      -12.6220  -17.7090   19.2900 C.ar  199  TYR199      0.0417
     51  CZ       -13.2870  -18.8690   18.9180 C.ar  199  TYR199      0.1957
     52  OH       -14.6650  -18.8740   18.7600 O.3   199  TYR199     -0.2866
     53  N        -13.7760  -18.6780   15.1770 N.3   319  ALA319     -0.1245
     54  CA       -12.7520  -17.6360   15.3040 C.3   319  ALA319      0.1562
     55  C        -12.8500  -16.5850   14.1950 C.2   319  ALA319      0.2260
     56  O        -12.5460  -15.4090   14.4420 O.2   319  ALA319     -0.2867
     57  CB       -11.3540  -18.2670   15.3060 C.3   319  ALA319      0.0290
     58  N        -15.5270  -14.1420   15.3610 N.3   322  ALA322     -0.1231
     59  CA       -14.9850  -13.2230   16.3670 C.3   322  ALA322      0.1694
     60  C        -14.0160  -12.2190   15.7390 C.2   322  ALA322      0.2592
     61  O        -14.0310  -11.0240   16.0800 O.2   322  ALA322     -0.2718
     62  CB       -14.2940  -14.0130   17.4870 C.3   322  ALA322      0.0304
     63  N        -13.1730  -12.6810   14.8170 N.am  323  GLY323     -0.1957
     64  CA       -12.2270  -11.7740   14.1860 C.3   323  GLY323      0.1869
     65  C        -12.9070  -10.7140   13.3380 C.2   323  GLY323      0.2309
     66  O        -12.4510   -9.5660   13.2870 O.2   323  GLY323     -0.2863
     67  N        -14.3030   -7.9400   15.5100 N.3   326  ALA326     -0.1245
     68  CA       -13.2360   -7.0070   15.8460 C.3   326  ALA326      0.1562
     69  C        -12.9170   -6.0760   14.6740 C.2   326  ALA326      0.2260
     70  O        -12.8090   -4.8550   14.8470 O.2   326  ALA326     -0.2867
     71  CB       -11.9980   -7.7890   16.2900 C.3   326  ALA326      0.0290
     72  N        -13.6080   -2.1330   15.3940 N.3   330  LEU330     -0.1245
     73  CA       -12.4070   -1.4200   15.8240 C.3   330  LEU330      0.1561
     74  C        -12.2620   -0.0360   15.2110 C.2   330  LEU330      0.2260
     75  O        -11.8390    0.8750   15.9450 O.2   330  LEU330     -0.2867
     76  CB       -11.1480   -2.2540   15.5350 C.3   330  LEU330      0.0270
     77  CG       -10.7260   -3.3170   16.5610 C.3   330  LEU330      0.0019
     78  CD1       -9.5570   -4.1600   15.9950 C.3   330  LEU330      0.0001
     79  CD2      -10.3170   -2.6430   17.8690 C.3   330  LEU330      0.0001
@<TRIPOS>BOND
     1    66    65    2
     2    65    64    1
     3    64    63    1
     4    55    56    2
     5    55    54    1
     6    69    70    2
     7    69    68    1
     8    63    60   am
     9    53    54    1
    10    74    73    1
    11    74    75    2
    12    54    57    1
    13    58    59    1
    14    72    73    1
    15    67    68    1
    16    76    73    1
    17    76    77    1
    18    60    61    2
    19    60    59    1
    20    68    71    1
    21    78    77    1
    22    59    62    1
    23    77    79    1
    24    49    47   ar
    25    49    51   ar
    26    52    51    1
    27    47    46   ar
    28    51    50   ar
    29    46    45    1
    30    46    48   ar
    31    39    38    1
    32    50    48   ar
    33    45    42    1
    34    44    43    2
    35    15    14    1
    36    16    14    1
    37    43    42    1
    38    40    38    1
    39    42    41    1
    40    38    37    1
    41    14    13    1
    42    37    34    1
    43    34    33    1
    44    34    35    1
    45    31    32    1
    46    31    30    1
    47    36    35    2
    48    13    10    1
    49    33    27   am
    50    28    27    2
    51    29    30    1
    52    29    26    1
    53    12    11    2
    54     7     6    1
    55    27    26    1
    56    10    11    1
    57    10     9    1
    58    11    17   am
    59    24    22    1
    60    26    25    1
    61    17    18    1
    62     6     8    1
    63     6     5    1
    64    18    19    1
    65    18    21    1
    66    22    21    1
    67    22    23    1
    68     2     5    1
    69     2     1    1
    70     2     3    1
    71    20    19    2
    72     4     3    2
