@<TRIPOS>MOLECULE
tmp/5olzA01.pdb
 79 73 0 0 0
SMALL
GASTEIGER

@<TRIPOS>ATOM
      1  N        -28.0050    3.7260    2.6780 N.3    14  VAL14      -0.1245
      2  CA       -27.1180    2.6010    2.9480 C.3    14  VAL14       0.1561
      3  C        -27.5010    1.9210    4.2560 C.2    14  VAL14       0.2260
      4  O        -27.5430    0.6870    4.3390 O.2    14  VAL14      -0.2867
      5  CB       -25.6530    3.0790    2.9500 C.3    14  VAL14       0.0252
      6  CG1      -24.7190    1.9890    3.4690 C.3    14  VAL14       0.0019
      7  CG2      -25.2520    3.5210    1.5350 C.3    14  VAL14       0.0019
      8  N        -30.5810   -0.2470    3.6880 N.3    17  ALA17      -0.1231
      9  CA       -30.2260   -1.4660    2.9680 C.3    17  ALA17       0.1694
     10  C        -29.5600   -2.4800    3.8940 C.2    17  ALA17       0.2591
     11  O        -29.8610   -3.6780    3.8390 O.2    17  ALA17      -0.2718
     12  CB       -29.3110   -1.1270    1.7910 C.3    17  ALA17       0.0304
     13  N        -28.6550   -2.0190    4.7530 N.am   18  ILE18      -0.1980
     14  CA       -28.0010   -2.9280    5.6910 C.3    18  ILE18       0.1595
     15  C        -29.0200   -3.5340    6.6530 C.2    18  ILE18       0.2287
     16  O        -28.9660   -4.7320    6.9600 O.2    18  ILE18      -0.2864
     17  CB       -26.8780   -2.1940    6.4400 C.3    18  ILE18       0.0276
     18  CG1      -25.7410   -1.8580    5.4760 C.3    18  ILE18       0.0022
     19  CG2      -26.3660   -3.0300    7.6140 C.3    18  ILE18       0.0022
     20  CD1      -24.7540   -0.8840    6.0600 C.3    18  ILE18       0.0001
     21  N        -30.9290   -6.4290    5.1240 N.3    21  LEU21      -0.1245
     22  CA       -30.1040   -7.6260    4.9870 C.3    21  LEU21       0.1561
     23  C        -29.8090   -8.2620    6.3410 C.2    21  LEU21       0.2260
     24  O        -29.7370   -9.4920    6.4510 O.2    21  LEU21      -0.2867
     25  CB       -28.8010   -7.2710    4.2760 C.3    21  LEU21       0.0270
     26  CG       -28.9010   -6.9120    2.7970 C.3    21  LEU21       0.0019
     27  CD1      -27.5620   -6.3650    2.3110 C.3    21  LEU21       0.0001
     28  CD2      -29.3240   -8.1320    1.9870 C.3    21  LEU21       0.0001
     29  N        -21.4370    2.5640    9.3320 N.3   357  VAL357     -0.1245
     30  CA       -21.9230    1.6120    8.3340 C.3   357  VAL357      0.1561
     31  C        -21.1560    0.3000    8.4300 C.2   357  VAL357      0.2260
     32  O        -21.7410   -0.7890    8.3850 O.2   357  VAL357     -0.2867
     33  CB       -21.8080    2.2310    6.9270 C.3   357  VAL357      0.0252
     34  CG1      -21.9050    1.1660    5.8540 C.3   357  VAL357      0.0019
     35  CG2      -22.8680    3.3030    6.7210 C.3   357  VAL357      0.0019
     36  N        -22.5480   -3.4150    9.1530 N.3   361  THR361     -0.1218
     37  CA       -22.4070   -4.4970    8.1810 C.3   361  THR361      0.1862
     38  C        -22.0460   -5.8150    8.8600 C.2   361  THR361      0.2287
     39  O        -22.3610   -6.8890    8.3370 O.2   361  THR361     -0.2866
     40  CB       -21.3550   -4.1160    7.1320 C.3   361  THR361      0.1770
     41  OG1      -21.7590   -2.9160    6.4580 O.3   361  THR361     -0.2211
     42  CG2      -21.1770   -5.2220    6.1040 C.3   361  THR361      0.0375
     43  N        -24.6400   -8.2940    9.1030 N.3   364  VAL364     -0.1231
     44  CA       -25.0390   -8.9620    7.8690 C.3   364  VAL364      0.1692
     45  C        -24.1960  -10.2150    7.6290 C.2   364  VAL364      0.2591
     46  O        -24.6650  -11.1740    7.0070 O.2   364  VAL364     -0.2718
     47  CB       -24.9300   -8.0020    6.6630 C.3   364  VAL364      0.0266
     48  CG1      -25.3030   -8.7070    5.3580 C.3   364  VAL364      0.0020
     49  CG2      -25.8030   -6.7740    6.8600 C.3   364  VAL364      0.0020
     50  N        -22.9550  -10.2350    8.1290 N.am  365  VAL365     -0.1980
     51  CA       -21.9770  -11.1770    7.5740 C.3   365  VAL365      0.1595
     52  C        -22.0990  -12.5950    8.1390 C.2   365  VAL365      0.2287
     53  O        -21.7670  -13.5580    7.4410 O.2   365  VAL365     -0.2864
     54  CB       -20.5410  -10.6540    7.7540 C.3   365  VAL365      0.0276
     55  CG1      -20.3460   -9.3560    6.9890 C.3   365  VAL365      0.0022
     56  CG2      -20.2030  -10.4870    9.2260 C.3   365  VAL365      0.0022
     57  N        -23.7020  -15.4900    6.1040 N.3   368  PHE368     -0.1241
     58  CA       -22.8770  -15.9250    4.9830 C.3   368  PHE368      0.1605
     59  C        -21.7530  -16.8400    5.4430 C.2   368  PHE368      0.2264
     60  O        -21.4150  -17.8090    4.7530 O.2   368  PHE368     -0.2867
     61  CB       -22.3160  -14.7160    4.2440 C.3   368  PHE368      0.0534
     62  CG       -23.3420  -13.9880    3.4600 C.ar  368  PHE368     -0.0203
     63  CD1      -23.6090  -14.3520    2.1490 C.ar  368  PHE368     -0.0042
     64  CD2      -24.0760  -12.9700    4.0400 C.ar  368  PHE368     -0.0042
     65  CE1      -24.5730  -13.6960    1.4190 C.ar  368  PHE368     -0.0003
     66  CE2      -25.0400  -12.3100    3.3200 C.ar  368  PHE368     -0.0003
     67  CZ       -25.2950  -12.6800    2.0030 C.ar  368  PHE368     -0.0000
     68  N        -21.3270  -20.6360    4.0760 N.3   372  TYR372     -0.1241
     69  CA       -20.1490  -21.0710    3.3400 C.3   372  TYR372      0.1605
     70  C        -19.3140  -22.0970    4.0930 C.2   372  TYR372      0.2264
     71  O        -18.5470  -22.8300    3.4580 O.2   372  TYR372     -0.2867
     72  CB       -19.2830  -19.8630    2.9770 C.3   372  TYR372      0.0534
     73  CG       -19.7490  -19.1540    1.7280 C.ar  372  TYR372     -0.0201
     74  CD1      -19.4760  -19.6810    0.4720 C.ar  372  TYR372     -0.0009
     75  CD2      -20.4640  -17.9650    1.8000 C.ar  372  TYR372     -0.0009
     76  CE1      -19.8990  -19.0450   -0.6790 C.ar  372  TYR372      0.0417
     77  CE2      -20.8920  -17.3180    0.6530 C.ar  372  TYR372      0.0417
     78  CZ       -20.6060  -17.8650   -0.5840 C.ar  372  TYR372      0.1957
     79  OH       -21.0260  -17.2360   -1.7340 O.3   372  TYR372     -0.2866
@<TRIPOS>BOND
     1    79    78    1
     2    76    78   ar
     3    76    74   ar
     4    78    77   ar
     5    74    73   ar
     6    77    75   ar
     7    65    67   ar
     8    65    63   ar
     9     7     5    1
    10    73    75   ar
    11    73    72    1
    12    12     9    1
    13    28    26    1
    14    67    66   ar
    15    63    62   ar
    16    27    26    1
    17     1     2    1
    18    26    25    1
    19     2     5    1
    20     2     3    1
    21     5     6    1
    22     9     8    1
    23     9    10    1
    24    72    69    1
    25    66    64   ar
    26    69    68    1
    27    69    70    1
    28    71    70    2
    29    62    64   ar
    30    62    61    1
    31    11    10    2
    32    10    13   am
    33    61    58    1
    34     3     4    2
    35    25    22    1
    36    13    14    1
    37    60    59    2
    38    58    59    1
    39    58    57    1
    40    22    21    1
    41    22    23    1
    42    48    47    1
    43    18    20    1
    44    18    17    1
    45    14    17    1
    46    14    15    1
    47    34    33    1
    48    42    40    1
    49    23    24    2
    50    17    19    1
    51    41    40    1
    52    15    16    2
    53    47    49    1
    54    47    44    1
    55    35    33    1
    56    33    30    1
    57    55    54    1
    58    46    45    2
    59    40    37    1
    60    53    52    2
    61    51    54    1
    62    51    50    1
    63    51    52    1
    64    45    44    1
    65    45    50   am
    66    54    56    1
    67    44    43    1
    68    37    38    1
    69    37    36    1
    70    30    31    1
    71    30    29    1
    72    39    38    2
    73    32    31    2
