@<TRIPOS>MOLECULE
tmp/5olzA19.pdb
 87 83 0 0 0
SMALL
GASTEIGER

@<TRIPOS>ATOM
      1  N        -24.9660   21.3040   25.5650 N.3   152  LYS152     -0.1245
      2  CA       -24.5560   22.3300   24.6150 C.3   152  LYS152      0.1561
      3  C        -25.7190   23.2800   24.3490 C.2   152  LYS152      0.2260
      4  O        -26.4810   23.1000   23.3920 O.2   152  LYS152     -0.2867
      5  CB       -24.0450   21.6960   23.3230 C.3   152  LYS152      0.0271
      6  CG       -22.7630   20.9020   23.5250 C.3   152  LYS152      0.0035
      7  CD       -22.0760   20.5960   22.2140 C.3   152  LYS152      0.0206
      8  CE       -20.7650   19.8740   22.4550 C.3   152  LYS152      0.1093
      9  NZ       -19.8970   20.6290   23.3960 N.3   152  LYS152     -0.1314
     10  N        -25.8970   25.1290   20.9440 N.3   155  LYS155     -0.1245
     11  CA       -26.3720   24.2420   19.8900 C.3   155  LYS155      0.1561
     12  C        -27.8710   23.9970   20.0210 C.2   155  LYS155      0.2260
     13  O        -28.5970   23.9770   19.0200 O.2   155  LYS155     -0.2867
     14  CB       -25.5980   22.9230   19.9330 C.3   155  LYS155      0.0271
     15  CG       -25.6550   22.1340   18.6390 C.3   155  LYS155      0.0035
     16  CD       -24.9650   20.7770   18.7550 C.3   155  LYS155      0.0206
     17  CE       -23.4520   20.9040   18.8270 C.3   155  LYS155      0.1093
     18  NZ       -22.7910   19.5880   18.6090 N.3   155  LYS155     -0.1314
     19  N        -27.1400   14.1720   19.5570 N.3   169  LEU169     -0.1245
     20  CA       -25.9610   13.6990   18.8490 C.3   169  LEU169      0.1561
     21  C        -25.1820   12.8120   19.8030 C.2   169  LEU169      0.2260
     22  O        -25.0560   13.1410   20.9860 O.2   169  LEU169     -0.2867
     23  CB       -25.0800   14.8670   18.3730 C.3   169  LEU169      0.0270
     24  CG       -25.7690   15.7980   17.3720 C.3   169  LEU169      0.0019
     25  CD1      -25.0160   17.1100   17.2350 C.3   169  LEU169      0.0001
     26  CD2      -25.8930   15.0950   16.0300 C.3   169  LEU169      0.0001
     27  N        -21.9830   11.9950   20.3810 N.3   171  GLU171     -0.1231
     28  CA       -20.8420   12.4950   21.1420 C.3   171  GLU171      0.1699
     29  C        -21.1950   13.6510   22.0660 C.2   171  GLU171      0.2592
     30  O        -20.3950   13.9780   22.9460 O.2   171  GLU171     -0.2718
     31  CB       -19.7140   12.9130   20.1930 C.3   171  GLU171      0.0402
     32  CG       -19.1120   11.7370   19.4490 C.3   171  GLU171      0.1161
     33  CD       -17.8970   12.1070   18.6220 C.2   171  GLU171      0.3649
     34  OE1      -17.2310   13.1180   18.9430 O.co2 171  GLU171     -0.2457
     35  OE2      -17.6110   11.3750   17.6510 O.co2 171  GLU171     -0.2457
     36  N        -22.3620   14.2730   21.9010 N.am  172  ASP172     -0.1974
     37  CA       -22.7530   15.3310   22.8220 C.3   172  ASP172      0.1709
     38  C        -23.3500   14.7990   24.1210 C.2   172  ASP172      0.2293
     39  O        -23.3670   15.5280   25.1180 O.2   172  ASP172     -0.2864
     40  CB       -23.7480   16.2840   22.1480 C.3   172  ASP172      0.1436
     41  CG       -23.0820   17.1990   21.1190 C.2   172  ASP172      0.3671
     42  OD1      -21.8550   17.0750   20.9200 O.co2 172  ASP172     -0.2456
     43  OD2      -23.7800   18.0480   20.5150 O.co2 172  ASP172     -0.2456
     44  N         -7.5390   17.3900   14.6440 N.3   345  SER345     -0.1202
     45  CA        -8.8670   17.6220   14.0880 C.3   345  SER345      0.2020
     46  C         -9.7150   16.3640   14.2130 C.2   345  SER345      0.2619
     47  O         -9.2290   15.2470   14.0190 O.2   345  SER345     -0.2717
     48  CB        -8.7730   18.0380   12.6180 C.3   345  SER345      0.2103
     49  OG        -8.4640   19.4140   12.4930 O.3   345  SER345     -0.2182
     50  N        -10.9890   16.5520   14.5550 N.am  346  HIS346     -0.1961
     51  CA       -11.9070   15.4270   14.6640 C.3   346  HIS346      0.1787
     52  C        -11.9590   14.6840   13.3360 C.2   346  HIS346      0.2620
     53  O        -11.8630   15.2950   12.2680 O.2   346  HIS346     -0.2715
     54  CB       -13.3020   15.9270   15.0470 C.3   346  HIS346      0.0785
     55  CG       -14.2070   14.8670   15.5960 C.ar  346  HIS346      0.0821
     56  ND1      -14.7640   13.8760   14.8130 N.ar  346  HIS346     -0.2267
     57  CD2      -14.6750   14.6620   16.8510 C.ar  346  HIS346      0.1154
     58  CE1      -15.5240   13.0990   15.5650 C.ar  346  HIS346      0.1986
     59  NE2      -15.4880   13.5550   16.8050 N.ar  346  HIS346     -0.2212
     60  N        -12.0720   13.3590   13.4050 N.am  347  ALA347     -0.1964
     61  CA       -12.3210   12.5820   12.2010 C.3   347  ALA347      0.1713
     62  C        -13.4980   13.1930   11.4440 C.2   347  ALA347      0.2458
     63  O        -14.5060   13.5620   12.0650 O.2   347  ALA347     -0.2730
     64  CB       -12.6170   11.1210   12.5550 C.3   347  ALA347      0.0333
     65  N        -13.4050   13.3420   10.1250 N.am  348  PRO348     -0.2716
     66  CA       -14.4680   14.0300    9.3860 C.3   348  PRO348      0.1536
     67  C        -15.7610   13.2280    9.3890 C.2   348  PRO348      0.2598
     68  O        -15.7850   12.0220    9.6420 O.2   348  PRO348     -0.2715
     69  CB       -13.8930   14.1700    7.9710 C.3   348  PRO348      0.0310
     70  CG       -12.8940   13.0830    7.8570 C.3   348  PRO348      0.0237
     71  CD       -12.3250   12.8720    9.2410 C.3   348  PRO348      0.0939
     72  N        -16.8570   13.9370    9.1080 N.am  349  LEU349     -0.1978
     73  CA       -18.1820   13.3380    9.2380 C.3   349  LEU349      0.1596
     74  C        -18.3700   12.1630    8.2820 C.2   349  LEU349      0.2287
     75  O        -19.0040   11.1630    8.6410 O.2   349  LEU349     -0.2864
     76  CB       -19.2620   14.3950    9.0050 C.3   349  LEU349      0.0297
     77  CG       -20.7130   13.9110    9.0790 C.3   349  LEU349      0.0022
     78  CD1      -21.0540   13.4260   10.4830 C.3   349  LEU349      0.0001
     79  CD2      -21.6680   15.0080    8.6310 C.3   349  LEU349      0.0001
     80  N        -16.8830    9.1660    9.9520 N.3   352  MET352     -0.1245
     81  CA       -17.7510    8.6740   11.0170 C.3   352  MET352      0.1570
     82  C        -18.8750    7.8270   10.4410 C.2   352  MET352      0.2261
     83  O        -19.1450    6.7200   10.9200 O.2   352  MET352     -0.2867
     84  CB       -18.3330    9.8400   11.8230 C.3   352  MET352      0.0387
     85  CG       -17.3090   10.7730   12.4450 C.3   352  MET352      0.0595
     86  SD       -16.1960    9.8990   13.5500 S.3   352  MET352     -0.1393
     87  CE       -17.3300    9.1290   14.7030 C.3   352  MET352      0.0692
@<TRIPOS>BOND
     1    70    69    1
     2    70    71    1
     3    69    66    1
     4    74    75    2
     5    74    73    1
     6    79    77    1
     7    76    77    1
     8    76    73    1
     9    77    78    1
    10    72    73    1
    11    72    67   am
    12    71    65    1
    13    66    67    1
    14    66    65    1
    15    67    68    2
    16    80    81    1
    17    65    62   am
    18    82    83    2
    19    82    81    1
    20    81    84    1
    21    62    63    2
    22    62    61    1
    23    84    85    1
    24    61    64    1
    25    61    60    1
    26    53    52    2
    27    85    86    1
    28    49    48    1
    29    48    45    1
    30    52    60   am
    31    52    51    1
    32    86    87    1
    33    47    46    2
    34    45    46    1
    35    45    44    1
    36    46    50   am
    37    50    51    1
    38    51    54    1
    39    56    58   ar
    40    56    55   ar
    41    54    55    1
    42    58    59   ar
    43    55    57   ar
    44    26    24    1
    45    59    57   ar
    46    25    24    1
    47    24    23    1
    48    35    33   ar
    49    23    20    1
    50    18    17    1
    51    33    34   ar
    52    33    32    1
    53    15    16    1
    54    15    14    1
    55    16    17    1
    56    20    19    1
    57    20    21    1
    58    13    12    2
    59    32    31    1
    60    21    22    2
    61    11    14    1
    62    11    12    1
    63    11    10    1
    64    31    28    1
    65    27    28    1
    66    43    41   ar
    67    42    41   ar
    68    41    40    1
    69    28    29    1
    70    36    29   am
    71    36    37    1
    72    29    30    2
    73    40    37    1
    74     7     8    1
    75     7     6    1
    76     8     9    1
    77    37    38    1
    78     5     6    1
    79     5     2    1
    80     4     3    2
    81    38    39    2
    82     3     2    1
    83     2     1    1
