@<TRIPOS>MOLECULE
tmp/5om1A18.pdb
 166 155 0 0 0
SMALL
GASTEIGER

@<TRIPOS>ATOM
      1  N         31.4740  180.4940   16.3260 N.3    62  ALA62      -0.1245
      2  CA        30.2400  179.7160   16.4100 C.3    62  ALA62       0.1562
      3  C         30.0370  178.8400   15.1770 C.2    62  ALA62       0.2260
      4  O         29.5880  177.6930   15.2940 O.2    62  ALA62      -0.2867
      5  CB        29.0410  180.6420   16.6150 C.3    62  ALA62       0.0290
      6  N         29.8300  174.9360   14.9690 N.3    66  ALA66      -0.1245
      7  CA        28.6730  174.2470   14.4040 C.3    66  ALA66       0.1562
      8  C         29.0940  173.2180   13.3610 C.2    66  ALA66       0.2260
      9  O         28.4980  172.1390   13.2680 O.2    66  ALA66      -0.2867
     10  CB        27.7020  175.2600   13.7950 C.3    66  ALA66       0.0290
     11  N         30.4680  170.1500   15.4370 N.3    69  ILE69      -0.1245
     12  CA        29.4710  169.3270   16.1120 C.3    69  ILE69       0.1561
     13  C         28.5470  168.5990   15.1500 C.2    69  ILE69       0.2260
     14  O         27.8170  167.6960   15.5750 O.2    69  ILE69      -0.2867
     15  CB        28.6180  170.1680   17.0850 C.3    69  ILE69       0.0252
     16  CG1       27.7970  171.2070   16.3220 C.3    69  ILE69       0.0019
     17  CG2       29.5000  170.8450   18.1200 C.3    69  ILE69       0.0019
     18  CD1       27.0200  172.1480   17.2270 C.3    69  ILE69       0.0001
     19  N         31.6110  173.7380   23.0670 N.3    83  ILE83      -0.1231
     20  CA        31.4750  174.1770   21.6820 C.3    83  ILE83       0.1692
     21  C         30.0220  174.1710   21.2330 C.2    83  ILE83       0.2591
     22  O         29.6630  174.8960   20.2990 O.2    83  ILE83      -0.2718
     23  CB        32.3220  173.3190   20.7250 C.3    83  ILE83       0.0266
     24  CG1       31.9260  171.8490   20.8150 C.3    83  ILE83       0.0019
     25  CG2       33.7950  173.4880   21.0120 C.3    83  ILE83       0.0020
     26  CD1       32.6930  170.9740   19.8590 C.3    83  ILE83       0.0001
     27  N         29.1730  173.3660   21.8730 N.am   84  ALA84      -0.1980
     28  CA        27.7550  173.3710   21.5410 C.3    84  ALA84       0.1597
     29  C         27.0430  174.5690   22.1580 C.2    84  ALA84       0.2287
     30  O         26.1360  175.1390   21.5420 O.2    84  ALA84      -0.2864
     31  CB        27.1050  172.0650   22.0000 C.3    84  ALA84       0.0319
     32  N         27.3490  179.2060   21.0680 N.3    87  VAL87      -0.1231
     33  CA        26.4470  180.0160   20.2510 C.3    87  VAL87       0.1692
     34  C         25.3340  180.6150   21.1050 C.2    87  VAL87       0.2591
     35  O         24.7890  181.6770   20.7770 O.2    87  VAL87      -0.2718
     36  CB        25.8770  179.1860   19.0830 C.3    87  VAL87       0.0266
     37  CG1       24.9110  178.1220   19.5950 C.3    87  VAL87       0.0020
     38  CG2       25.1830  180.0980   18.0720 C.3    87  VAL87       0.0020
     39  N         24.9820  179.9550   22.2120 N.am   88  LEU88      -0.1980
     40  CA        23.9730  180.4990   23.1140 C.3    88  LEU88       0.1596
     41  C         24.4550  181.7820   23.7780 C.2    88  LEU88       0.2287
     42  O         23.6490  182.6770   24.0540 O.2    88  LEU88      -0.2864
     43  CB        23.6040  179.4620   24.1750 C.3    88  LEU88       0.0297
     44  CG        23.0830  178.1170   23.6650 C.3    88  LEU88       0.0022
     45  CD1       22.9630  177.1220   24.8140 C.3    88  LEU88       0.0001
     46  CD2       21.7420  178.3060   22.9860 C.3    88  LEU88       0.0001
     47  N         24.0510  184.4750   20.9900 N.3    91  ALA91      -0.1245
     48  CA        22.6430  184.8120   20.8130 C.3    91  ALA91       0.1562
     49  C         22.1240  185.6350   21.9860 C.2    91  ALA91       0.2260
     50  O         21.3780  186.6020   21.7940 O.2    91  ALA91      -0.2867
     51  CB        21.8140  183.5390   20.6420 C.3    91  ALA91       0.0290
     52  N         24.7730  168.1370   19.3520 N.3   171  PHE171     -0.1227
     53  CA        24.1500  169.1600   20.1910 C.3   171  PHE171      0.1736
     54  C         23.0640  168.5690   21.0840 C.2   171  PHE171      0.2595
     55  O         23.0810  168.7580   22.3060 O.2   171  PHE171     -0.2718
     56  CB        23.5770  170.2780   19.3150 C.3   171  PHE171      0.0547
     57  CG        23.0480  171.4570   20.0930 C.ar  171  PHE171     -0.0202
     58  CD1       21.7620  171.4450   20.6190 C.ar  171  PHE171     -0.0042
     59  CD2       23.8300  172.5840   20.2810 C.ar  171  PHE171     -0.0042
     60  CE1       21.2740  172.5270   21.3300 C.ar  171  PHE171     -0.0003
     61  CE2       23.3470  173.6730   20.9870 C.ar  171  PHE171     -0.0003
     62  CZ        22.0660  173.6450   21.5110 C.ar  171  PHE171     -0.0000
     63  N         22.1040  167.8550   20.4920 N.am  172  GLU172     -0.1979
     64  CA        20.9750  167.3470   21.2650 C.3   172  GLU172      0.1602
     65  C         21.3450  166.1760   22.1650 C.2   172  GLU172      0.2287
     66  O         20.5170  165.7640   22.9830 O.2   172  GLU172     -0.2864
     67  CB        19.8270  166.9400   20.3330 C.3   172  GLU172      0.0415
     68  CG        19.2210  168.1060   19.5610 C.3   172  GLU172      0.1163
     69  CD        17.9240  167.7480   18.8450 C.2   172  GLU172      0.3649
     70  OE1       17.2770  166.7480   19.2210 O.co2 172  GLU172     -0.2457
     71  OE2       17.5490  168.4780   17.9040 O.co2 172  GLU172     -0.2457
     72  N         17.0160  169.2470   26.3560 N.3   177  MET177     -0.1245
     73  CA        15.9780  169.9570   25.6210 C.3   177  MET177      0.1570
     74  C         15.0760  170.7610   26.5520 C.2   177  MET177      0.2261
     75  O         14.5140  171.7790   26.1330 O.2   177  MET177     -0.2867
     76  CB        15.1580  168.9780   24.7810 C.3   177  MET177      0.0387
     77  CG        14.3500  169.6530   23.6830 C.3   177  MET177      0.0595
     78  SD        15.3910  170.5390   22.5010 S.3   177  MET177     -0.1393
     79  CE        16.0350  169.1800   21.5270 C.3   177  MET177      0.0692
     80  N         16.6920  173.9800   26.7340 N.3   180  MET180     -0.1245
     81  CA        16.5730  174.7390   25.4930 C.3   180  MET180      0.1570
     82  C         15.1910  175.3580   25.3260 C.2   180  MET180      0.2261
     83  O         15.0720  176.4530   24.7650 O.2   180  MET180     -0.2867
     84  CB        16.8970  173.8430   24.2980 C.3   180  MET180      0.0387
     85  CG        18.3780  173.5320   24.1490 C.3   180  MET180      0.0595
     86  SD        19.3610  175.0360   23.9690 S.3   180  MET180     -0.1393
     87  CE        18.7470  175.6420   22.3960 C.3   180  MET180      0.0692
     88  N         16.1370  178.5500   27.9430 N.3   184  ASN184     -0.1240
     89  CA        16.7280  179.3760   26.9000 C.3   184  ASN184      0.1653
     90  C         15.6580  180.0610   26.0550 C.2   184  ASN184      0.2266
     91  O         15.6820  181.2850   25.8920 O.2   184  ASN184     -0.2867
     92  CB        17.6620  178.5370   26.0250 C.3   184  ASN184      0.1155
     93  CG        18.4770  179.3880   25.0700 C.2   184  ASN184      0.2627
     94  OD1       18.1090  179.5640   23.9070 O.2   184  ASN184     -0.2716
     95  ND2       19.5830  179.9360   25.5630 N.am  184  ASN184     -0.0877
     96  N         15.7740  183.2700   14.1760 N.3   329  TRP329     -0.1241
     97  CA        16.0060  182.3260   15.2630 C.3   329  TRP329      0.1605
     98  C         14.7720  181.5270   15.6610 C.2   329  TRP329      0.2264
     99  O         14.9210  180.4370   16.2230 O.2   329  TRP329     -0.2867
    100  CB        16.5480  183.0570   16.4990 C.3   329  TRP329      0.0550
    101  CG        18.0050  183.4040   16.3890 C.ar  329  TRP329      0.0003
    102  CD1       18.5360  184.5980   16.0030 C.ar  329  TRP329      0.0946
    103  CD2       19.1150  182.5380   16.6600 C.ar  329  TRP329      0.0152
    104  NE1       19.9090  184.5330   16.0190 N.ar  329  TRP329     -0.2442
    105  CE2       20.2900  183.2790   16.4180 C.ar  329  TRP329      0.0810
    106  CE3       19.2290  181.2080   17.0780 C.ar  329  TRP329      0.0012
    107  CZ2       21.5640  182.7350   16.5850 C.ar  329  TRP329      0.0191
    108  CZ3       20.4960  180.6690   17.2440 C.ar  329  TRP329      0.0001
    109  CH2       21.6460  181.4310   16.9940 C.ar  329  TRP329      0.0015
    110  N         14.4270  177.5470   14.6500 N.3   332  LEU332     -0.1231
    111  CA        15.1770  176.6260   15.5020 C.3   332  LEU332      0.1693
    112  C         14.4510  176.3700   16.8180 C.2   332  LEU332      0.2592
    113  O         14.3890  175.2300   17.2920 O.2   332  LEU332     -0.2718
    114  CB        16.5760  177.1780   15.7780 C.3   332  LEU332      0.0284
    115  CG        17.7250  176.7570   14.8600 C.3   332  LEU332      0.0019
    116  CD1       18.9830  177.5370   15.2150 C.3   332  LEU332      0.0001
    117  CD2       17.9790  175.2580   14.9530 C.3   332  LEU332      0.0001
    118  N         13.8990  177.4210   17.4280 N.am  333  HIS333     -0.1976
    119  CA        13.2450  177.2510   18.7200 C.3   333  HIS333      0.1656
    120  C         11.9190  176.5160   18.5780 C.2   333  HIS333      0.2291
    121  O         11.5500  175.7170   19.4480 O.2   333  HIS333     -0.2864
    122  CB        13.0430  178.6100   19.3820 C.3   333  HIS333      0.0771
    123  CG        14.3130  179.2480   19.8510 C.ar  333  HIS333      0.0820
    124  ND1       15.0550  178.7450   20.8990 N.ar  333  HIS333     -0.2267
    125  CD2       14.9680  180.3530   19.4220 C.ar  333  HIS333      0.1154
    126  CE1       16.1160  179.5090   21.0910 C.ar  333  HIS333      0.1986
    127  NE2       16.0850  180.4940   20.2100 N.ar  333  HIS333     -0.2212
    128  N         12.6480  172.8400   18.2410 N.3   336  ASN336     -0.1240
    129  CA        12.9430  172.2580   19.5470 C.3   336  ASN336      0.1653
    130  C         11.6680  172.0390   20.3540 C.2   336  ASN336      0.2266
    131  O         11.5490  171.0450   21.0800 O.2   336  ASN336     -0.2867
    132  CB        13.9250  173.1460   20.3160 C.3   336  ASN336      0.1155
    133  CG        15.3490  173.0290   19.7970 C.2   336  ASN336      0.2627
    134  OD1       15.6910  172.0720   19.1060 O.2   336  ASN336     -0.2716
    135  ND2       16.1870  174.0040   20.1350 N.am  336  ASN336     -0.0877
    136  N         17.0530  170.6590   10.0210 N.3   353  MET353     -0.1245
    137  CA        17.9060  171.1820   11.0830 C.3   353  MET353      0.1570
    138  C         19.0170  172.0480   10.5040 C.2   353  MET353      0.2261
    139  O         19.2470  173.1720   10.9640 O.2   353  MET353     -0.2867
    140  CB        18.4960  170.0340   11.9040 C.3   353  MET353      0.0387
    141  CG        17.4720  169.0700   12.4790 C.3   353  MET353      0.0595
    142  SD        16.3120  169.8640   13.6070 S.3   353  MET353     -0.1393
    143  CE        17.4330  170.6880   14.7350 C.3   353  MET353      0.0692
    144  N         19.6250  176.0370   11.0700 N.3   357  ILE357     -0.1245
    145  CA        20.8840  176.5400   11.6130 C.3   357  ILE357      0.1561
    146  C         21.4850  177.5910   10.6850 C.2   357  ILE357      0.2260
    147  O         21.9580  178.6390   11.1380 O.2   357  ILE357     -0.2867
    148  CB        21.8590  175.3720   11.8590 C.3   357  ILE357      0.0252
    149  CG1       21.3760  174.4980   13.0220 C.3   357  ILE357      0.0019
    150  CG2       23.2650  175.8870   12.1290 C.3   357  ILE357      0.0019
    151  CD1       22.1620  173.2040   13.1840 C.3   357  ILE357      0.0001
    152  N         19.5980  180.8650   11.0600 N.3   360  ALA360     -0.1231
    153  CA        20.0120  181.6060   12.2450 C.3   360  ALA360      0.1694
    154  C         21.3500  182.2970   12.0160 C.2   360  ALA360      0.2592
    155  O         21.5330  183.4560   12.4060 O.2   360  ALA360     -0.2718
    156  CB        20.0860  180.6690   13.4490 C.3   360  ALA360      0.0304
    157  N         22.2900  181.6110   11.3600 N.am  361  HIS361     -0.1976
    158  CA        23.5940  182.2120   11.1000 C.3   361  HIS361      0.1656
    159  C         23.5100  183.3650   10.1030 C.2   361  HIS361      0.2291
    160  O         24.2940  184.3160   10.2030 O.2   361  HIS361     -0.2864
    161  CB        24.5730  181.1490   10.6030 C.3   361  HIS361      0.0771
    162  CG        24.9600  180.1530   11.6510 C.ar  361  HIS361      0.0820
    163  ND1       25.4710  178.9100   11.3450 N.ar  361  HIS361     -0.2267
    164  CD2       24.9150  180.2200   13.0030 C.ar  361  HIS361      0.1154
    165  CE1       25.7250  178.2550   12.4640 C.ar  361  HIS361      0.1986
    166  NE2       25.3960  179.0260   13.4840 N.ar  361  HIS361     -0.2212
@<TRIPOS>BOND
     1   136   137    1
     2   159   160    2
     3   159   158    1
     4   138   139    2
     5   138   137    1
     6   161   158    1
     7   161   162    1
     8   146   147    2
     9   146   145    1
    10   152   153    1
    11   144   145    1
    12   137   140    1
    13   158   157    1
    14   163   162   ar
    15   163   165   ar
    16   157   154   am
    17   145   148    1
    18   162   164   ar
    19   148   150    1
    20   148   149    1
    21   140   141    1
    22   154   153    1
    23   154   155    2
    24   153   156    1
    25   165   166   ar
    26   141   142    1
    27   164   166   ar
    28   149   151    1
    29     9     8    2
    30     8     7    1
    31   142   143    1
    32    10     7    1
    33    96    97    1
    34     7     6    1
    35   110   111    1
    36   115   117    1
    37   115   116    1
    38   115   114    1
    39    13    14    2
    40    13    12    1
    41     3     4    2
    42     3     2    1
    43    97    98    1
    44    97   100    1
    45    11    12    1
    46   111   114    1
    47   111   112    1
    48    98    99    2
    49   102   104   ar
    50   102   101   ar
    51   104   105   ar
    52    12    15    1
    53    16    15    1
    54    16    18    1
    55     1     2    1
    56   101   100    1
    57   101   103   ar
    58     2     5    1
    59   105   107   ar
    60   105   103   ar
    61   107   109   ar
    62   103   106   ar
    63   112   113    2
    64   112   118   am
    65   109   108   ar
    66   106   108   ar
    67    15    17    1
    68   118   119    1
    69    71    69   ar
    70    38    36    1
    71   128   129    1
    72   120   119    1
    73   120   121    2
    74   119   122    1
    75    69    70   ar
    76    69    68    1
    77    36    37    1
    78    36    33    1
    79   134   133    2
    80    56    57    1
    81    56    53    1
    82    52    53    1
    83   122   123    1
    84   125   123   ar
    85   125   127   ar
    86   129   132    1
    87   129   130    1
    88    68    67    1
    89   133   135   am
    90   133   132    1
    91   123   124   ar
    92    26    24    1
    93    57    59   ar
    94    57    58   ar
    95    53    54    1
    96   127   126   ar
    97    33    32    1
    98    33    34    1
    99    59    61   ar
   100    22    21    2
   101    67    64    1
   102   130   131    2
   103    63    54   am
   104    63    64    1
   105    58    60   ar
   106    51    48    1
   107    23    24    1
   108    23    25    1
   109    23    20    1
   110    35    34    2
   111    48    47    1
   112    48    49    1
   113   124   126   ar
   114    61    62   ar
   115    54    55    2
   116    34    39   am
   117    21    20    1
   118    21    27   am
   119    64    65    1
   120    60    62   ar
   121    79    78    1
   122    28    27    1
   123    28    31    1
   124    28    29    1
   125    30    29    2
   126    20    19    1
   127    50    49    2
   128    65    66    2
   129    39    40    1
   130    87    86    1
   131    78    77    1
   132    46    44    1
   133    40    41    1
   134    40    43    1
   135    44    43    1
   136    44    45    1
   137    77    76    1
   138    41    42    2
   139    94    93    2
   140    86    85    1
   141    85    84    1
   142    84    81    1
   143    83    82    2
   144    76    73    1
   145    93    95   am
   146    93    92    1
   147    82    81    1
   148    81    80    1
   149    73    72    1
   150    73    74    1
   151    91    90    2
   152    92    89    1
   153    90    89    1
   154    75    74    2
   155    89    88    1
