@<TRIPOS>MOLECULE
tmp/5om2A00.pdb
 79 72 0 0 0
SMALL
GASTEIGER

@<TRIPOS>ATOM
      1  N          5.0380  -30.5610  -14.8730 N.3     9  VAL9       -0.1245
      2  CA         5.1550  -29.8810  -13.5740 C.3     9  VAL9        0.1561
      3  C          4.5950  -30.7550  -12.4620 C.2     9  VAL9        0.2260
      4  O          5.1960  -30.8720  -11.3870 O.2     9  VAL9       -0.2867
      5  CB         4.4890  -28.4820  -13.5950 C.3     9  VAL9        0.0252
      6  CG1        4.5000  -27.8550  -12.2380 C.3     9  VAL9        0.0019
      7  CG2        5.2310  -27.5430  -14.5350 C.3     9  VAL9        0.0019
      8  N         13.0820  -14.1310   -7.8190 N.3   220  GLN220     -0.1245
      9  CA        13.4030  -14.6780   -9.1320 C.3   220  GLN220      0.1566
     10  C         14.6460  -13.9740   -9.6460 C.2   220  GLN220      0.2260
     11  O         14.6710  -12.7400   -9.7270 O.2   220  GLN220     -0.2867
     12  CB        12.2390  -14.4940  -10.1090 C.3   220  GLN220      0.0367
     13  CG        12.5180  -15.0430  -11.5080 C.3   220  GLN220      0.0905
     14  CD        11.3130  -14.9830  -12.4140 C.2   220  GLN220      0.2608
     15  OE1       10.3020  -15.6480  -12.1840 O.2   220  GLN220     -0.2717
     16  NE2       11.4170  -14.1860  -13.4690 N.am  220  GLN220     -0.0878
     17  N         13.4100  -15.7800  -20.8790 N.3   226  ASN226     -0.1240
     18  CA        12.6590  -17.0210  -20.7300 C.3   226  ASN226      0.1653
     19  C         13.1620  -17.9160  -19.6050 C.2   226  ASN226      0.2266
     20  O         12.3430  -18.5440  -18.9330 O.2   226  ASN226     -0.2867
     21  CB        12.6590  -17.8070  -22.0470 C.3   226  ASN226      0.1155
     22  CG        11.8180  -17.1400  -23.1250 C.2   226  ASN226      0.2627
     23  OD1       10.7520  -16.5890  -22.8480 O.2   226  ASN226     -0.2716
     24  ND2       12.2990  -17.1850  -24.3610 N.am  226  ASN226     -0.0877
     25  N         14.9980  -18.6690  -15.9350 N.3   228  SER228     -0.1217
     26  CA        15.1960  -17.9890  -14.6610 C.3   228  SER228      0.1889
     27  C         15.3270  -19.0230  -13.5550 C.2   228  SER228      0.2288
     28  O         14.9790  -20.1950  -13.7180 O.2   228  SER228     -0.2866
     29  CB        14.0360  -17.0400  -14.3270 C.3   228  SER228      0.2089
     30  OG        12.8480  -17.7350  -14.0570 O.3   228  SER228     -0.2183
     31  N          1.9500  -27.7790   -8.3150 N.3   248  GLN248     -0.1245
     32  CA         1.7990  -26.8760   -9.4520 C.3   248  GLN248      0.1566
     33  C          0.9840  -25.6420   -9.0780 C.2   248  GLN248      0.2260
     34  O          1.3300  -24.5220   -9.4590 O.2   248  GLN248     -0.2867
     35  CB         1.1430  -27.6090  -10.6270 C.3   248  GLN248      0.0367
     36  CG         1.0160  -26.7070  -11.8390 C.3   248  GLN248      0.0905
     37  CD         0.4550  -27.3550  -13.0890 C.2   248  GLN248      0.2608
     38  OE1        0.2640  -26.6610  -14.0790 O.2   248  GLN248     -0.2717
     39  NE2        0.1660  -28.6490  -13.0530 N.am  248  GLN248     -0.0878
     40  N          3.2040  -23.2830   -6.9460 N.3   251  LEU251     -0.1231
     41  CA         4.2500  -22.6530   -7.7470 C.3   251  LEU251      0.1693
     42  C          3.6720  -21.5740   -8.6470 C.2   251  LEU251      0.2591
     43  O          4.2430  -20.4870   -8.7830 O.2   251  LEU251     -0.2718
     44  CB         4.9530  -23.7190   -8.5920 C.3   251  LEU251      0.0284
     45  CG         6.0820  -23.1960   -9.4730 C.3   251  LEU251      0.0019
     46  CD1        7.2170  -22.5930   -8.6450 C.3   251  LEU251      0.0001
     47  CD2        6.6060  -24.3320  -10.3650 C.3   251  LEU251      0.0001
     48  N          2.5460  -21.8710   -9.2940 N.am  252  ALA252     -0.1980
     49  CA         1.8940  -20.8740  -10.1270 C.3   252  ALA252      0.1597
     50  C          1.5030  -19.6570   -9.3050 C.2   252  ALA252      0.2287
     51  O          1.6690  -18.5220   -9.7580 O.2   252  ALA252     -0.2864
     52  CB         0.6750  -21.4920  -10.8090 C.3   252  ALA252      0.0319
     53  N          4.6070  -17.5300   -8.7410 N.3   255  PHE255     -0.1227
     54  CA         4.9120  -16.7450   -9.9340 C.3   255  PHE255      0.1736
     55  C          3.9180  -15.6060  -10.1300 C.2   255  PHE255      0.2595
     56  O          4.3160  -14.4750  -10.4270 O.2   255  PHE255     -0.2718
     57  CB         4.9320  -17.6310  -11.1790 C.3   255  PHE255      0.0547
     58  CG         6.2190  -18.3810  -11.3880 C.ar  255  PHE255     -0.0202
     59  CD1        7.4040  -17.7120  -11.6220 C.ar  255  PHE255     -0.0042
     60  CD2        6.2320  -19.7720  -11.3740 C.ar  255  PHE255     -0.0042
     61  CE1        8.5820  -18.4090  -11.8220 C.ar  255  PHE255     -0.0003
     62  CE2        7.4080  -20.4670  -11.5900 C.ar  255  PHE255     -0.0003
     63  CZ         8.5820  -19.7760  -11.8110 C.ar  255  PHE255     -0.0000
     64  N          2.6160  -15.8930  -10.0020 N.am  256  ASP256     -0.1974
     65  CA         1.5990  -14.8660  -10.2170 C.3   256  ASP256      0.1709
     66  C          1.6560  -13.7670   -9.1630 C.2   256  ASP256      0.2293
     67  O          1.2110  -12.6440   -9.4290 O.2   256  ASP256     -0.2864
     68  CB         0.2050  -15.5050  -10.2190 C.3   256  ASP256      0.1436
     69  CG        -0.0330  -16.4160  -11.4250 C.2   256  ASP256      0.3671
     70  OD1        0.6020  -16.1930  -12.4770 O.co2 256  ASP256     -0.2456
     71  OD2       -0.8580  -17.3570  -11.3210 O.co2 256  ASP256     -0.2456
     72  N          4.5070  -12.6010   -7.6940 N.3   258  LEU258     -0.1245
     73  CA         5.7440  -11.8320   -7.7320 C.3   258  LEU258      0.1561
     74  C          5.4720  -10.3990   -8.1830 C.2   258  LEU258      0.2260
     75  O          4.6500  -10.1530   -9.0680 O.2   258  LEU258     -0.2867
     76  CB         6.7240  -12.4580   -8.7180 C.3   258  LEU258      0.0270
     77  CG         7.3780  -13.7980   -8.3520 C.3   258  LEU258      0.0019
     78  CD1        8.0840  -14.3820   -9.5740 C.3   258  LEU258      0.0001
     79  CD2        8.3550  -13.6650   -7.2050 C.3   258  LEU258      0.0001
@<TRIPOS>BOND
     1    24    22   am
     2    22    23    2
     3    22    21    1
     4    21    18    1
     5    17    18    1
     6    18    19    1
     7    19    20    2
     8    25    26    1
     9     1     2    1
    10    26    29    1
    11    26    27    1
    12     7     5    1
    13    29    30    1
    14    38    37    2
    15    28    27    2
    16     5     2    1
    17     5     6    1
    18     2     3    1
    19    16    14   am
    20    37    39   am
    21    37    36    1
    22    70    69   ar
    23     3     4    2
    24    14    15    2
    25    14    13    1
    26    36    35    1
    27    61    63   ar
    28    61    59   ar
    29    63    62   ar
    30    59    58   ar
    31    62    60   ar
    32    13    12    1
    33    69    71   ar
    34    69    68    1
    35    58    60   ar
    36    58    57    1
    37    57    54    1
    38    52    49    1
    39    35    32    1
    40    56    55    2
    41    47    45    1
    42    68    65    1
    43    65    64    1
    44    65    66    1
    45    55    64   am
    46    55    54    1
    47    49    50    1
    48    49    48    1
    49    12     9    1
    50    54    53    1
    51    51    50    2
    52    11    10    2
    53    10     9    1
    54    78    77    1
    55    45    46    1
    56    45    44    1
    57    34    33    2
    58    32    33    1
    59    32    31    1
    60    67    66    2
    61    48    42   am
    62     9     8    1
    63    75    74    2
    64    43    42    2
    65    76    77    1
    66    76    73    1
    67    42    41    1
    68    44    41    1
    69    77    79    1
    70    74    73    1
    71    41    40    1
    72    73    72    1
