@<TRIPOS>MOLECULE
tmp/5om4A04.pdb
 90 83 0 0 0
SMALL
GASTEIGER

@<TRIPOS>ATOM
      1  N        -12.2680   -4.5790   24.3310 N.3   189  LEU189     -0.1245
      2  CA       -10.9060   -5.0190   24.0500 C.3   189  LEU189      0.1561
      3  C        -10.5130   -6.2090   24.9180 C.2   189  LEU189      0.2260
      4  O         -9.9760   -7.2040   24.4160 O.2   189  LEU189     -0.2867
      5  CB        -9.9400   -3.8530   24.2560 C.3   189  LEU189      0.0270
      6  CG        -8.5800   -3.9560   23.5800 C.3   189  LEU189      0.0019
      7  CD1       -8.7600   -4.2250   22.0890 C.3   189  LEU189      0.0001
      8  CD2       -7.8110   -2.6650   23.8010 C.3   189  LEU189      0.0001
      9  N        -12.2300   -9.4580   23.8370 N.3   192  LEU192     -0.1231
     10  CA       -11.6700   -9.8940   22.5600 C.3   192  LEU192      0.1693
     11  C        -10.2940  -10.5190   22.7430 C.2   192  LEU192      0.2591
     12  O         -9.9730  -11.5260   22.1040 O.2   192  LEU192     -0.2718
     13  CB       -11.5950   -8.7200   21.5860 C.3   192  LEU192      0.0284
     14  CG       -12.9430   -8.2660   21.0210 C.3   192  LEU192      0.0019
     15  CD1      -12.7620   -7.0140   20.1720 C.3   192  LEU192      0.0001
     16  CD2      -13.5970   -9.3840   20.2140 C.3   192  LEU192      0.0001
     17  N         -9.4640   -9.9330   23.6080 N.am  193  LEU193     -0.1980
     18  CA        -8.1650  -10.5310   23.8910 C.3   193  LEU193      0.1596
     19  C         -8.3180  -11.8630   24.6150 C.2   193  LEU193      0.2287
     20  O         -7.5610  -12.8010   24.3480 O.2   193  LEU193     -0.2864
     21  CB        -7.3040   -9.5610   24.7030 C.3   193  LEU193      0.0297
     22  CG        -6.9240   -8.2580   23.9850 C.3   193  LEU193      0.0022
     23  CD1       -6.1230   -7.3330   24.8940 C.3   193  LEU193      0.0001
     24  CD2       -6.1430   -8.5580   22.7070 C.3   193  LEU193      0.0001
     25  N        -10.8350  -13.8930   24.1340 N.3   195  MET195     -0.1230
     26  CA       -11.2210  -14.8090   23.0620 C.3   195  MET195      0.1702
     27  C        -10.0130  -15.2640   22.2640 C.2   195  MET195      0.2592
     28  O         -9.9040  -16.4420   21.9060 O.2   195  MET195     -0.2718
     29  CB       -12.2150  -14.1460   22.1140 C.3   195  MET195      0.0401
     30  CG       -13.5670  -13.8550   22.6840 C.3   195  MET195      0.0596
     31  SD       -14.5480  -13.0530   21.4030 S.3   195  MET195     -0.1393
     32  CE       -15.5440  -11.9620   22.4250 C.3   195  MET195      0.0692
     33  N         -9.1230  -14.3290   21.9290 N.am  196  LEU196     -0.1980
     34  CA        -7.8910  -14.7020   21.2470 C.3   196  LEU196      0.1596
     35  C         -7.1250  -15.7440   22.0470 C.2   196  LEU196      0.2287
     36  O         -6.6190  -16.7220   21.4860 O.2   196  LEU196     -0.2864
     37  CB        -7.0290  -13.4620   21.0060 C.3   196  LEU196      0.0297
     38  CG        -5.6550  -13.7080   20.3790 C.3   196  LEU196      0.0022
     39  CD1       -5.8060  -14.3620   19.0110 C.3   196  LEU196      0.0001
     40  CD2       -4.8850  -12.4050   20.2700 C.3   196  LEU196      0.0001
     41  N         -8.9520  -19.1640   21.7650 N.3   199  TYR199     -0.1241
     42  CA        -8.7300  -19.8200   20.4810 C.3   199  TYR199      0.1605
     43  C         -7.2970  -20.3180   20.3410 C.2   199  TYR199      0.2264
     44  O         -7.0720  -21.3850   19.7600 O.2   199  TYR199     -0.2867
     45  CB        -9.1010  -18.8820   19.3310 C.3   199  TYR199      0.0534
     46  CG       -10.5930  -18.8370   19.1060 C.ar  199  TYR199     -0.0201
     47  CD1      -11.2720  -19.9610   18.6560 C.ar  199  TYR199     -0.0009
     48  CD2      -11.3250  -17.6830   19.3600 C.ar  199  TYR199     -0.0009
     49  CE1      -12.6370  -19.9410   18.4640 C.ar  199  TYR199      0.0417
     50  CE2      -12.6970  -17.6500   19.1670 C.ar  199  TYR199      0.0417
     51  CZ       -13.3460  -18.7870   18.7220 C.ar  199  TYR199      0.1957
     52  OH       -14.7070  -18.7780   18.5310 O.3   199  TYR199     -0.2866
     53  N         -6.5170  -24.3060   19.4040 N.3   203  PHE203     -0.1241
     54  CA        -5.6700  -24.8060   18.3240 C.3   203  PHE203      0.1605
     55  C         -4.4250  -25.5030   18.8610 C.2   203  PHE203      0.2264
     56  O         -3.9790  -26.5010   18.2840 O.2   203  PHE203     -0.2867
     57  CB        -5.2980  -23.6580   17.3830 C.3   203  PHE203      0.0534
     58  CG        -6.4820  -23.0500   16.6860 C.ar  203  PHE203     -0.0203
     59  CD1       -7.4130  -23.8540   16.0490 C.ar  203  PHE203     -0.0042
     60  CD2       -6.6760  -21.6800   16.6850 C.ar  203  PHE203     -0.0042
     61  CE1       -8.5110  -23.3020   15.4150 C.ar  203  PHE203     -0.0003
     62  CE2       -7.7730  -21.1200   16.0530 C.ar  203  PHE203     -0.0003
     63  CZ        -8.6950  -21.9330   15.4220 C.ar  203  PHE203     -0.0000
     64  N        -13.7760  -18.6290   14.9600 N.3   318  ALA318     -0.1245
     65  CA       -12.7590  -17.5900   15.0970 C.3   318  ALA318      0.1562
     66  C        -12.8670  -16.5410   13.9940 C.2   318  ALA318      0.2260
     67  O        -12.5630  -15.3660   14.2290 O.2   318  ALA318     -0.2867
     68  CB       -11.3630  -18.2160   15.0950 C.3   318  ALA318      0.0290
     69  N        -15.5500  -14.1320   15.1650 N.3   321  ALA321     -0.1231
     70  CA       -15.0380  -13.2270   16.1900 C.3   321  ALA321      0.1694
     71  C        -14.0640  -12.2160   15.5970 C.2   321  ALA321      0.2592
     72  O        -14.0760  -11.0370   15.9710 O.2   321  ALA321     -0.2718
     73  CB       -14.3730  -14.0280   17.3080 C.3   321  ALA321      0.0304
     74  N        -13.2150  -12.6560   14.6670 N.am  322  GLY322     -0.1957
     75  CA       -12.2750  -11.7370   14.0490 C.3   322  GLY322      0.1869
     76  C        -12.9590  -10.6940   13.1870 C.2   322  GLY322      0.2309
     77  O        -12.5300   -9.5390   13.1400 O.2   322  GLY322     -0.2863
     78  N        -14.3110   -7.9760   15.3990 N.3   325  ALA325     -0.1245
     79  CA       -13.2600   -7.0330   15.7710 C.3   325  ALA325      0.1562
     80  C        -12.9130   -6.0990   14.6160 C.2   325  ALA325      0.2260
     81  O        -12.7450   -4.8920   14.8120 O.2   325  ALA325     -0.2867
     82  CB       -12.0240   -7.7960   16.2410 C.3   325  ALA325      0.0290
     83  N        -13.5480   -2.1730   15.3660 N.3   329  LEU329     -0.1245
     84  CA       -12.3440   -1.4520   15.7750 C.3   329  LEU329      0.1561
     85  C        -12.2240   -0.0540   15.1800 C.2   329  LEU329      0.2260
     86  O        -11.8080    0.8560   15.9200 O.2   329  LEU329     -0.2867
     87  CB       -11.0940   -2.2780   15.4460 C.3   329  LEU329      0.0270
     88  CG       -10.6820   -3.2860   16.5210 C.3   329  LEU329      0.0019
     89  CD1       -9.5370   -4.1740   16.0150 C.3   329  LEU329      0.0001
     90  CD2      -10.2910   -2.5780   17.8140 C.3   329  LEU329      0.0001
@<TRIPOS>BOND
     1    77    76    2
     2    76    75    1
     3    66    67    2
     4    66    65    1
     5    75    74    1
     6    80    81    2
     7    80    79    1
     8    74    71   am
     9    64    65    1
    10    68    65    1
    11    69    70    1
    12    85    84    1
    13    85    86    2
    14    83    84    1
    15    78    79    1
    16    61    63   ar
    17    61    59   ar
    18    63    62   ar
    19    87    84    1
    20    87    88    1
    21    71    72    2
    22    71    70    1
    23    79    82    1
    24    89    88    1
    25    59    58   ar
    26    62    60   ar
    27    70    73    1
    28    88    90    1
    29    60    58   ar
    30    58    57    1
    31    57    54    1
    32    56    55    2
    33    54    55    1
    34    54    53    1
    35    49    47   ar
    36    49    51   ar
    37    52    51    1
    38    47    46   ar
    39    51    50   ar
    40    39    38    1
    41    46    45    1
    42    46    48   ar
    43    50    48   ar
    44    45    42    1
    45    44    43    2
    46    15    14    1
    47    16    14    1
    48    40    38    1
    49    43    42    1
    50    38    37    1
    51    42    41    1
    52    37    34    1
    53    14    13    1
    54    34    33    1
    55    34    35    1
    56    31    32    1
    57    31    30    1
    58    36    35    2
    59    13    10    1
    60    28    27    2
    61    33    27   am
    62     7     6    1
    63    12    11    2
    64    29    30    1
    65    29    26    1
    66    27    26    1
    67    10    11    1
    68    10     9    1
    69    24    22    1
    70    11    17   am
    71    26    25    1
    72     6     8    1
    73     6     5    1
    74    17    18    1
    75    18    19    1
    76    18    21    1
    77    22    21    1
    78    22    23    1
    79     2     5    1
    80     2     1    1
    81     2     3    1
    82    20    19    2
    83     4     3    2
