@<TRIPOS>MOLECULE
tmp/5om4A16.pdb
 108 99 0 0 0
SMALL
GASTEIGER

@<TRIPOS>ATOM
      1  N        -27.2730   19.4470    3.7330 N.3     4  PRO4       -0.2102
      2  CA       -27.0160   18.2690    4.5770 C.3     4  PRO4        0.1504
      3  C        -27.8720   17.0700    4.2190 C.2     4  PRO4        0.2575
      4  O        -27.4530   15.9320    4.4560 O.2     4  PRO4       -0.2718
      5  CB       -27.3210   18.7810    5.9930 C.3     4  PRO4        0.0282
      6  CG       -27.2130   20.2780    5.8960 C.3     4  PRO4        0.0208
      7  CD       -27.7050   20.6120    4.5220 C.3     4  PRO4        0.0893
      8  N        -29.0540   17.2870    3.6370 N.am    5  ILE5       -0.1980
      9  CA       -29.9460   16.1770    3.3290 C.3     5  ILE5        0.1595
     10  C        -29.3940   15.2950    2.2110 C.2     5  ILE5        0.2287
     11  O        -29.8010   14.1340    2.0900 O.2     5  ILE5       -0.2864
     12  CB       -31.3480   16.7090    2.9710 C.3     5  ILE5        0.0276
     13  CG1      -32.3890   15.5890    3.0440 C.3     5  ILE5        0.0022
     14  CG2      -31.3420   17.3250    1.5890 C.3     5  ILE5        0.0022
     15  CD1      -33.7600   16.0000    2.5540 C.3     5  ILE5        0.0001
     16  N        -26.8860   13.0570    3.9040 N.3     8  SER8       -0.1217
     17  CA       -27.7220   12.3160    4.8380 C.3     8  SER8        0.1889
     18  C        -28.5420   11.2490    4.1220 C.2     8  SER8        0.2288
     19  O        -28.7260   10.1470    4.6480 O.2     8  SER8       -0.2866
     20  CB       -28.6320   13.2810    5.5970 C.3     8  SER8        0.2089
     21  OG       -29.4970   12.5860    6.4740 O.3     8  SER8       -0.2183
     22  N        -28.4810    7.3350    5.0740 N.3    12  ILE12      -0.1245
     23  CA       -29.7250    6.7040    5.5110 C.3    12  ILE12       0.1561
     24  C        -30.0980    5.5460    4.5900 C.2    12  ILE12       0.2260
     25  O        -30.5500    4.4920    5.0510 O.2    12  ILE12      -0.2867
     26  CB       -30.8570    7.7490    5.5900 C.3    12  ILE12       0.0252
     27  CG1      -30.6240    8.7250    6.7470 C.3    12  ILE12       0.0019
     28  CG2      -32.2170    7.0740    5.7190 C.3    12  ILE12       0.0019
     29  CD1      -31.5970    9.9000    6.7660 C.3    12  ILE12       0.0001
     30  N        -30.5280    1.6400    5.7360 N.3    16  LEU16      -0.1245
     31  CA       -31.7380    0.8440    5.5450 C.3    16  LEU16       0.1561
     32  C        -31.4490   -0.4200    4.7480 C.2    16  LEU16       0.2260
     33  O        -32.0110   -1.4820    5.0380 O.2    16  LEU16      -0.2867
     34  CB       -32.8160    1.6810    4.8570 C.3    16  LEU16       0.0270
     35  CG       -33.3470    2.8460    5.6980 C.3    16  LEU16       0.0019
     36  CD1      -34.3600    3.6600    4.9120 C.3    16  LEU16       0.0001
     37  CD2      -33.9550    2.3270    7.0040 C.3    16  LEU16       0.0001
     38  N        -30.0420    6.2860   12.5030 N.3    66  ILE66      -0.1245
     39  CA       -30.5690    7.2600   11.5500 C.3    66  ILE66       0.1561
     40  C        -31.1470    8.4610   12.2880 C.2    66  ILE66       0.2260
     41  O        -30.9190    9.6170   11.9060 O.2    66  ILE66      -0.2867
     42  CB       -31.6190    6.5940   10.6430 C.3    66  ILE66       0.0252
     43  CG1      -30.9620    5.5680    9.7170 C.3    66  ILE66       0.0019
     44  CG2      -32.3950    7.6420    9.8490 C.3    66  ILE66       0.0019
     45  CD1      -31.9720    4.6520    9.0360 C.3    66  ILE66       0.0001
     46  N        -28.4790   10.7590   13.7920 N.3    69  SER69      -0.1202
     47  CA       -27.7110   11.4990   12.7960 C.3    69  SER69       0.2020
     48  C        -28.3560   12.8370   12.4590 C.2    69  SER69       0.2619
     49  O        -27.6850   13.7120   11.9010 O.2    69  SER69      -0.2717
     50  CB       -27.5440   10.6640   11.5210 C.3    69  SER69       0.2103
     51  OG       -28.7590   10.6020   10.7890 O.3    69  SER69      -0.2182
     52  N        -29.6410   13.0140   12.7770 N.am   70  THR70      -0.1938
     53  CA       -30.3290   14.2590   12.4600 C.3    70  THR70       0.2028
     54  C        -30.0810   15.3550   13.4890 C.2    70  THR70       0.2642
     55  O        -30.3200   16.5290   13.1880 O.2    70  THR70      -0.2714
     56  CB       -31.8390   14.0280   12.3500 C.3    70  THR70       0.1808
     57  OG1      -32.3740   13.7140   13.6440 O.3    70  THR70      -0.2208
     58  CG2      -32.1350   12.8820   11.3940 C.3    70  THR70       0.0379
     59  N        -29.6230   15.0070   14.6890 N.am   71  GLY71      -0.1954
     60  CA       -29.4850   16.0040   15.7330 C.3    71  GLY71       0.1869
     61  C        -30.8000   16.5910   16.1950 C.2    71  GLY71       0.2309
     62  O        -30.8260   17.7210   16.6890 O.2    71  GLY71      -0.2863
     63  N        -26.0440   25.0610   20.9130 N.3   155  LYS155     -0.1245
     64  CA       -26.5410   24.1940   19.8520 C.3   155  LYS155      0.1561
     65  C        -28.0380   23.9520   20.0000 C.2   155  LYS155      0.2260
     66  O        -28.7730   23.9350   19.0060 O.2   155  LYS155     -0.2867
     67  CB       -25.7740   22.8720   19.8640 C.3   155  LYS155      0.0271
     68  CG       -26.0770   21.9590   18.7030 C.3   155  LYS155      0.0035
     69  CD       -25.2690   20.6690   18.7980 C.3   155  LYS155      0.0206
     70  CE       -23.7780   20.9420   18.7270 C.3   155  LYS155      0.1093
     71  NZ       -22.9870   19.6810   18.6630 N.3   155  LYS155     -0.1314
     72  N        -31.1700   25.3370   17.3090 N.3   159  GLN159     -0.1245
     73  CA       -32.0920   24.4260   16.6480 C.3   159  GLN159      0.1566
     74  C        -33.5120   24.5410   17.1850 C.2   159  GLN159      0.2260
     75  O        -34.3660   23.7220   16.8320 O.2   159  GLN159     -0.2867
     76  CB       -31.5980   22.9860   16.7780 C.3   159  GLN159      0.0367
     77  CG       -30.2030   22.7710   16.2330 C.3   159  GLN159      0.0905
     78  CD       -29.8120   21.3150   16.2370 C.2   159  GLN159      0.2608
     79  OE1      -30.6380   20.4450   16.5120 O.2   159  GLN159     -0.2717
     80  NE2      -28.5490   21.0350   15.9310 N.am  159  GLN159     -0.0878
     81  N        -27.2350   14.0470   19.5590 N.3   169  LEU169     -0.1245
     82  CA       -26.0400   13.5780   18.8800 C.3   169  LEU169      0.1561
     83  C        -25.2740   12.6870   19.8420 C.2   169  LEU169      0.2260
     84  O        -25.1810   12.9980   21.0320 O.2   169  LEU169     -0.2867
     85  CB       -25.1630   14.7530   18.4290 C.3   169  LEU169      0.0270
     86  CG       -25.7900   15.7050   17.4120 C.3   169  LEU169      0.0019
     87  CD1      -24.9200   16.9430   17.2510 C.3   169  LEU169      0.0001
     88  CD2      -25.9740   14.9930   16.0830 C.3   169  LEU169      0.0001
     89  N        -17.1150   13.9590    9.2070 N.3   349  LEU349     -0.1245
     90  CA       -18.4270   13.3290    9.3380 C.3   349  LEU349      0.1561
     91  C        -18.5690   12.1270    8.4120 C.2   349  LEU349      0.2260
     92  O        -19.1450   11.1060    8.8010 O.2   349  LEU349     -0.2867
     93  CB       -19.5360   14.3510    9.0670 C.3   349  LEU349      0.0270
     94  CG       -20.9780   13.8420    9.1680 C.3   349  LEU349      0.0019
     95  CD1      -21.2750   13.2960   10.5600 C.3   349  LEU349      0.0001
     96  CD2      -21.9720   14.9390    8.8000 C.3   349  LEU349      0.0001
     97  N        -19.6470    8.2920    9.4710 N.3   353  TYR353     -0.1241
     98  CA       -20.7060    7.5160    8.8280 C.3   353  TYR353      0.1605
     99  C        -20.1700    6.2030    8.2770 C.2   353  TYR353      0.2264
    100  O        -20.8190    5.1570    8.3990 O.2   353  TYR353     -0.2867
    101  CB       -21.3530    8.3220    7.6990 C.3   353  TYR353      0.0534
    102  CG       -22.2780    9.4280    8.1530 C.ar  353  TYR353     -0.0201
    103  CD1      -22.7610    9.4690    9.4550 C.ar  353  TYR353     -0.0009
    104  CD2      -22.6740   10.4320    7.2720 C.ar  353  TYR353     -0.0009
    105  CE1      -23.6080   10.4820    9.8700 C.ar  353  TYR353      0.0417
    106  CE2      -23.5230   11.4470    7.6740 C.ar  353  TYR353      0.0417
    107  CZ       -23.9870   11.4660    8.9780 C.ar  353  TYR353      0.1957
    108  OH       -24.8330   12.4760    9.3950 O.3   353  TYR353     -0.2866
@<TRIPOS>BOND
     1    14    12    1
     2    11    10    2
     3    10     9    1
     4    15    13    1
     5    12    13    1
     6    12     9    1
     7     9     8    1
     8     8     3   am
     9     1     7    1
    10     1     2    1
    11    16    17    1
    12    18    19    2
    13    18    17    1
    14     3     4    2
    15     3     2    1
    16     7     6    1
    17     2     5    1
    18    24    25    2
    19    24    23    1
    20    32    33    2
    21    32    31    1
    22    17    20    1
    23    34    31    1
    24    34    35    1
    25    36    35    1
    26    22    23    1
    27    23    26    1
    28    31    30    1
    29    26    28    1
    30    26    27    1
    31    20    21    1
    32    35    37    1
    33     6     5    1
    34    27    29    1
    35   104   106   ar
    36   104   102   ar
    37   106   107   ar
    38   101   102    1
    39   101    98    1
    40   102   103   ar
    41    99   100    2
    42    99    98    1
    43    91    92    2
    44    91    90    1
    45    96    94    1
    46    98    97    1
    47   107   108    1
    48   107   105   ar
    49    45    43    1
    50    93    94    1
    51    93    90    1
    52    94    95    1
    53    89    90    1
    54   103   105   ar
    55    43    42    1
    56    44    42    1
    57    42    39    1
    58    51    50    1
    59    58    56    1
    60    50    47    1
    61    39    40    1
    62    39    38    1
    63    49    48    2
    64    41    40    2
    65    56    53    1
    66    56    57    1
    67    48    52   am
    68    48    47    1
    69    53    52    1
    70    53    54    1
    71    47    46    1
    72    55    54    2
    73    54    59   am
    74    59    60    1
    75    60    61    1
    76    80    78   am
    77    88    86    1
    78    61    62    2
    79    77    78    1
    80    77    76    1
    81    78    79    2
    82    73    76    1
    83    73    74    1
    84    73    72    1
    85    75    74    2
    86    87    86    1
    87    86    85    1
    88    85    82    1
    89    71    70    1
    90    68    69    1
    91    68    67    1
    92    70    69    1
    93    82    81    1
    94    82    83    1
    95    66    65    2
    96    83    84    2
    97    64    67    1
    98    64    65    1
    99    64    63    1
