@<TRIPOS>MOLECULE
tmp/5om6C00.pdb
 92 90 0 0 0
SMALL
GASTEIGER

@<TRIPOS>ATOM
      1  N         11.1380  -13.8740   81.4480 N.3    22  ASP22      -0.1239
      2  CA        10.2980  -14.5260   82.4460 C.3    22  ASP22       0.1674
      3  C          9.8760  -15.9280   82.0370 C.2    22  ASP22       0.2266
      4  O          8.9290  -16.4720   82.5970 O.2    22  ASP22      -0.2867
      5  CB         9.0590  -13.6830   82.7660 C.3    22  ASP22       0.1410
      6  CG         9.4130  -12.3990   83.4640 C.2    22  ASP22       0.3668
      7  OD1       10.2520  -12.4610   84.3880 O.co2  22  ASP22      -0.2456
      8  OD2        8.8740  -11.3330   83.0850 O.co2  22  ASP22      -0.2456
      9  N          5.6640  -20.1300   93.8050 N.3   184  TYR184     -0.1227
     10  CA         5.2160  -18.7650   93.5450 C.3   184  TYR184      0.1736
     11  C          5.8110  -18.2450   92.2410 C.2   184  TYR184      0.2595
     12  O          7.0320  -18.2480   92.0630 O.2   184  TYR184     -0.2718
     13  CB         5.5720  -17.8540   94.7240 C.3   184  TYR184      0.0548
     14  CG         4.7590  -18.2370   95.9320 C.ar  184  TYR184     -0.0200
     15  CD1        3.4690  -17.7640   96.0820 C.ar  184  TYR184     -0.0009
     16  CD2        5.2540  -19.1240   96.8880 C.ar  184  TYR184     -0.0009
     17  CE1        2.6940  -18.1290   97.1570 C.ar  184  TYR184      0.0417
     18  CE2        4.4710  -19.4970   97.9800 C.ar  184  TYR184      0.0417
     19  CZ         3.1960  -18.9820   98.1010 C.ar  184  TYR184      0.1957
     20  OH         2.3890  -19.3170   99.1610 O.3   184  TYR184     -0.2866
     21  N          4.9380  -17.7950   91.3400 N.am  185  LEU185     -0.1966
     22  CA         5.3620  -17.2340   90.0710 C.3   185  LEU185      0.1728
     23  C          5.6430  -15.7460   90.1550 C.2   185  LEU185      0.2617
     24  O          6.4860  -15.2470   89.4040 O.2   185  LEU185     -0.2715
     25  CB         4.2990  -17.4700   89.0020 C.3   185  LEU185      0.0311
     26  CG         3.8190  -18.9050   88.7730 C.3   185  LEU185      0.0022
     27  CD1        2.8280  -18.9150   87.6290 C.3   185  LEU185      0.0001
     28  CD2        4.9790  -19.8810   88.5200 C.3   185  LEU185      0.0001
     29  N          4.9580  -15.0330   91.0450 N.am  186  SER186     -0.1936
     30  CA         5.0530  -13.5770   91.1380 C.3   186  SER186      0.2055
     31  C          4.4720  -13.1530   92.4810 C.2   186  SER186      0.2642
     32  O          4.1500  -13.9940   93.3230 O.2   186  SER186     -0.2714
     33  CB         4.3120  -12.9070   89.9810 C.3   186  SER186      0.2130
     34  OG         2.9220  -13.1680   90.0740 O.3   186  SER186     -0.2179
     35  N          4.3210  -11.8410   92.6840 N.am  187  LYS187     -0.1977
     36  CA         3.6310  -11.3790   93.8880 C.3   187  LYS187      0.1596
     37  C          2.1370  -11.6970   93.8790 C.2   187  LYS187      0.2287
     38  O          1.4680  -11.4510   94.8890 O.2   187  LYS187     -0.2864
     39  CB         3.8300   -9.8690   94.0710 C.3   187  LYS187      0.0298
     40  CG         5.1450   -9.4970   94.7310 C.3   187  LYS187      0.0038
     41  CD         5.7990   -8.3310   94.0120 C.3   187  LYS187      0.0206
     42  CE         6.7930   -7.6310   94.9110 C.3   187  LYS187      0.1093
     43  NZ         7.5800   -8.6430   95.6700 N.3   187  LYS187     -0.1314
     44  N         17.7450  -17.1960   94.1000 N.3   231  PRO231     -0.2102
     45  CA        17.7400  -15.7650   94.4130 C.3   231  PRO231      0.1504
     46  C         16.5780  -15.4140   95.3350 C.2   231  PRO231      0.2576
     47  O         15.4940  -16.0130   95.2820 O.2   231  PRO231     -0.2718
     48  CB        17.5730  -15.0970   93.0410 C.3   231  PRO231      0.0282
     49  CG        17.7320  -16.2120   92.0090 C.3   231  PRO231      0.0208
     50  CD        17.2690  -17.4570   92.7350 C.3   231  PRO231      0.0893
     51  N         16.8210  -14.4450   96.2060 N.am  232  ASP232     -0.1960
     52  CA        15.7230  -13.9050   97.0070 C.3   232  ASP232      0.1840
     53  C         14.6210  -13.3680   96.1000 C.2   232  ASP232      0.2622
     54  O         14.8350  -13.0550   94.9210 O.2   232  ASP232     -0.2715
     55  CB        16.2180  -12.7820   97.9170 C.3   232  ASP232      0.1450
     56  CG        17.1460  -13.2740   99.0130 C.2   232  ASP232      0.3671
     57  OD1       17.3430  -14.4960   99.1300 O.co2 232  ASP232     -0.2456
     58  OD2       17.6780  -12.4330   99.7670 O.co2 232  ASP232     -0.2456
     59  N         13.4260  -13.2270   96.6770 N.am  233  GLN233     -0.1963
     60  CA        12.3180  -12.6270   95.9530 C.3   233  GLN233      0.1733
     61  C         12.7120  -11.2670   95.3820 C.2   233  GLN233      0.2616
     62  O         13.3510  -10.4510   96.0510 O.2   233  GLN233     -0.2715
     63  CB        11.1010  -12.4790   96.8740 C.3   233  GLN233      0.0408
     64  CG         9.9250  -11.9200   96.1490 C.3   233  GLN233      0.0908
     65  CD         8.6700  -11.9060   96.9940 C.2   233  GLN233      0.2608
     66  OE1        8.7220  -11.7160   98.2070 O.2   233  GLN233     -0.2717
     67  NE2        7.5390  -12.0860   96.3490 N.am  233  GLN233     -0.0878
     68  N         12.3390  -11.0440   94.1260 N.am  234  ASP234     -0.1971
     69  CA        12.6250   -9.8100   93.3930 C.3   234  ASP234      0.1709
     70  C         14.1190   -9.5710   93.1750 C.2   234  ASP234      0.2293
     71  O         14.5250   -8.4310   92.9140 O.2   234  ASP234     -0.2864
     72  CB        11.9970   -8.5860   94.0780 C.3   234  ASP234      0.1436
     73  CG        10.5000   -8.5750   93.9770 C.2   234  ASP234      0.3671
     74  OD1        9.9660   -9.0880   92.9640 O.co2 234  ASP234     -0.2456
     75  OD2        9.8600   -8.0670   94.9220 O.co2 234  ASP234     -0.2456
     76  N         16.0760  -11.9800   91.1310 N.3   236  MET236     -0.1230
     77  CA        16.5530  -12.8250   90.0360 C.3   236  MET236      0.1702
     78  C         17.4340  -12.0370   89.0710 C.2   236  MET236      0.2592
     79  O         18.4850  -12.5220   88.6370 O.2   236  MET236     -0.2718
     80  CB        15.3770  -13.4310   89.2780 C.3   236  MET236      0.0401
     81  CG        15.7850  -14.1950   87.9940 C.3   236  MET236      0.0596
     82  SD        16.8240  -15.6420   88.2840 S.3   236  MET236     -0.1393
     83  CE        15.5430  -16.8370   88.7720 C.3   236  MET236      0.0692
     84  N         17.0080  -10.8200   88.7200 N.am  237  GLU237     -0.1979
     85  CA        17.7420  -10.0310   87.7410 C.3   237  GLU237      0.1602
     86  C         19.0790   -9.5680   88.2940 C.2   237  GLU237      0.2287
     87  O         20.0610   -9.4500   87.5450 O.2   237  GLU237     -0.2864
     88  CB        16.8910   -8.8450   87.2990 C.3   237  GLU237      0.0415
     89  CG        15.7270   -9.2330   86.4000 C.3   237  GLU237      0.1163
     90  CD        14.6060   -9.9240   87.1470 C.2   237  GLU237      0.3649
     91  OE1       14.5210   -9.7660   88.3820 O.co2 237  GLU237     -0.2457
     92  OE2       13.8170  -10.6370   86.4950 O.co2 237  GLU237     -0.2457
@<TRIPOS>BOND
     1     1     2    1
     2     3     2    1
     3     3     4    2
     4     2     5    1
     5     5     6    1
     6     8     6   ar
     7     6     7   ar
     8    89    90    1
     9    89    88    1
    10    92    90   ar
    11    90    91   ar
    12    88    85    1
    13    87    86    2
    14    27    26    1
    15    85    86    1
    16    85    84    1
    17    81    82    1
    18    81    80    1
    19    82    83    1
    20    28    26    1
    21    79    78    2
    22    84    78   am
    23    26    25    1
    24    25    22    1
    25    78    77    1
    26    80    77    1
    27    24    23    2
    28    33    34    1
    29    33    30    1
    30    77    76    1
    31    22    23    1
    32    22    21    1
    33    23    29   am
    34    29    30    1
    35    30    31    1
    36    21    11   am
    37    49    50    1
    38    49    48    1
    39    12    11    2
    40    11    10    1
    41    31    35   am
    42    31    32    2
    43    35    36    1
    44    50    44    1
    45    71    70    2
    46    74    73   ar
    47    48    45    1
    48    70    69    1
    49    69    72    1
    50    69    68    1
    51    10     9    1
    52    10    13    1
    53    37    36    1
    54    37    38    2
    55    36    39    1
    56    73    72    1
    57    73    75   ar
    58    41    40    1
    59    41    42    1
    60    39    40    1
    61    44    45    1
    62    68    61   am
    63    45    46    1
    64    13    14    1
    65    42    43    1
    66    54    53    2
    67    47    46    2
    68    46    51   am
    69    61    60    1
    70    61    62    2
    71    14    15   ar
    72    14    16   ar
    73    60    59    1
    74    60    63    1
    75    15    17   ar
    76    53    59   am
    77    53    52    1
    78    64    63    1
    79    64    65    1
    80    51    52    1
    81    67    65   am
    82    16    18   ar
    83    65    66    2
    84    52    55    1
    85    17    19   ar
    86    55    56    1
    87    18    19   ar
    88    19    20    1
    89    56    57   ar
    90    56    58   ar
