@<TRIPOS>MOLECULE
tmp/5om9B00.pdb
 157 146 0 0 0
SMALL
GASTEIGER

@<TRIPOS>ATOM
      1  N         67.7460  -52.4230   52.2350 N.3    38  ARG38      -0.1245
      2  CA        66.7810  -53.4370   51.8020 C.3    38  ARG38       0.1563
      3  C         67.1900  -54.6900   52.5510 C.2    38  ARG38       0.2260
      4  O         68.2080  -55.3250   52.2090 O.2    38  ARG38      -0.2867
      5  CB        66.7950  -53.6130   50.2760 C.3    38  ARG38       0.0307
      6  CG        65.7080  -54.5330   49.6960 C.3    38  ARG38       0.0489
      7  CD        64.5350  -53.7500   49.0980 C.3    38  ARG38       0.2205
      8  NE        64.2380  -52.5690   49.9310 N.pl3  38  ARG38      -0.0865
      9  CZ        64.1230  -51.3130   49.4920 C.cat  38  ARG38       0.5346
     10  NH1       64.2040  -51.0200   48.1950 N.pl3  38  ARG38       0.1354
     11  NH2       63.8920  -50.3430   50.3720 N.pl3  38  ARG38       0.1354
     12  N         58.9790  -42.7720   56.1400 N.3   153  HIS153     -0.1241
     13  CA        60.3880  -43.0300   56.4920 C.3   153  HIS153      0.1621
     14  C         61.1980  -41.7820   56.2150 C.2   153  HIS153      0.2264
     15  O         61.2660  -41.3020   55.0560 O.2   153  HIS153     -0.2867
     16  CB        60.9370  -44.2120   55.6700 C.3   153  HIS153      0.0745
     17  CG        60.3360  -45.5160   56.0650 C.ar  153  HIS153      0.0817
     18  ND1       60.0280  -46.4960   55.1570 N.ar  153  HIS153     -0.2268
     19  CD2       60.0040  -46.0150   57.2900 C.ar  153  HIS153      0.1154
     20  CE1       59.4800  -47.5260   55.7920 C.ar  153  HIS153      0.1986
     21  NE2       59.4890  -47.2780   57.0930 N.ar  153  HIS153     -0.2212
     22  N         63.8290  -40.9020   53.3380 N.3   156  GLU156     -0.1245
     23  CA        63.4710  -41.0470   51.9240 C.3   156  GLU156      0.1567
     24  C         63.0910  -39.6510   51.3660 C.2   156  GLU156      0.2260
     25  O         61.9810  -39.4390   50.9200 O.2   156  GLU156     -0.2867
     26  CB        62.3160  -42.0290   51.7700 C.3   156  GLU156      0.0388
     27  CG        62.8410  -43.4360   52.1590 C.3   156  GLU156      0.1160
     28  CD        61.7360  -44.4580   52.4590 C.2   156  GLU156      0.3649
     29  OE1       60.5560  -44.2790   52.1280 O.co2 156  GLU156     -0.2457
     30  OE2       62.1020  -45.5140   52.9890 O.co2 156  GLU156     -0.2457
     31  N         65.5440  -43.8350   59.6830 N.3   211  ARG211     -0.1245
     32  CA        64.3080  -44.3370   59.0490 C.3   211  ARG211      0.1563
     33  C         63.0470  -44.2650   59.9250 C.2   211  ARG211      0.2260
     34  O         61.9310  -43.9860   59.4360 O.2   211  ARG211     -0.2867
     35  CB        64.6010  -45.8170   58.6040 C.3   211  ARG211      0.0307
     36  CG        63.4310  -46.6940   58.1690 C.3   211  ARG211      0.0489
     37  CD        63.8980  -48.1290   57.9200 C.3   211  ARG211      0.2205
     38  NE        62.7320  -49.0290   57.7360 N.pl3 211  ARG211     -0.0865
     39  CZ        62.2360  -49.3150   56.5480 C.cat 211  ARG211      0.5346
     40  NH1       62.7750  -48.7360   55.4840 N.pl3 211  ARG211      0.1354
     41  NH2       61.1800  -50.1310   56.4300 N.pl3 211  ARG211      0.1354
     42  N         56.1130  -48.2580   59.1570 N.3   228  ASN228     -0.1225
     43  CA        55.5000  -49.0580   58.1390 C.3   228  ASN228      0.1785
     44  C         55.5320  -50.5600   58.4560 C.2   228  ASN228      0.2597
     45  O         55.3780  -51.3750   57.5520 O.2   228  ASN228     -0.2718
     46  CB        56.2010  -48.8540   56.7730 C.3   228  ASN228      0.1169
     47  CG        55.2310  -49.1850   55.6220 C.2   228  ASN228      0.2627
     48  OD1       54.0320  -49.0140   55.7900 O.2   228  ASN228     -0.2716
     49  ND2       55.7430  -49.5960   54.4820 N.am  228  ASN228     -0.0877
     50  N         55.7070  -50.8740   59.7460 N.am  229  ARG229     -0.1979
     51  CA        55.4780  -52.2230   60.3200 C.3   229  ARG229      0.1597
     52  C         54.5190  -52.1590   61.4770 C.2   229  ARG229      0.2287
     53  O         54.3150  -53.1760   62.1260 O.2   229  ARG229     -0.2864
     54  CB        56.8070  -52.8860   60.7770 C.3   229  ARG229      0.0334
     55  CG        57.8040  -53.1780   59.5890 C.3   229  ARG229      0.0492
     56  CD        57.2150  -54.0500   58.4690 C.3   229  ARG229      0.2205
     57  NE        58.2540  -54.3040   57.4730 N.pl3 229  ARG229     -0.0865
     58  CZ        58.5410  -53.4760   56.4710 C.cat 229  ARG229      0.5346
     59  NH1       57.8450  -52.3300   56.2680 N.pl3 229  ARG229      0.1354
     60  NH2       59.5190  -53.8280   55.6520 N.pl3 229  ARG229      0.1354
     61  N         63.2670  -52.5370   60.9070 N.3   248  THR248     -0.1218
     62  CA        61.8530  -52.9710   60.6750 C.3   248  THR248      0.1862
     63  C         61.1710  -53.3540   61.9840 C.2   248  THR248      0.2287
     64  O         60.2230  -54.1440   61.9850 O.2   248  THR248     -0.2866
     65  CB        61.8050  -54.1370   59.5850 C.3   248  THR248      0.1770
     66  OG1       62.7600  -55.1530   59.9010 O.3   248  THR248     -0.2211
     67  CG2       62.2230  -53.5860   58.1990 C.3   248  THR248      0.0375
     68  N         57.0820  -43.9160   49.1790 N.3   280  HIS280     -0.1226
     69  CA        58.4300  -44.2520   49.7310 C.3   280  HIS280      0.1752
     70  C         59.4480  -44.1220   48.6180 C.2   280  HIS280      0.2596
     71  O         59.0900  -43.9260   47.4530 O.2   280  HIS280     -0.2718
     72  CB        58.4170  -45.7370   50.0960 C.3   280  HIS280      0.0759
     73  CG        57.6100  -46.0390   51.3090 C.ar  280  HIS280      0.0818
     74  ND1       58.1850  -46.2540   52.5430 N.ar  280  HIS280     -0.2268
     75  CD2       56.2670  -46.1680   51.4800 C.ar  280  HIS280      0.1154
     76  CE1       57.2370  -46.5070   53.4340 C.ar  280  HIS280      0.1986
     77  NE2       56.0650  -46.4760   52.8210 N.ar  280  HIS280     -0.2212
     78  N         60.7290  -44.2340   48.9730 N.am  281  SER281     -0.1952
     79  CA        61.7500  -44.5640   48.0060 C.3   281  SER281      0.1924
     80  C         62.6960  -45.5300   48.7120 C.2   281  SER281      0.2314
     81  O         62.6190  -45.6400   49.9360 O.2   281  SER281     -0.2863
     82  CB        62.5230  -43.3140   47.5700 C.3   281  SER281      0.2116
     83  OG        63.2440  -42.7320   48.6180 O.3   281  SER281     -0.2180
     84  N         52.6540  -50.6990   44.0130 N.3   287  MET287     -0.1245
     85  CA        52.2070  -52.0000   44.5640 C.3   287  MET287      0.1570
     86  C         50.8500  -51.8170   45.1880 C.2   287  MET287      0.2261
     87  O         50.5020  -50.7280   45.6530 O.2   287  MET287     -0.2867
     88  CB        53.2250  -52.5000   45.5800 C.3   287  MET287      0.0387
     89  CG        54.5590  -52.9130   44.9170 C.3   287  MET287      0.0595
     90  SD        55.8370  -53.3550   46.0810 S.3   287  MET287     -0.1393
     91  CE        56.1930  -51.7980   46.8440 C.3   287  MET287      0.0692
     92  N         52.3860  -56.2120   47.0800 N.3   327  ILE327     -0.1245
     93  CA        53.6290  -55.9600   47.7950 C.3   327  ILE327      0.1561
     94  C         54.4090  -57.2930   47.9130 C.2   327  ILE327      0.2260
     95  O         55.5830  -57.3580   47.6510 O.2   327  ILE327     -0.2867
     96  CB        53.3390  -55.3970   49.1790 C.3   327  ILE327      0.0252
     97  CG1       52.8230  -53.9370   49.0700 C.3   327  ILE327      0.0019
     98  CG2       54.5840  -55.3690   49.9800 C.3   327  ILE327      0.0019
     99  CD1       52.1070  -53.4500   50.4190 C.3   327  ILE327      0.0001
    100  N         57.9250  -57.0610   45.8880 N.3   331  ILE331     -0.1231
    101  CA        59.1350  -56.7640   46.6680 C.3   331  ILE331      0.1692
    102  C         59.4710  -57.8660   47.6490 C.2   331  ILE331      0.2588
    103  O         60.5260  -58.5110   47.4770 O.2   331  ILE331     -0.2718
    104  CB        59.1670  -55.2680   47.2340 C.3   331  ILE331      0.0266
    105  CG1       60.5300  -54.9300   47.8290 C.3   331  ILE331      0.0019
    106  CG2       58.0780  -55.0560   48.2320 C.3   331  ILE331      0.0020
    107  CD1       60.6680  -53.4900   48.3130 C.3   331  ILE331      0.0001
    108  N         58.6090  -58.0940   48.6590 N.am  332  TYR332     -0.2029
    109  CA        58.8700  -59.1180   49.7010 C.3   332  TYR332      0.1325
    110  C         57.7280  -59.1500   50.6720 C.3   332  TYR332      0.2039
    111  O         56.8760  -58.1740   50.7030 O.3   332  TYR332     -0.2185
    112  CB        60.2270  -58.8980   50.4900 C.3   332  TYR332      0.0507
    113  CG        60.5840  -57.4600   50.9120 C.ar  332  TYR332     -0.0202
    114  CD1       59.6670  -56.6640   51.5240 C.ar  332  TYR332     -0.0009
    115  CD2       61.9010  -56.9330   50.7310 C.ar  332  TYR332     -0.0009
    116  CE1       59.9960  -55.3500   51.9350 C.ar  332  TYR332      0.0417
    117  CE2       62.2470  -55.6050   51.1400 C.ar  332  TYR332      0.0417
    118  CZ        61.2840  -54.8380   51.7340 C.ar  332  TYR332      0.1957
    119  OH        61.5420  -53.5370   52.1690 O.3   332  TYR332     -0.2866
    120  N         56.0300  -58.3200   53.9320 N.3   334  ALA334     -0.1245
    121  CA        56.1630  -57.2510   54.9380 C.3   334  ALA334      0.1562
    122  C         54.8510  -57.2290   55.7260 C.2   334  ALA334      0.2260
    123  O         53.7390  -57.1330   55.1280 O.2   334  ALA334     -0.2867
    124  CB        56.4210  -55.8970   54.2840 C.3   334  ALA334      0.0290
    125  N         52.1330  -53.2180   57.3530 N.3   337  SER337     -0.1217
    126  CA        52.3520  -52.0230   56.5140 C.3   337  SER337      0.1889
    127  C         51.0400  -51.3010   56.1590 C.2   337  SER337      0.2288
    128  O         49.9390  -51.8570   56.2740 O.2   337  SER337     -0.2866
    129  CB        53.1920  -52.3480   55.2740 C.3   337  SER337      0.2089
    130  OG        52.4250  -52.9990   54.3070 O.3   337  SER337     -0.2183
    131  N         50.9390  -48.3850   47.2900 N.3   352  THR352     -0.1218
    132  CA        52.1630  -47.8270   47.8410 C.3   352  THR352      0.1862
    133  C         53.1970  -47.6830   46.6950 C.2   352  THR352      0.2287
    134  O         53.3260  -48.5900   45.8100 O.2   352  THR352     -0.2866
    135  CB        52.6670  -48.6270   49.0910 C.3   352  THR352      0.1770
    136  OG1       53.8220  -47.9580   49.6520 O.3   352  THR352     -0.2211
    137  CG2       53.1060  -49.9820   48.6560 C.3   352  THR352      0.0375
    138  N         57.1710  -46.9190   45.3820 N.3   354  GLU354     -0.1245
    139  CA        58.5980  -46.7270   45.7030 C.3   354  GLU354      0.1567
    140  C         59.1610  -45.9460   44.5450 C.2   354  GLU354      0.2260
    141  O         59.1510  -46.4300   43.4270 O.2   354  GLU354     -0.2867
    142  CB        59.3290  -48.0530   45.8610 C.3   354  GLU354      0.0388
    143  CG        58.7350  -48.9980   47.0240 C.3   354  GLU354      0.1160
    144  CD        59.5870  -48.8740   48.2870 C.2   354  GLU354      0.3649
    145  OE1       60.2760  -47.8270   48.4030 O.co2 354  GLU354     -0.2457
    146  OE2       59.6080  -49.7660   49.1690 O.co2 354  GLU354     -0.2457
    147  N         68.2930  -43.7590   48.7700 N.3   363  PHE363     -0.1241
    148  CA        67.5360  -42.5940   49.1970 C.3   363  PHE363      0.1605
    149  C         68.3950  -41.3140   49.1490 C.2   363  PHE363      0.2264
    150  O         67.9010  -40.2440   49.4830 O.2   363  PHE363     -0.2867
    151  CB        66.8600  -42.7030   50.5740 C.3   363  PHE363      0.0534
    152  CG        67.0480  -43.9720   51.2320 C.ar  363  PHE363     -0.0203
    153  CD1       68.0860  -44.1260   52.0700 C.ar  363  PHE363     -0.0042
    154  CD2       66.1350  -45.0320   51.0220 C.ar  363  PHE363     -0.0042
    155  CE1       68.3300  -45.2920   52.6810 C.ar  363  PHE363     -0.0003
    156  CE2       66.3490  -46.2650   51.6650 C.ar  363  PHE363     -0.0003
    157  CZ        67.4710  -46.3790   52.4980 C.ar  363  PHE363     -0.0000
@<TRIPOS>BOND
     1   141   140    2
     2    84    85    1
     3   140   139    1
     4    85    86    1
     5    85    88    1
     6    89    88    1
     7    89    90    1
     8    86    87    2
     9   138   139    1
    10   139   142    1
    11   134   133    2
    12   142   143    1
    13   100   101    1
    14    90    91    1
    15   101   104    1
    16   101   102    1
    17   133   132    1
    18   143   144    1
    19    92    93    1
    20   104   105    1
    21   104   106    1
    22   131   132    1
    23    71    70    2
    24   103   102    2
    25    82    79    1
    26    82    83    1
    27   102   108   am
    28    95    94    2
    29    93    94    1
    30    93    96    1
    31   105   107    1
    32   132   135    1
    33    79    80    1
    34    79    78    1
    35    10     9    1
    36   144   145   ar
    37   144   146   ar
    38    70    78   am
    39    70    69    1
    40   137   135    1
    41   108   109    1
    42    80    81    2
    43   147   148    1
    44    97    96    1
    45    97    99    1
    46   135   136    1
    47     7     6    1
    48     7     8    1
    49   149   148    1
    50   149   150    2
    51    96    98    1
    52    68    69    1
    53   148   151    1
    54     9     8    2
    55     9    11    1
    56     6     5    1
    57   109   112    1
    58   109   110    1
    59    69    72    1
    60    72    73    1
    61     5     2    1
    62   112   113    1
    63   151   152    1
    64   110   111    1
    65   115   113   ar
    66   115   117   ar
    67   113   114   ar
    68    25    24    2
    69   154   152   ar
    70   154   156   ar
    71   117   118   ar
    72   152   153   ar
    73    73    75   ar
    74    73    74   ar
    75    24    23    1
    76    75    77   ar
    77   114   116   ar
    78   156   157   ar
    79   118   116   ar
    80   118   119    1
    81    26    23    1
    82    26    27    1
    83     2     1    1
    84     2     3    1
    85    23    22    1
    86   153   155   ar
    87    29    28   ar
    88    27    28    1
    89     4     3    2
    90    28    30   ar
    91   157   155   ar
    92    74    76   ar
    93    77    76   ar
    94   120   121    1
    95   124   121    1
    96   130   129    1
    97    49    47   am
    98   121   122    1
    99    15    14    2
   100   123   122    2
   101    18    20   ar
   102    18    17   ar
   103   129   126    1
   104    40    39    1
   105    47    48    2
   106    47    46    1
   107    60    58    1
   108    16    17    1
   109    16    13    1
   110    20    21   ar
   111    17    19   ar
   112    12    13    1
   113   127   128    2
   114   127   126    1
   115    14    13    1
   116    59    58    1
   117    41    39    1
   118    58    57    2
   119   126   125    1
   120    39    38    2
   121    46    43    1
   122    21    19   ar
   123    57    56    1
   124    45    44    2
   125    38    37    1
   126    37    36    1
   127    43    44    1
   128    43    42    1
   129    36    35    1
   130    67    65    1
   131    44    50   am
   132    56    55    1
   133    35    32    1
   134    32    31    1
   135    32    33    1
   136    34    33    2
   137    65    66    1
   138    65    62    1
   139    55    54    1
   140    50    51    1
   141    51    54    1
   142    51    52    1
   143    62    61    1
   144    62    63    1
   145    52    53    2
   146    63    64    2
