@<TRIPOS>MOLECULE
tmp/5omgA01.pdb
 184 173 0 0 0
SMALL
GASTEIGER

@<TRIPOS>ATOM
      1  N         -8.4830   -1.4970  -28.1310 N.3    27  VAL27      -0.1245
      2  CA        -7.1030   -1.1540  -28.4100 C.3    27  VAL27       0.1561
      3  C         -6.2770   -2.4220  -28.5580 C.2    27  VAL27       0.2260
      4  O         -5.3410   -2.4760  -29.3410 O.2    27  VAL27      -0.2867
      5  CB        -6.5310   -0.2390  -27.3060 C.3    27  VAL27       0.0252
      6  CG1       -5.0500   -0.0140  -27.5260 C.3    27  VAL27       0.0019
      7  CG2       -7.2430    1.1060  -27.3600 C.3    27  VAL27       0.0019
      8  N         -8.5120   -4.4260  -23.5300 N.3    35  VAL35      -0.1245
      9  CA        -8.4800   -3.0120  -23.2320 C.3    35  VAL35       0.1561
     10  C         -9.2400   -2.2550  -24.2950 C.2    35  VAL35       0.2260
     11  O         -9.0260   -2.5240  -25.4960 O.2    35  VAL35      -0.2867
     12  CB        -7.0430   -2.4890  -23.2040 C.3    35  VAL35       0.0252
     13  CG1       -7.0350   -1.0290  -22.8650 C.3    35  VAL35       0.0019
     14  CG2       -6.2020   -3.2900  -22.2170 C.3    35  VAL35       0.0019
     15  N         -7.9230    4.3170  -20.7120 N.3    48  ALA48      -0.1245
     16  CA        -7.8450    2.9850  -21.1710 C.3    48  ALA48       0.1562
     17  C         -8.5560    2.1340  -20.0720 C.2    48  ALA48       0.2260
     18  O         -8.2690    2.3150  -18.8390 O.2    48  ALA48      -0.2867
     19  CB        -6.3540    2.5820  -21.2790 C.3    48  ALA48       0.0290
     20  N         -9.4160   -1.6520  -18.8460 N.3    50  LYS50      -0.1245
     21  CA        -9.1030   -3.0700  -19.0030 C.3    50  LYS50       0.1561
     22  C        -10.1370   -3.9320  -18.3320 C.2    50  LYS50       0.2260
     23  O        -10.4100   -3.7920  -17.1430 O.2    50  LYS50      -0.2867
     24  CB        -7.7210   -3.4080  -18.4350 C.3    50  LYS50       0.0271
     25  CG        -7.2200   -4.8290  -18.6710 C.3    50  LYS50       0.0035
     26  CD        -5.8840   -5.0780  -17.9180 C.3    50  LYS50       0.0206
     27  CE        -5.3900   -6.4870  -18.2100 C.3    50  LYS50       0.1093
     28  NZ        -4.1660   -6.8300  -17.4080 N.3    50  LYS50      -0.1314
     29  N         -2.9720   -8.0310   -9.0170 N.3    68  GLU68      -0.1245
     30  CA        -3.0060   -6.9150   -9.9790 C.3    68  GLU68       0.1567
     31  C         -3.6710   -5.6590   -9.4310 C.2    68  GLU68       0.2260
     32  O         -3.0990   -4.5510   -9.5170 O.2    68  GLU68      -0.2867
     33  CB        -3.5900   -7.3080  -11.3700 C.3    68  GLU68       0.0388
     34  CG        -3.3770   -6.1030  -12.3070 C.3    68  GLU68       0.1160
     35  CD        -3.7700   -6.2730  -13.7840 C.2    68  GLU68       0.3649
     36  OE1       -3.2580   -5.5020  -14.6450 O.co2  68  GLU68      -0.2457
     37  OE2       -4.6610   -7.0800  -14.0970 O.co2  68  GLU68      -0.2457
     38  N         -1.7970   -2.1370   -8.6530 N.3    72  LEU72      -0.1245
     39  CA        -2.2070   -0.9230   -9.3740 C.3    72  LEU72       0.1561
     40  C         -2.7910    0.1030   -8.4080 C.2    72  LEU72       0.2260
     41  O         -2.5670    1.3000   -8.5660 O.2    72  LEU72      -0.2867
     42  CB        -3.2150   -1.2220  -10.4650 C.3    72  LEU72       0.0270
     43  CG        -2.6900   -2.0790  -11.6160 C.3    72  LEU72       0.0019
     44  CD1       -3.7450   -2.1640  -12.6870 C.3    72  LEU72       0.0001
     45  CD2       -1.4270   -1.5180  -12.1940 C.3    72  LEU72       0.0001
     46  N          2.1900    3.2920  -14.3760 N.3    81  ILE81      -0.1245
     47  CA         0.7310    3.2030  -14.5860 C.3    81  ILE81       0.1561
     48  C          0.0150    3.2910  -13.2220 C.2    81  ILE81       0.2260
     49  O          0.3690    2.5820  -12.2940 O.2    81  ILE81      -0.2867
     50  CB         0.3270    1.8650  -15.2800 C.3    81  ILE81       0.0252
     51  CG1       -1.1740    1.6520  -15.4410 C.3    81  ILE81       0.0019
     52  CG2        0.7740    0.6400  -14.4780 C.3    81  ILE81       0.0019
     53  CD1       -1.3610    0.3760  -16.2260 C.3    81  ILE81       0.0001
     54  N         -4.1350    3.9870  -11.2430 N.3    83  LEU83      -0.1245
     55  CA        -5.5150    3.6560  -11.3770 C.3    83  LEU83       0.1561
     56  C         -6.3450    4.9080  -11.2280 C.2    83  LEU83       0.2260
     57  O         -6.3130    5.5430  -10.1850 O.2    83  LEU83      -0.2867
     58  CB        -5.8260    2.6590  -10.2660 C.3    83  LEU83       0.0270
     59  CG        -6.7160    1.4800  -10.5000 C.3    83  LEU83       0.0019
     60  CD1       -6.4220    0.7720  -11.8250 C.3    83  LEU83       0.0001
     61  CD2       -6.6290    0.5690   -9.2670 C.3    83  LEU83       0.0001
     62  N        -10.5200   -2.1470  -14.8510 N.3   101  LEU101     -0.1231
     63  CA        -9.5230   -1.2770  -14.3330 C.3   101  LEU101      0.1693
     64  C         -9.3830   -0.1080  -15.3100 C.2   101  LEU101      0.2592
     65  O         -9.3120   -0.3410  -16.5010 O.2   101  LEU101     -0.2718
     66  CB        -8.2050   -2.0330  -14.2690 C.3   101  LEU101      0.0284
     67  CG        -8.2480   -3.2780  -13.3640 C.3   101  LEU101      0.0019
     68  CD1       -6.9320   -4.0260  -13.4640 C.3   101  LEU101      0.0001
     69  CD2       -8.4500   -2.8800  -11.9530 C.3   101  LEU101      0.0001
     70  N         -9.2850    1.1020  -14.7860 N.am  102  VAL102     -0.1966
     71  CA        -9.1710    2.2900  -15.6330 C.3   102  VAL102      0.1727
     72  C         -7.8510    3.0190  -15.3690 C.2   102  VAL102      0.2617
     73  O         -7.5740    3.3760  -14.1940 O.2   102  VAL102     -0.2715
     74  CB       -10.3420    3.2380  -15.3870 C.3   102  VAL102      0.0290
     75  CG1      -10.2950    4.3960  -16.4240 C.3   102  VAL102      0.0023
     76  CG2      -11.6880    2.4890  -15.4360 C.3   102  VAL102      0.0023
     77  N         -7.1630    3.4420  -16.4500 N.am  103  THR103     -0.1937
     78  CA        -5.9840    4.3020  -16.3560 C.3   103  THR103      0.2028
     79  C         -5.9560    5.3430  -17.4960 C.2   103  THR103      0.2642
     80  O         -6.7800    5.3240  -18.3560 O.2   103  THR103     -0.2714
     81  CB        -4.6880    3.4550  -16.3130 C.3   103  THR103      0.1808
     82  OG1       -3.5880    4.2970  -15.8850 O.3   103  THR103     -0.2208
     83  CG2       -4.3860    2.8250  -17.6960 C.3   103  THR103      0.0379
     84  N         -5.0060    6.2460  -17.4900 N.am  104  HIS104     -0.1959
     85  CA        -4.8720    7.2030  -18.6300 C.3   104  HIS104      0.1787
     86  C         -4.5630    6.4930  -19.9090 C.2   104  HIS104      0.2620
     87  O         -3.7980    5.5450  -19.8950 O.2   104  HIS104     -0.2715
     88  CB        -3.7080    8.1390  -18.3710 C.3   104  HIS104      0.0785
     89  CG        -3.9440    9.0900  -17.2590 C.ar  104  HIS104      0.0821
     90  ND1       -3.5950    8.8160  -15.9460 N.ar  104  HIS104     -0.2267
     91  CD2       -4.5090   10.3100  -17.2510 C.ar  104  HIS104      0.1154
     92  CE1       -3.9040    9.8520  -15.1850 C.ar  104  HIS104      0.1986
     93  NE2       -4.4700   10.7620  -15.9550 N.ar  104  HIS104     -0.2212
     94  N         -5.1600    6.9160  -21.0110 N.am  105  LEU105     -0.1963
     95  CA        -4.8500    6.3340  -22.3080 C.3   105  LEU105      0.1728
     96  C         -3.4650    6.7850  -22.7580 C.2   105  LEU105      0.2616
     97  O         -3.1110    7.9270  -22.6010 O.2   105  LEU105     -0.2715
     98  CB        -5.9160    6.7130  -23.3480 C.3   105  LEU105      0.0311
     99  CG        -5.7700    6.1010  -24.7450 C.3   105  LEU105      0.0022
    100  CD1       -6.0690    4.6380  -24.7040 C.3   105  LEU105      0.0001
    101  CD2       -6.7010    6.8260  -25.7370 C.3   105  LEU105      0.0001
    102  N         -2.6400    5.8600  -23.2290 N.am  106  MET106     -0.1963
    103  CA        -1.2960    6.2010  -23.6840 C.3   106  MET106      0.1736
    104  C         -1.2940    5.9450  -25.1560 C.2   106  MET106      0.2617
    105  O         -2.0900    5.1600  -25.6160 O.2   106  MET106     -0.2715
    106  CB        -0.2490    5.3810  -22.9450 C.3   106  MET106      0.0427
    107  CG        -0.3260    5.5680  -21.4490 C.3   106  MET106      0.0599
    108  SD         0.2550    7.1770  -20.8960 S.3   106  MET106     -0.1393
    109  CE         1.9950    7.2120  -21.3930 C.3   106  MET106      0.0692
    110  N         -0.4360    6.6170  -25.8980 N.am  107  GLY107     -0.1940
    111  CA        -0.4860    6.5730  -27.3560 C.3   107  GLY107      0.2014
    112  C          0.0870    5.3330  -27.9970 C.2   107  GLY107      0.2639
    113  O         -0.3830    4.9230  -29.0200 O.2   107  GLY107     -0.2714
    114  N          1.1570    4.7590  -27.4350 N.am  108  ALA108     -0.1963
    115  CA         1.9210    3.7210  -28.1060 C.3   108  ALA108      0.1728
    116  C          2.8350    3.0120  -27.0650 C.2   108  ALA108      0.2616
    117  O          3.0100    3.4870  -25.9620 O.2   108  ALA108     -0.2715
    118  CB         2.7770    4.3680  -29.1640 C.3   108  ALA108      0.0334
    119  N          3.3950    1.8980  -27.4200 N.am  109  ASP109     -0.1971
    120  CA         4.4670    1.3200  -26.6040 C.3   109  ASP109      0.1709
    121  C          5.8140    1.5780  -27.2730 C.2   109  ASP109      0.2293
    122  O          5.8770    2.0730  -28.4080 O.2   109  ASP109     -0.2864
    123  CB         4.1790   -0.1230  -26.2600 C.3   109  ASP109      0.1436
    124  CG         4.0920   -1.0430  -27.4730 C.2   109  ASP109      0.3671
    125  OD1        3.1820   -1.9090  -27.4980 O.co2 109  ASP109     -0.2456
    126  OD2        4.9200   -0.8920  -28.3810 O.co2 109  ASP109     -0.2456
    127  N          6.5660    0.1200  -30.9090 N.3   112  ASN112     -0.1240
    128  CA         6.0290    1.0280  -31.9410 C.3   112  ASN112      0.1653
    129  C          6.8620    2.2770  -32.1420 C.2   112  ASN112      0.2266
    130  O          6.9800    2.7470  -33.2670 O.2   112  ASN112     -0.2867
    131  CB         4.6030    1.5140  -31.6030 C.3   112  ASN112      0.1155
    132  CG         3.6450    0.3920  -31.2230 C.2   112  ASN112      0.2627
    133  OD1        3.8080   -0.7660  -31.6320 O.2   112  ASN112     -0.2716
    134  ND2        2.6220    0.7380  -30.4240 N.am  112  ASN112     -0.0877
    135  N          7.4570   -3.5120  -24.9740 N.3   148  SER148     -0.1217
    136  CA         5.9930   -3.5370  -24.9920 C.3   148  SER148      0.1889
    137  C          5.3680   -3.3520  -23.5860 C.2   148  SER148      0.2288
    138  O          4.1800   -3.2150  -23.4930 O.2   148  SER148     -0.2866
    139  CB         5.5010   -4.8360  -25.6150 C.3   148  SER148      0.2089
    140  OG         5.8340   -5.8870  -24.7240 O.3   148  SER148     -0.2183
    141  N          4.8370    2.3330  -22.0820 N.3   151  ALA151     -0.1245
    142  CA         3.8880    3.1350  -22.8560 C.3   151  ALA151      0.1562
    143  C          4.4310    4.5190  -22.9470 C.2   151  ALA151      0.2260
    144  O          5.0040    5.0620  -21.9650 O.2   151  ALA151     -0.2867
    145  CB         2.5410    3.1380  -22.1330 C.3   151  ALA151      0.0290
    146  N          4.2930   -0.1010  -17.4970 N.3   161  LEU161     -0.1231
    147  CA         3.1130   -0.9570  -17.3390 C.3   161  LEU161      0.1693
    148  C          3.4240   -2.2940  -16.6310 C.2   161  LEU161      0.2592
    149  O          4.5270   -2.8920  -16.7750 O.2   161  LEU161     -0.2718
    150  CB         2.5840   -1.3630  -18.7610 C.3   161  LEU161      0.0284
    151  CG         2.2730   -0.2400  -19.7670 C.3   161  LEU161      0.0019
    152  CD1        2.0270   -0.8610  -21.1160 C.3   161  LEU161      0.0001
    153  CD2        1.0760    0.5640  -19.3280 C.3   161  LEU161      0.0001
    154  N          2.3860   -2.8520  -16.0240 N.am  162  ASP162     -0.1960
    155  CA         2.4850   -4.1960  -15.4650 C.3   162  ASP162      0.1840
    156  C          2.4890   -5.1940  -16.6190 C.2   162  ASP162      0.2622
    157  O          3.3650   -6.0190  -16.6750 O.2   162  ASP162     -0.2715
    158  CB         1.3560   -4.4940  -14.4810 C.3   162  ASP162      0.1450
    159  CG        -0.0500   -4.2610  -15.0650 C.2   162  ASP162      0.3671
    160  OD1       -0.9560   -4.7460  -14.3780 O.co2 162  ASP162     -0.2456
    161  OD2       -0.2430   -3.6670  -16.1820 O.co2 162  ASP162     -0.2456
    162  N          1.5340   -5.0810  -17.5340 N.am  163  PHE163     -0.1960
    163  CA         1.4880   -5.9450  -18.7150 C.3   163  PHE163      0.1771
    164  C          0.9950   -5.0730  -19.8220 C.2   163  PHE163      0.2620
    165  O          0.0810   -4.2940  -19.6190 O.2   163  PHE163     -0.2715
    166  CB         0.4660   -7.0910  -18.5700 C.3   163  PHE163      0.0574
    167  CG         0.7020   -7.9460  -17.3820 C.ar  163  PHE163     -0.0200
    168  CD1       -0.0410   -7.7390  -16.1920 C.ar  163  PHE163     -0.0042
    169  CD2        1.6700   -8.9580  -17.4340 C.ar  163  PHE163     -0.0042
    170  CE1        0.2000   -8.5460  -15.0790 C.ar  163  PHE163     -0.0003
    171  CE2        1.8850   -9.7900  -16.3300 C.ar  163  PHE163     -0.0003
    172  CZ         1.1650   -9.5680  -15.1420 C.ar  163  PHE163     -0.0000
    173  N          1.6100   -5.2140  -20.9830 N.am  164  GLY164     -0.1940
    174  CA         1.2160   -4.4350  -22.1590 C.3   164  GLY164      0.2014
    175  C          0.1940   -5.2290  -22.9590 C.2   164  GLY164      0.2638
    176  O         -0.4860   -6.1430  -22.4160 O.2   164  GLY164     -0.2714
    177  N          0.1130   -4.8800  -24.2410 N.am  165  LEU165     -0.1977
    178  CA        -0.7960   -5.4920  -25.2350 C.3   165  LEU165      0.1596
    179  C          0.0230   -6.4350  -26.1060 C.2   165  LEU165      0.2287
    180  O          0.9540   -5.9940  -26.7590 O.2   165  LEU165     -0.2864
    181  CB        -1.4590   -4.3930  -26.1140 C.3   165  LEU165      0.0297
    182  CG        -2.1850   -3.3400  -25.2630 C.3   165  LEU165      0.0022
    183  CD1       -2.7450   -2.2010  -26.0780 C.3   165  LEU165      0.0001
    184  CD2       -3.2520   -4.0010  -24.3970 C.3   165  LEU165      0.0001
@<TRIPOS>BOND
     1   130   129    2
     2   129   128    1
     3   128   131    1
     4   128   127    1
     5   133   132    2
     6   131   132    1
     7   132   134   am
     8     4     3    2
     9   118   115    1
    10   113   112    2
    11     3     2    1
    12     2     1    1
    13     2     5    1
    14   122   121    2
    15   126   124   ar
    16   115   114    1
    17   115   116    1
    18   112   114   am
    19   112   111    1
    20     6     5    1
    21   125   124   ar
    22   124   123    1
    23   119   116   am
    24   119   120    1
    25     7     5    1
    26   111   110    1
    27   121   120    1
    28   116   117    2
    29   180   179    2
    30   120   123    1
    31   181   182    1
    32   181   178    1
    33   179   178    1
    34   183   182    1
    35   110   104   am
    36   101    99    1
    37   105   104    2
    38   139   136    1
    39   139   140    1
    40    11    10    2
    41   182   184    1
    42   178   177    1
    43   104   103    1
    44   136   135    1
    45   136   137    1
    46    99   100    1
    47    99    98    1
    48    10     9    1
    49   177   175   am
    50   103   102    1
    51   103   106    1
    52   137   138    2
    53     8     9    1
    54    98    95    1
    55     9    12    1
    56   102    96   am
    57    12    13    1
    58    12    14    1
    59   175   176    2
    60   175   174    1
    61   143   142    1
    62   143   144    2
    63   106   107    1
    64   142   145    1
    65   142   141    1
    66    96    97    2
    67    96    95    1
    68    95    94    1
    69   174   173    1
    70   107   108    1
    71   109   108    1
    72    19    16    1
    73    16    15    1
    74    16    17    1
    75   152   151    1
    76    94    86   am
    77   173   164   am
    78    17    18    2
    79    86    87    2
    80    86    85    1
    81   164   165    2
    82   164   163    1
    83   151   153    1
    84   151   150    1
    85    21    20    1
    86    21    24    1
    87    21    22    1
    88   150   147    1
    89   163   166    1
    90   163   162    1
    91    25    24    1
    92    25    26    1
    93    85    88    1
    94    85    84    1
    95   166   167    1
    96    88    89    1
    97    80    79    2
    98    22    23    2
    99    27    26    1
   100    27    28    1
   101    83    81    1
   102   162   156   am
   103   146   147    1
   104    79    84   am
   105    79    78    1
   106   169   167   ar
   107   169   171   ar
   108   167   168   ar
   109   147   148    1
   110    89    91   ar
   111    89    90   ar
   112    91    93   ar
   113   149   148    2
   114   157   156    2
   115   148   154   am
   116   156   155    1
   117    65    64    2
   118    77    78    1
   119    77    72   am
   120    75    74    1
   121    78    81    1
   122   171   172   ar
   123    81    82    1
   124    53    51    1
   125   168   170   ar
   126   161   159   ar
   127   154   155    1
   128    93    92   ar
   129    90    92   ar
   130    71    74    1
   131    71    72    1
   132    71    70    1
   133   155   158    1
   134    51    50    1
   135    76    74    1
   136    72    73    2
   137    64    70   am
   138    64    63    1
   139    50    47    1
   140    50    52    1
   141   172   170   ar
   142   159   158    1
   143   159   160   ar
   144    62    63    1
   145    36    35   ar
   146    47    46    1
   147    47    48    1
   148    63    66    1
   149    66    67    1
   150    37    35   ar
   151    35    34    1
   152    68    67    1
   153    67    69    1
   154    48    49    2
   155    44    43    1
   156    34    33    1
   157    45    43    1
   158    60    59    1
   159    43    42    1
   160    55    54    1
   161    55    56    1
   162    55    58    1
   163    33    30    1
   164    56    57    2
   165    59    58    1
   166    59    61    1
   167    42    39    1
   168    30    31    1
   169    30    29    1
   170    32    31    2
   171    39    38    1
   172    39    40    1
   173    41    40    2
