@<TRIPOS>MOLECULE
tmp/5omhA00.pdb
 141 129 0 0 0
SMALL
GASTEIGER

@<TRIPOS>ATOM
      1  N         -8.2010   -1.7770  -28.4060 N.3    26  VAL26      -0.1245
      2  CA        -6.8490   -1.2290  -28.5810 C.3    26  VAL26       0.1561
      3  C         -5.8060   -2.3140  -28.8240 C.2    26  VAL26       0.2260
      4  O         -5.9180   -3.3990  -28.2630 O.2    26  VAL26      -0.2867
      5  CB        -6.4420   -0.3690  -27.3690 C.3    26  VAL26       0.0252
      6  CG1       -7.3270    0.8710  -27.2700 C.3    26  VAL26       0.0019
      7  CG2       -6.5170   -1.1650  -26.0750 C.3    26  VAL26       0.0019
      8  N         -8.0420   -4.4750  -23.4150 N.3    30  VAL30      -0.1245
      9  CA        -8.1490   -3.0660  -23.1180 C.3    30  VAL30       0.1561
     10  C         -8.9810   -2.3760  -24.1760 C.2    30  VAL30       0.2260
     11  O         -8.9470   -2.7510  -25.3480 O.2    30  VAL30      -0.2867
     12  CB        -6.7710   -2.4040  -23.0520 C.3    30  VAL30       0.0252
     13  CG1       -6.9100   -0.9140  -22.7210 C.3    30  VAL30       0.0019
     14  CG2       -5.9090   -3.1250  -22.0320 C.3    30  VAL30       0.0019
     15  N         -8.3240    4.4030  -20.5800 N.3    43  ALA43      -0.1245
     16  CA        -8.2580    3.0340  -21.0490 C.3    43  ALA43       0.1562
     17  C         -8.9200    2.1620  -20.0050 C.2    43  ALA43       0.2260
     18  O         -8.6960    2.3410  -18.8080 O.2    43  ALA43      -0.2867
     19  CB        -6.8240    2.6300  -21.2550 C.3    43  ALA43       0.0290
     20  N         -9.6640   -1.7820  -18.9270 N.3    45  LYS45      -0.1245
     21  CA        -9.2350   -3.1580  -19.1170 C.3    45  LYS45       0.1561
     22  C        -10.2000   -4.0540  -18.4210 C.2    45  LYS45       0.2260
     23  O        -10.5360   -3.8060  -17.2790 O.2    45  LYS45      -0.2867
     24  CB        -7.8640   -3.3800  -18.5150 C.3    45  LYS45       0.0271
     25  CG        -7.3980   -4.8180  -18.5640 C.3    45  LYS45       0.0035
     26  CD        -6.0340   -4.9720  -17.9190 C.3    45  LYS45       0.0206
     27  CE        -5.5410   -6.4040  -18.0480 C.3    45  LYS45       0.1093
     28  NZ        -4.0800   -6.4720  -17.8220 N.3    45  LYS45      -0.1314
     29  N         -3.0120   -7.9410   -8.6440 N.3    63  GLU63      -0.1245
     30  CA        -2.9900   -6.8450   -9.5930 C.3    63  GLU63       0.1567
     31  C         -3.8150   -5.6580   -9.0530 C.2    63  GLU63       0.2260
     32  O         -3.3660   -4.5400   -9.1140 O.2    63  GLU63      -0.2867
     33  CB        -3.4680   -7.2940  -10.9660 C.3    63  GLU63       0.0388
     34  CG        -3.6450   -6.1490  -11.9680 C.3    63  GLU63       0.1160
     35  CD        -3.5670   -6.5910  -13.4300 C.2    63  GLU63       0.3649
     36  OE1       -2.7710   -6.0030  -14.2060 O.co2  63  GLU63      -0.2457
     37  OE2       -4.2810   -7.5460  -13.7830 O.co2  63  GLU63      -0.2457
     38  N         -2.2040   -1.9830   -8.2260 N.3    67  LEU67      -0.1245
     39  CA        -2.6750   -0.7860   -8.9570 C.3    67  LEU67       0.1561
     40  C         -3.2570    0.2200   -8.0320 C.2    67  LEU67       0.2260
     41  O         -3.1050    1.4020   -8.2540 O.2    67  LEU67      -0.2867
     42  CB        -3.6400   -1.1140  -10.0590 C.3    67  LEU67       0.0270
     43  CG        -3.0410   -1.8800  -11.2380 C.3    67  LEU67       0.0019
     44  CD1       -4.1470   -2.2800  -12.1720 C.3    67  LEU67       0.0001
     45  CD2       -1.9950   -1.1250  -12.0310 C.3    67  LEU67       0.0001
     46  N          1.7610    3.5960  -13.8110 N.3    76  ILE76      -0.1245
     47  CA         0.3420    3.5610  -14.1020 C.3    76  ILE76       0.1561
     48  C         -0.4800    3.7110  -12.8420 C.2    76  ILE76       0.2260
     49  O         -0.1680    3.1220  -11.8170 O.2    76  ILE76      -0.2867
     50  CB         0.0100    2.2670  -14.8100 C.3    76  ILE76       0.0252
     51  CG1       -1.3880    2.3520  -15.4230 C.3    76  ILE76       0.0019
     52  CG2        0.2630    1.0830  -13.8640 C.3    76  ILE76       0.0019
     53  CD1       -2.4220    1.5410  -14.6790 C.3    76  ILE76       0.0001
     54  N        -10.7290   -2.2810  -14.8520 N.3    96  LEU96      -0.1245
     55  CA        -9.8240   -1.2890  -14.3140 C.3    96  LEU96       0.1561
     56  C         -9.7240   -0.1170  -15.3040 C.2    96  LEU96       0.2260
     57  O         -9.7240   -0.3290  -16.5430 O.2    96  LEU96      -0.2867
     58  CB        -8.4660   -1.9420  -14.1680 C.3    96  LEU96       0.0270
     59  CG        -8.4400   -3.2500  -13.3520 C.3    96  LEU96       0.0019
     60  CD1       -7.1040   -3.9580  -13.5680 C.3    96  LEU96       0.0001
     61  CD2       -8.6420   -2.9790  -11.8850 C.3    96  LEU96       0.0001
     62  N         -7.7030    3.5370  -16.4540 N.3    98  THR98      -0.1203
     63  CA        -6.4880    4.3640  -16.3870 C.3    98  THR98       0.1994
     64  C         -6.4390    5.3800  -17.5130 C.2    98  THR98       0.2618
     65  O         -7.1320    5.2220  -18.5400 O.2    98  THR98      -0.2717
     66  CB        -5.2020    3.5080  -16.4960 C.3    98  THR98       0.1784
     67  OG1       -4.9390    3.1860  -17.8800 O.3    98  THR98      -0.2211
     68  CG2       -5.3720    2.2190  -15.7340 C.3    98  THR98       0.0376
     69  N         -5.5860    6.3920  -17.3160 N.am   99  HIS99      -0.1961
     70  CA        -5.3490    7.4330  -18.3020 C.3    99  HIS99       0.1787
     71  C         -4.8810    6.7670  -19.5660 C.2    99  HIS99       0.2620
     72  O         -3.9300    6.0010  -19.5210 O.2    99  HIS99      -0.2715
     73  CB        -4.2320    8.3650  -17.8710 C.3    99  HIS99       0.0785
     74  CG        -4.6470    9.4310  -16.9120 C.ar   99  HIS99       0.0821
     75  ND1       -4.3680    9.3700  -15.5620 N.ar   99  HIS99      -0.2267
     76  CD2       -5.2710   10.6160  -17.1160 C.ar   99  HIS99       0.1154
     77  CE1       -4.8210   10.4610  -14.9720 C.ar   99  HIS99       0.1986
     78  NE2       -5.3800   11.2300  -15.8910 N.ar   99  HIS99      -0.2212
     79  N         -5.5300    7.0550  -20.6870 N.am  100  LEU100     -0.1963
     80  CA        -5.0950    6.4940  -21.9610 C.3   100  LEU100      0.1728
     81  C         -3.8220    7.2010  -22.4030 C.2   100  LEU100      0.2616
     82  O         -3.6810    8.4100  -22.1980 O.2   100  LEU100     -0.2715
     83  CB        -6.1500    6.6930  -23.0380 C.3   100  LEU100      0.0311
     84  CG        -5.7570    6.1760  -24.4200 C.3   100  LEU100      0.0022
     85  CD1       -5.6050    4.6630  -24.4380 C.3   100  LEU100      0.0001
     86  CD2       -6.7970    6.5800  -25.4320 C.3   100  LEU100      0.0001
     87  N         -2.9170    6.4670  -23.0380 N.am  101  MET101     -0.1963
     88  CA        -1.6250    7.0410  -23.4480 C.3   101  MET101      0.1736
     89  C         -1.2960    6.9630  -24.9350 C.2   101  MET101      0.2617
     90  O         -0.5970    7.8380  -25.4630 O.2   101  MET101     -0.2715
     91  CB        -0.5180    6.3790  -22.6470 C.3   101  MET101      0.0427
     92  CG        -0.5830    6.7030  -21.1590 C.3   101  MET101      0.0599
     93  SD         0.5050    8.0610  -20.6900 S.3   101  MET101     -0.1393
     94  CE        -0.6240    9.4150  -20.3720 C.3   101  MET101      0.0692
     95  N         -1.7840    5.9260  -25.6090 N.am  102  GLY102     -0.1955
     96  CA        -1.4190    5.6860  -26.9990 C.3   102  GLY102      0.1869
     97  C         -0.1840    4.8040  -27.0830 C.2   102  GLY102      0.2309
     98  O         -0.1480    3.7350  -26.4730 O.2   102  GLY102     -0.2863
     99  N          3.5930    2.8350  -27.4340 N.3   104  ASP104     -0.1239
    100  CA         4.6040    2.2050  -26.6300 C.3   104  ASP104      0.1674
    101  C          5.9290    2.6180  -27.1380 C.2   104  ASP104      0.2266
    102  O          6.0770    2.9950  -28.2900 O.2   104  ASP104     -0.2867
    103  CB         4.5730    0.7030  -26.8310 C.3   104  ASP104      0.1410
    104  CG         3.2480    0.1040  -26.4870 C.2   104  ASP104      0.3668
    105  OD1        2.5040    0.7560  -25.7280 O.co2 104  ASP104     -0.2456
    106  OD2        2.9600   -1.0290  -26.9550 O.co2 104  ASP104     -0.2456
    107  N          7.0000   -2.8250  -24.7730 N.3   141  SER141     -0.1202
    108  CA         5.5240   -2.9650  -24.6970 C.3   141  SER141      0.2020
    109  C          4.9340   -2.5150  -23.3740 C.2   141  SER141      0.2618
    110  O          3.7640   -2.2630  -23.3040 O.2   141  SER141     -0.2717
    111  CB         5.0700   -4.4440  -24.9290 C.3   141  SER141      0.2103
    112  OG         5.8330   -5.1330  -25.9250 O.3   141  SER141     -0.2182
    113  N          5.7200   -2.4700  -22.3090 N.am  142  ASN142     -0.1974
    114  CA         5.1820   -2.1240  -20.9810 C.3   142  ASN142      0.1688
    115  C          5.4580   -0.7000  -20.5560 C.2   142  ASN142      0.2292
    116  O          5.2850   -0.3390  -19.3730 O.2   142  ASN142     -0.2864
    117  CB         5.7420   -3.0970  -19.9380 C.3   142  ASN142      0.1181
    118  CG         4.9700   -4.3860  -19.8960 C.2   142  ASN142      0.2629
    119  OD1        3.8230   -4.4590  -20.3590 O.2   142  ASN142     -0.2716
    120  ND2        5.5840   -5.4150  -19.3630 N.am  142  ASN142     -0.0877
    121  N          4.4070    2.9960  -21.6060 N.3   144  ALA144     -0.1245
    122  CA         3.4440    3.7880  -22.3770 C.3   144  ALA144      0.1562
    123  C          3.9840    5.1910  -22.4960 C.2   144  ALA144      0.2260
    124  O          4.5550    5.7240  -21.5510 O.2   144  ALA144     -0.2867
    125  CB         2.0900    3.8280  -21.6920 C.3   144  ALA144      0.0290
    126  N          3.7860    0.3310  -17.1210 N.3   154  LEU154     -0.1231
    127  CA         2.5460   -0.4100  -16.9550 C.3   154  LEU154      0.1693
    128  C          2.7530   -1.8950  -17.0240 C.2   154  LEU154      0.2592
    129  O          3.7400   -2.3690  -17.6080 O.2   154  LEU154     -0.2718
    130  CB         1.5530    0.0570  -18.0130 C.3   154  LEU154      0.0284
    131  CG         1.9110   -0.1290  -19.4520 C.3   154  LEU154      0.0019
    132  CD1        1.8080   -1.6070  -19.8250 C.3   154  LEU154      0.0001
    133  CD2        0.9730    0.7540  -20.2560 C.3   154  LEU154      0.0001
    134  N          1.7830   -2.6340  -16.4930 N.am  155  ASP155     -0.1974
    135  CA         1.7890   -4.1040  -16.5680 C.3   155  ASP155      0.1709
    136  C          0.8990   -4.6780  -17.6580 C.2   155  ASP155      0.2293
    137  O          0.7800   -5.8990  -17.7770 O.2   155  ASP155     -0.2864
    138  CB         1.3860   -4.6860  -15.2210 C.3   155  ASP155      0.1436
    139  CG         2.5590   -5.0490  -14.4010 C.2   155  ASP155      0.3671
    140  OD1        3.5040   -5.5920  -15.0040 O.co2 155  ASP155     -0.2456
    141  OD2        2.5280   -4.8090  -13.1610 O.co2 155  ASP155     -0.2456
@<TRIPOS>BOND
     1     3     2    1
     2     3     4    2
     3     2     1    1
     4     2     5    1
     5   102   101    2
     6    99   100    1
     7     5     6    1
     8     5     7    1
     9   101   100    1
    10    97    96    1
    11    97    98    2
    12    96    95    1
    13   106   104   ar
    14   103   100    1
    15   103   104    1
    16   104   105   ar
    17   112   111    1
    18    95    89   am
    19    90    89    2
    20    86    84    1
    21    11    10    2
    22    89    88    1
    23   111   108    1
    24   107   108    1
    25   108   109    1
    26    85    84    1
    27    84    83    1
    28    10     9    1
    29    88    87    1
    30    88    91    1
    31     8     9    1
    32   109   110    2
    33   109   113   am
    34     9    12    1
    35    12    13    1
    36    12    14    1
    37    87    81   am
    38    83    80    1
    39    91    92    1
    40   123   122    1
    41   123   124    2
    42    81    82    2
    43    81    80    1
    44   122   125    1
    45   122   121    1
    46   113   114    1
    47    80    79    1
    48    19    16    1
    49    92    93    1
    50    16    15    1
    51    16    17    1
    52   114   115    1
    53   114   117    1
    54    93    94    1
    55    79    71   am
    56   115   116    2
    57   119   118    2
    58   133   131    1
    59    17    18    2
    60   117   118    1
    61   118   120   am
    62   132   131    1
    63    71    72    2
    64    71    70    1
    65   131   130    1
    66    21    20    1
    67    21    24    1
    68    21    22    1
    69    25    24    1
    70    25    26    1
    71    65    64    2
    72    22    23    2
    73    70    73    1
    74    70    69    1
    75    27    26    1
    76    27    28    1
    77   130   127    1
    78    67    66    1
    79    73    74    1
    80   137   136    2
    81   136   135    1
    82   129   128    2
    83    64    69   am
    84    64    63    1
    85   126   127    1
    86    76    74   ar
    87    76    78   ar
    88   128   127    1
    89   128   134   am
    90    74    75   ar
    91   135   134    1
    92   135   138    1
    93    57    56    2
    94    66    63    1
    95    66    68    1
    96    62    63    1
    97    78    77   ar
    98    75    77   ar
    99    51    50    1
   100    51    53    1
   101    56    55    1
   102   138   139    1
   103   140   139   ar
   104    54    55    1
   105    50    47    1
   106    50    52    1
   107   139   141   ar
   108    55    58    1
   109    36    35   ar
   110    58    59    1
   111    47    46    1
   112    47    48    1
   113    37    35   ar
   114    60    59    1
   115    35    34    1
   116    59    61    1
   117    48    49    2
   118    44    43    1
   119    45    43    1
   120    34    33    1
   121    43    42    1
   122    33    30    1
   123    42    39    1
   124    30    31    1
   125    30    29    1
   126    32    31    2
   127    39    38    1
   128    39    40    1
   129    41    40    2
