@<TRIPOS>MOLECULE
tmp/5omlC01.pdb
 128 120 0 0 0
SMALL
GASTEIGER

@<TRIPOS>ATOM
      1  N         52.6350   15.5460   40.4730 N.3    11  ARG11      -0.1245
      2  CA        51.6330   16.5160   40.1310 C.3    11  ARG11       0.1563
      3  C         52.1980   17.7250   39.4360 C.2    11  ARG11       0.2260
      4  O         51.7020   18.1820   38.4210 O.2    11  ARG11      -0.2867
      5  CB        50.8190   16.9630   41.3580 C.3    11  ARG11       0.0307
      6  CG        49.9010   15.9330   41.9770 C.3    11  ARG11       0.0489
      7  CD        48.9180   16.5330   42.9680 C.3    11  ARG11       0.2205
      8  NE        49.5740   16.9970   44.1990 N.pl3  11  ARG11      -0.0865
      9  CZ        49.9460   16.2340   45.2150 C.cat  11  ARG11       0.5346
     10  NH1       49.7480   14.9230   45.2200 N.pl3  11  ARG11       0.1354
     11  NH2       50.5230   16.7760   46.2730 N.pl3  11  ARG11       0.1354
     12  N         53.4350   16.7440   35.9230 N.3    14  ASN14      -0.1225
     13  CA        52.2720   16.6320   35.0040 C.3    14  ASN14       0.1785
     14  C         51.7700   17.9980   34.5760 C.2    14  ASN14       0.2597
     15  O         51.4300   18.2550   33.4080 O.2    14  ASN14      -0.2718
     16  CB        51.1440   15.7980   35.5890 C.3    14  ASN14       0.1169
     17  CG        51.5020   14.3120   35.5630 C.2    14  ASN14       0.2627
     18  OD1       52.3130   13.9130   34.7460 O.2    14  ASN14      -0.2716
     19  ND2       50.9520   13.5530   36.4710 N.am   14  ASN14      -0.0877
     20  N         51.6950   18.9240   35.5290 N.am   15  ALA15      -0.1979
     21  CA        51.2400   20.2740   35.2320 C.3    15  ALA15       0.1597
     22  C         52.1600   21.0700   34.2590 C.2    15  ALA15       0.2287
     23  O         51.7520   21.7310   33.3750 O.2    15  ALA15      -0.2864
     24  CB        51.0740   21.0890   36.5200 C.3    15  ALA15       0.0319
     25  N         54.1390   19.6620   31.9090 N.3    17  GLU17      -0.1231
     26  CA        53.9490   19.0630   30.5860 C.3    17  GLU17       0.1699
     27  C         52.6290   19.5540   29.9890 C.2    17  GLU17       0.2592
     28  O         52.5450   19.8980   28.7810 O.2    17  GLU17      -0.2718
     29  CB        54.0260   17.5630   30.6810 C.3    17  GLU17       0.0402
     30  CG        53.8890   16.8960   29.2880 C.3    17  GLU17       0.1161
     31  CD        54.9960   17.1360   28.2420 C.2    17  GLU17       0.3649
     32  OE1       56.1080   17.6030   28.5490 O.co2  17  GLU17      -0.2457
     33  OE2       54.7720   16.8150   27.0390 O.co2  17  GLU17      -0.2457
     34  N         51.6230   19.6650   30.8440 N.am   18  PHE18      -0.1976
     35  CA        50.3790   20.2630   30.3770 C.3    18  PHE18       0.1639
     36  C         50.5280   21.6850   29.8690 C.2    18  PHE18       0.2290
     37  O         50.0540   22.0300   28.8050 O.2    18  PHE18      -0.2864
     38  CB        49.3500   20.1400   31.5190 C.3    18  PHE18       0.0560
     39  CG        48.1060   21.0470   31.3850 C.ar   18  PHE18      -0.0200
     40  CD1       47.0950   20.6970   30.5210 C.ar   18  PHE18      -0.0042
     41  CD2       47.9660   22.2490   32.1360 C.ar   18  PHE18      -0.0042
     42  CE1       46.0180   21.5540   30.3950 C.ar   18  PHE18      -0.0003
     43  CE2       46.8930   23.0440   32.0030 C.ar   18  PHE18      -0.0003
     44  CZ        45.8930   22.6790   31.0800 C.ar   18  PHE18      -0.0000
     45  N         51.8650   22.3210   26.3430 N.3    21  ASP21      -0.1239
     46  CA        51.1040   21.9310   25.1540 C.3    21  ASP21       0.1674
     47  C         50.7150   23.2180   24.3550 C.2    21  ASP21       0.2266
     48  O         50.3480   24.2600   24.9120 O.2    21  ASP21      -0.2867
     49  CB        49.9330   21.1130   25.5470 C.3    21  ASP21       0.1410
     50  CG        49.0320   20.7730   24.3500 C.2    21  ASP21       0.3668
     51  OD1       48.2560   21.6420   23.9200 O.co2  21  ASP21      -0.2456
     52  OD2       49.1780   19.6410   23.8420 O.co2  21  ASP21      -0.2456
     53  N         48.2180   24.1130   22.4180 N.3    23  ARG23      -0.1231
     54  CA        46.7830   24.5230   22.5710 C.3    23  ARG23       0.1694
     55  C         46.5810   25.1830   23.9670 C.2    23  ARG23       0.2591
     56  O         45.8540   26.1550   24.1410 O.2    23  ARG23      -0.2718
     57  CB        45.8450   23.3560   22.4100 C.3    23  ARG23       0.0321
     58  CG        45.9060   22.5940   21.0840 C.3    23  ARG23       0.0489
     59  CD        45.3740   21.1700   21.2470 C.3    23  ARG23       0.2205
     60  NE        46.1660   20.3310   22.1780 N.pl3  23  ARG23      -0.0865
     61  CZ        45.9800   19.0330   22.4060 C.cat  23  ARG23       0.5346
     62  NH1       44.9320   18.3540   21.8660 N.pl3  23  ARG23       0.1354
     63  NH2       46.8480   18.3490   23.1630 N.pl3  23  ARG23       0.1354
     64  N         47.2200   24.5800   24.9550 N.am   24  VAL24      -0.1980
     65  CA        47.1460   25.0450   26.3520 C.3    24  VAL24       0.1595
     66  C         47.8210   26.4080   26.5040 C.2    24  VAL24       0.2287
     67  O         47.3460   27.3430   27.1430 O.2    24  VAL24      -0.2864
     68  CB        47.7270   23.9780   27.2340 C.3    24  VAL24       0.0276
     69  CG1       47.8170   24.5000   28.6760 C.3    24  VAL24       0.0022
     70  CG2       46.8990   22.6870   27.1750 C.3    24  VAL24       0.0022
     71  N         45.4670   29.1660   25.9320 N.3    27  THR27      -0.1218
     72  CA        44.2950   29.1780   26.8310 C.3    27  THR27       0.1862
     73  C         44.6060   30.1960   27.9320 C.2    27  THR27       0.2287
     74  O         45.7510   30.1930   28.4250 O.2    27  THR27      -0.2866
     75  CB        44.0950   27.7810   27.3260 C.3    27  THR27       0.1770
     76  OG1       43.7630   26.9270   26.2030 O.3    27  THR27      -0.2211
     77  CG2       42.9280   27.6550   28.3350 C.3    27  THR27       0.0375
     78  N         41.6390   29.8140   33.3140 N.3    31  SER31      -0.1202
     79  CA        41.1120   28.4790   32.9380 C.3    31  SER31       0.2020
     80  C         42.0550   27.3550   33.3330 C.2    31  SER31       0.2618
     81  O         41.6920   26.2940   33.8170 O.2    31  SER31      -0.2717
     82  CB        40.8290   28.4150   31.4580 C.3    31  SER31       0.2103
     83  OG        39.8780   29.3960   31.1470 O.3    31  SER31      -0.2182
     84  N         43.3820   27.6100   33.0780 N.am   32  LYS32      -0.1979
     85  CA        44.3670   26.6210   33.4050 C.3    32  LYS32       0.1596
     86  C         44.5510   26.3630   34.8670 C.2    32  LYS32       0.2287
     87  O         44.7410   25.2380   35.2750 O.2    32  LYS32      -0.2864
     88  CB        45.7220   27.0810   32.7400 C.3    32  LYS32       0.0298
     89  CG        45.6280   26.9750   31.2220 C.3    32  LYS32       0.0038
     90  CD        46.9290   27.3300   30.4940 C.3    32  LYS32       0.0206
     91  CE        47.3520   28.7460   30.6980 C.3    32  LYS32       0.1093
     92  NZ        48.2550   29.1990   29.6270 N.3    32  LYS32      -0.1314
     93  N         41.5340   24.2810   35.9500 N.3    35  PHE35      -0.1227
     94  CA        41.8260   22.9300   35.4870 C.3    35  PHE35       0.1736
     95  C         42.8410   22.2250   36.4550 C.2    35  PHE35       0.2595
     96  O         42.6520   21.0910   36.8840 O.2    35  PHE35      -0.2718
     97  CB        42.2900   22.9250   34.0400 C.3    35  PHE35       0.0547
     98  CG        42.8030   21.6000   33.5940 C.ar   35  PHE35      -0.0202
     99  CD1       41.9540   20.6170   33.1940 C.ar   35  PHE35      -0.0042
    100  CD2       44.1500   21.3100   33.6340 C.ar   35  PHE35      -0.0042
    101  CE1       42.4120   19.3530   32.8280 C.ar   35  PHE35      -0.0003
    102  CE2       44.6410   20.0800   33.2610 C.ar   35  PHE35      -0.0003
    103  CZ        43.7920   19.0590   32.8870 C.ar   35  PHE35      -0.0000
    104  N         43.9850   22.8830   36.7390 N.am   36  LEU36      -0.1980
    105  CA        44.9440   22.2330   37.5890 C.3    36  LEU36       0.1596
    106  C         44.4430   21.9390   39.0010 C.2    36  LEU36       0.2287
    107  O         44.7790   20.9190   39.6010 O.2    36  LEU36      -0.2864
    108  CB        46.2600   23.0700   37.6220 C.3    36  LEU36       0.0297
    109  CG        47.0220   23.0360   36.2920 C.3    36  LEU36       0.0022
    110  CD1       48.1480   24.0440   36.3440 C.3    36  LEU36       0.0001
    111  CD2       47.5210   21.6520   35.8710 C.3    36  LEU36       0.0001
    112  N         42.6450   18.7330   38.9570 N.3    39  LYS39      -0.1245
    113  CA        43.5470   17.5800   39.0060 C.3    39  LYS39       0.1561
    114  C         44.2550   17.3680   40.3780 C.2    39  LYS39       0.2260
    115  O         45.1400   16.5440   40.5080 O.2    39  LYS39      -0.2867
    116  CB        44.6020   17.7410   37.9440 C.3    39  LYS39       0.0271
    117  CG        44.0390   17.8100   36.5380 C.3    39  LYS39       0.0035
    118  CD        43.3090   16.4790   36.2390 C.3    39  LYS39       0.0206
    119  CE        43.1000   16.2410   34.7820 C.3    39  LYS39       0.1093
    120  NZ        42.5760   14.8580   34.5640 N.3    39  LYS39      -0.1314
    121  N         45.9040   19.6940   42.3460 N.3    41  LEU41      -0.1245
    122  CA        47.0460   20.5520   42.7050 C.3    41  LEU41       0.1561
    123  C         46.6380   21.6110   43.6800 C.2    41  LEU41       0.2260
    124  O         45.6210   22.2200   43.5240 O.2    41  LEU41      -0.2867
    125  CB        47.7560   21.2140   41.4830 C.3    41  LEU41       0.0270
    126  CG        48.7690   20.3380   40.7560 C.3    41  LEU41       0.0019
    127  CD1       48.1050   19.2330   39.9450 C.3    41  LEU41       0.0001
    128  CD2       49.6720   21.1600   39.9080 C.3    41  LEU41       0.0001
@<TRIPOS>BOND
     1    58    59    1
     2    58    57    1
     3    59    60    1
     4    62    61    1
     5    60    61    2
     6    61    63    1
     7    57    54    1
     8    53    54    1
     9    54    55    1
    10    52    50   ar
    11    51    50   ar
    12    55    56    2
    13    55    64   am
    14    50    49    1
    15    47    48    2
    16    47    46    1
    17    64    65    1
    18    46    49    1
    19    46    45    1
    20    71    72    1
    21    76    75    1
    22    65    66    1
    23    65    68    1
    24    66    67    2
    25    72    75    1
    26    72    73    1
    27    33    31   ar
    28    70    68    1
    29    68    69    1
    30    75    77    1
    31    73    74    2
    32    31    32   ar
    33    31    30    1
    34    28    27    2
    35    37    36    2
    36    30    29    1
    37    92    91    1
    38    36    35    1
    39    27    26    1
    40    27    34   am
    41    35    34    1
    42    35    38    1
    43    42    40   ar
    44    42    44   ar
    45    90    91    1
    46    90    89    1
    47    40    39   ar
    48    26    29    1
    49    26    25    1
    50    44    43   ar
    51    83    82    1
    52    89    88    1
    53    39    38    1
    54    39    41   ar
    55    82    79    1
    56    43    41   ar
    57    88    85    1
    58   101   103   ar
    59   101    99   ar
    60   103   102   ar
    61    79    78    1
    62    79    80    1
    63    84    80   am
    64    84    85    1
    65    99    98   ar
    66   102   100   ar
    67    80    81    2
    68    23    22    2
    69    85    86    1
    70    15    14    2
    71    98   100   ar
    72    98    97    1
    73    97    94    1
    74    22    21    1
    75   120   119    1
    76    14    13    1
    77    14    20   am
    78    18    17    2
    79   119   118    1
    80    86    87    2
    81    13    16    1
    82    13    12    1
    83    21    20    1
    84    21    24    1
    85    94    93    1
    86    94    95    1
    87    17    16    1
    88    17    19   am
    89   111   109    1
    90   118   117    1
    91   109   110    1
    92   109   108    1
    93    95   104   am
    94    95    96    2
    95   117   116    1
    96   104   105    1
    97   105   108    1
    98   105   106    1
    99   116   113    1
   100     4     3    2
   101   112   113    1
   102   106   107    2
   103   113   114    1
   104     3     2    1
   105   128   126    1
   106   127   126    1
   107     2     1    1
   108     2     5    1
   109   114   115    2
   110   126   125    1
   111     5     6    1
   112   125   122    1
   113     6     7    1
   114   121   122    1
   115   122   123    1
   116     7     8    1
   117   124   123    2
   118     8     9    2
   119     9    10    1
   120     9    11    1
