@<TRIPOS>MOLECULE
tmp/5omqA00.pdb
 106 104 0 0 0
SMALL
GASTEIGER

@<TRIPOS>ATOM
      1  N        111.2430  108.8540   19.5530 N.3   209  TYR209     -0.1227
      2  CA       109.9470  109.4790   19.7700 C.3   209  TYR209      0.1736
      3  C        109.7460  110.4540   18.6130 C.2   209  TYR209      0.2595
      4  O        110.3940  111.5090   18.5700 O.2   209  TYR209     -0.2718
      5  CB       109.8610  110.1760   21.1340 C.3   209  TYR209      0.0548
      6  CG       108.4260  110.5680   21.4610 C.ar  209  TYR209     -0.0200
      7  CD1      107.4620  109.5960   21.7200 C.ar  209  TYR209     -0.0009
      8  CD2      108.0300  111.8990   21.4690 C.ar  209  TYR209     -0.0009
      9  CE1      106.1260  109.9410   21.9800 C.ar  209  TYR209      0.0417
     10  CE2      106.7090  112.2590   21.7350 C.ar  209  TYR209      0.0417
     11  CZ       105.7590  111.2740   21.9820 C.ar  209  TYR209      0.1957
     12  OH       104.4430  111.6260   22.2250 O.3   209  TYR209     -0.2866
     13  N        108.8760  110.0700   17.6640 N.am  210  ASN210     -0.1974
     14  CA       108.6650  110.7580   16.3820 C.3   210  ASN210      0.1688
     15  C        109.8820  110.6950   15.4620 C.2   210  ASN210      0.2292
     16  O        110.0920  111.5960   14.6440 O.2   210  ASN210     -0.2864
     17  CB       108.2460  112.2170   16.5680 C.3   210  ASN210      0.1181
     18  CG       107.3250  112.7170   15.4390 C.2   210  ASN210      0.2629
     19  OD1      106.5600  111.9440   14.8300 O.2   210  ASN210     -0.2716
     20  ND2      107.3940  114.0160   15.1630 N.am  210  ASN210     -0.0877
     21  N        109.2130  111.0020   11.6360 N.3   213  ASN213     -0.1240
     22  CA       108.9220  112.2650   10.9880 C.3   213  ASN213      0.1653
     23  C        109.9470  113.3500   11.2350 C.2   213  ASN213      0.2266
     24  O        110.0490  114.2650   10.4090 O.2   213  ASN213     -0.2867
     25  CB       107.5430  112.7770   11.4260 C.3   213  ASN213      0.1155
     26  CG       106.4340  111.8620   10.9880 C.2   213  ASN213      0.2627
     27  OD1      106.1780  111.7100    9.7930 O.2   213  ASN213     -0.2716
     28  ND2      105.7900  111.2220   11.9430 N.am  213  ASN213     -0.0877
     29  N        101.9580  110.9760    6.5280 N.3   247  ARG247     -0.1245
     30  CA       103.1770  110.9110    7.3190 C.3   247  ARG247      0.1563
     31  C        104.2060  110.0330    6.6070 C.2   247  ARG247      0.2260
     32  O        103.9580  109.4760    5.5330 O.2   247  ARG247     -0.2867
     33  CB       102.8760  110.3810    8.7290 C.3   247  ARG247      0.0307
     34  CG       101.8900  111.2160    9.5530 C.3   247  ARG247      0.0489
     35  CD       101.2800  110.4040   10.7040 C.3   247  ARG247      0.2205
     36  NE       100.5270  111.2390   11.6440 N.pl3 247  ARG247     -0.0865
     37  CZ       100.0180  110.8100   12.7990 C.cat 247  ARG247      0.5346
     38  NH1      100.1740  109.5450   13.1730 N.pl3 247  ARG247      0.1354
     39  NH2       99.3590  111.6490   13.5880 N.pl3 247  ARG247      0.1354
     40  N        105.8350  107.1910   19.0570 N.3   261  TYR261     -0.1241
     41  CA       104.7240  108.1380   18.9590 C.3   261  TYR261      0.1605
     42  C        103.4150  107.4680   18.5380 C.2   261  TYR261      0.2264
     43  O        102.3950  107.6270   19.2340 O.2   261  TYR261     -0.2867
     44  CB       105.0520  109.2740   17.9830 C.3   261  TYR261      0.0534
     45  CG       103.8740  110.1970   17.8070 C.ar  261  TYR261     -0.0201
     46  CD1      103.5670  111.1520   18.7610 C.ar  261  TYR261     -0.0009
     47  CD2      103.0450  110.0870   16.7120 C.ar  261  TYR261     -0.0009
     48  CE1      102.4630  111.9860   18.6270 C.ar  261  TYR261      0.0417
     49  CE2      101.9390  110.9180   16.5620 C.ar  261  TYR261      0.0417
     50  CZ       101.6510  111.8670   17.5200 C.ar  261  TYR261      0.1957
     51  OH       100.5490  112.6940   17.3690 O.3   261  TYR261     -0.2866
     52  N         98.2080  117.3110   24.7700 N.3   272  THR272     -0.1203
     53  CA        99.3540  117.4010   23.8780 C.3   272  THR272      0.1994
     54  C        100.2030  116.1490   24.0390 C.2   272  THR272      0.2618
     55  O        100.0150  115.3580   24.9630 O.2   272  THR272     -0.2717
     56  CB       100.2000  118.6440   24.1560 C.3   272  THR272      0.1784
     57  OG1      101.0620  118.3900   25.2710 O.3   272  THR272     -0.2211
     58  CG2       99.3020  119.8390   24.4530 C.3   272  THR272      0.0376
     59  N        101.1430  115.9620   23.1260 N.am  273  TYR273     -0.1961
     60  CA       101.9070  114.7240   23.1190 C.3   273  TYR273      0.1771
     61  C        103.4010  114.9890   23.1390 C.2   273  TYR273      0.2620
     62  O        104.1800  114.2300   22.5600 O.2   273  TYR273     -0.2715
     63  CB       101.5170  113.8530   21.9300 C.3   273  TYR273      0.0574
     64  CG       100.2350  113.1560   22.1900 C.ar  273  TYR273     -0.0198
     65  CD1       99.0160  113.7930   21.9610 C.ar  273  TYR273     -0.0009
     66  CD2      100.2270  111.8680   22.6960 C.ar  273  TYR273     -0.0009
     67  CE1       97.8250  113.1580   22.2240 C.ar  273  TYR273      0.0417
     68  CE2       99.0480  111.2210   22.9510 C.ar  273  TYR273      0.0417
     69  CZ        97.8480  111.8770   22.7160 C.ar  273  TYR273      0.1957
     70  OH        96.6770  111.2500   22.9730 O.3   273  TYR273     -0.2866
     71  N        103.8110  116.0610   23.8100 N.am  274  THR274     -0.1951
     72  CA       105.2200  116.2520   24.0790 C.3   274  THR274      0.1897
     73  C        105.7620  115.0440   24.8250 C.2   274  THR274      0.2313
     74  O        105.0260  114.2920   25.4730 O.2   274  THR274     -0.2863
     75  CB       105.4560  117.5160   24.9020 C.3   274  THR274      0.1794
     76  OG1      104.6520  117.4720   26.0860 O.3   274  THR274     -0.2208
     77  CG2      105.0930  118.7460   24.0870 C.3   274  THR274      0.0378
     78  N         99.5780  119.8120    9.4040 N.3   694  ARG694     -0.1231
     79  CA        99.1640  118.5670    8.7840 C.3   694  ARG694      0.1679
     80  C         98.2130  117.8710    9.7340 C.2   694  ARG694      0.2434
     81  O         98.1770  118.1850   10.9300 O.2   694  ARG694     -0.2733
     82  CB       100.3550  117.6490    8.4680 C.3   694  ARG694      0.0321
     83  CG       101.1310  117.9970    7.1880 C.3   694  ARG694      0.0489
     84  CD       102.1850  116.9240    6.8810 C.3   694  ARG694      0.2205
     85  NE       102.9740  117.2120    5.6760 N.pl3 694  ARG694     -0.0865
     86  CZ       104.1080  116.5880    5.3480 C.cat 694  ARG694      0.5346
     87  NH1      104.6050  115.6400    6.1340 N.pl3 694  ARG694      0.1354
     88  NH2      104.7550  116.9190    4.2370 N.pl3 694  ARG694      0.1354
     89  N         97.4230  116.9310    9.2350 N.am  695  PRO695     -0.2718
     90  CA        96.5100  116.1940   10.1160 C.3   695  PRO695      0.1535
     91  C         97.2620  115.5800   11.2880 C.2   695  PRO695      0.2599
     92  O         98.2760  114.8940   11.1190 O.2   695  PRO695     -0.2715
     93  CB        95.9170  115.1270    9.1920 C.3   695  PRO695      0.0310
     94  CG        96.0220  115.7400    7.8380 C.3   695  PRO695      0.0237
     95  CD        97.3020  116.5140    7.8330 C.3   695  PRO695      0.0939
     96  N         96.7680  115.8500   12.4860 N.am  696  GLY696     -0.1941
     97  CA        97.4280  115.4750   13.7130 C.3   696  GLY696      0.2014
     98  C         98.0940  116.6290   14.4260 C.2   696  GLY696      0.2639
     99  O         98.4120  116.5050   15.6140 O.2   696  GLY696     -0.2714
    100  N         98.3300  117.7420   13.7390 N.am  697  THR697     -0.1950
    101  CA        98.8200  118.9270   14.4240 C.3   697  THR697      0.1897
    102  C         97.8160  119.3510   15.4870 C.2   697  THR697      0.2313
    103  O         96.6230  119.5000   15.2100 O.2   697  THR697     -0.2863
    104  CB        99.0430  120.0620   13.4350 C.3   697  THR697      0.1794
    105  OG1      100.0400  119.6830   12.4850 O.3   697  THR697     -0.2208
    106  CG2       99.5000  121.3100   14.1650 C.3   697  THR697      0.0378
@<TRIPOS>BOND
     1    88    86    1
     2    86    85    2
     3    86    87    1
     4    32    31    2
     5    85    84    1
     6    29    30    1
     7    31    30    1
     8    84    83    1
     9    83    82    1
    10    30    33    1
    11    95    94    1
    12    95    89    1
    13    94    93    1
    14    82    79    1
    15    33    34    1
    16    79    78    1
    17    79    80    1
    18    93    90    1
    19    89    80   am
    20    89    90    1
    21    34    35    1
    22    80    81    2
    23    27    26    2
    24    90    91    1
    25    24    23    2
    26    35    36    1
    27    26    25    1
    28    26    28   am
    29    22    23    1
    30    22    25    1
    31    22    21    1
    32    92    91    2
    33    91    96   am
    34    36    37    2
    35   105   104    1
    36    96    97    1
    37    37    38    1
    38    37    39    1
    39   104   106    1
    40   104   101    1
    41    97    98    1
    42   100   101    1
    43   100    98   am
    44   101   102    1
    45    98    99    2
    46    16    15    2
    47    19    18    2
    48    20    18   am
    49   103   102    2
    50    18    17    1
    51    15    14    1
    52    14    17    1
    53    14    13    1
    54    49    47   ar
    55    49    50   ar
    56    47    45   ar
    57    51    50    1
    58    50    48   ar
    59    13     3   am
    60    45    44    1
    61    45    46   ar
    62    44    41    1
    63    42    41    1
    64    42    43    2
    65     4     3    2
    66     3     2    1
    67    48    46   ar
    68    41    40    1
    69     1     2    1
    70     2     5    1
    71     5     6    1
    72     6     8   ar
    73     6     7   ar
    74     8    10   ar
    75     7     9   ar
    76    10    11   ar
    77    63    64    1
    78    63    60    1
    79    65    64   ar
    80    65    67   ar
    81     9    11   ar
    82    11    12    1
    83    64    66   ar
    84    67    69   ar
    85    62    61    2
    86    66    68   ar
    87    69    68   ar
    88    69    70    1
    89    60    59    1
    90    60    61    1
    91    59    54   am
    92    61    71   am
    93    71    72    1
    94    53    54    1
    95    53    56    1
    96    53    52    1
    97    54    55    2
    98    72    73    1
    99    72    75    1
   100    77    75    1
   101    56    58    1
   102    56    57    1
   103    73    74    2
   104    75    76    1
