@<TRIPOS>MOLECULE
tmp/5omqA01.pdb
 156 150 0 0 0
SMALL
GASTEIGER

@<TRIPOS>ATOM
      1  N         77.8600   95.1530   33.9130 N.3   404  ASP404     -0.1225
      2  CA        78.3590   95.3360   32.5540 C.3   404  ASP404      0.1805
      3  C         78.7450   94.0100   31.9220 C.2   404  ASP404      0.2598
      4  O         79.4410   93.2080   32.5520 O.2   404  ASP404     -0.2718
      5  CB        79.5540   96.2830   32.5580 C.3   404  ASP404      0.1424
      6  CG        80.0310   96.6170   31.1520 C.2   404  ASP404      0.3668
      7  OD1       80.5590   95.7210   30.4780 O.co2 404  ASP404     -0.2456
      8  OD2       79.8650   97.7770   30.7310 O.co2 404  ASP404     -0.2456
      9  N         78.3110   93.8070   30.6710 N.am  405  PHE405     -0.1962
     10  CA        78.6030   92.5810   29.9260 C.3   405  PHE405      0.1771
     11  C         80.0930   92.4580   29.5670 C.2   405  PHE405      0.2619
     12  O         80.7220   93.4000   29.0660 O.2   405  PHE405     -0.2715
     13  CB        77.7680   92.5240   28.6310 C.3   405  PHE405      0.0574
     14  CG        76.3070   92.1280   28.8310 C.ar  405  PHE405     -0.0200
     15  CD1       75.9440   90.8010   28.9820 C.ar  405  PHE405     -0.0042
     16  CD2       75.3030   93.0900   28.8240 C.ar  405  PHE405     -0.0042
     17  CE1       74.6290   90.4460   29.1550 C.ar  405  PHE405     -0.0003
     18  CE2       73.9850   92.7380   28.9860 C.ar  405  PHE405     -0.0003
     19  CZ        73.6400   91.4150   29.1520 C.ar  405  PHE405     -0.0000
     20  N         80.6380   91.2590   29.7850 N.am  406  ARG406     -0.1963
     21  CA        82.0010   90.9460   29.3790 C.3   406  ARG406      0.1729
     22  C         82.0910   90.8110   27.8620 C.2   406  ARG406      0.2617
     23  O         81.3820   89.9890   27.2730 O.2   406  ARG406     -0.2715
     24  CB        82.4460   89.6490   30.0380 C.3   406  ARG406      0.0348
     25  CG        83.6900   89.0860   29.4130 C.3   406  ARG406      0.0492
     26  CD        84.0390   87.7570   30.0370 C.3   406  ARG406      0.2205
     27  NE        82.9750   86.7730   29.8850 N.pl3 406  ARG406     -0.0865
     28  CZ        83.0490   85.5310   30.3510 C.cat 406  ARG406      0.5346
     29  NH1       84.1380   85.1340   31.0060 N.pl3 406  ARG406      0.1354
     30  NH2       82.0390   84.6850   30.1700 N.pl3 406  ARG406      0.1354
     31  N         82.9610   91.5950   27.2300 N.am  407  SER407     -0.1936
     32  CA        83.2600   91.4190   25.8080 C.3   407  SER407      0.2055
     33  C         81.9750   91.1770   25.0200 C.2   407  SER407      0.2643
     34  O         81.7770   90.1100   24.4490 O.2   407  SER407     -0.2714
     35  CB        84.2070   90.2350   25.5970 C.3   407  SER407      0.2130
     36  OG        85.4350   90.3670   26.2930 O.3   407  SER407     -0.2179
     37  N         81.0570   92.1500   25.0590 N.am  408  LEU408     -0.1963
     38  CA        79.6910   91.8640   24.5990 C.3   408  LEU408      0.1728
     39  C         79.6470   91.5480   23.1040 C.2   408  LEU408      0.2616
     40  O         79.2490   90.4470   22.7110 O.2   408  LEU408     -0.2715
     41  CB        78.7390   93.0140   24.9250 C.3   408  LEU408      0.0311
     42  CG        77.3480   92.7250   24.3520 C.3   408  LEU408      0.0022
     43  CD1       76.6140   91.6590   25.1910 C.3   408  LEU408      0.0001
     44  CD2       76.5130   93.9970   24.1820 C.3   408  LEU408      0.0001
     45  N         80.0260   92.5010   22.2460 N.am  409  TYR409     -0.1974
     46  CA        79.8720   92.2510   20.8070 C.3   409  TYR409      0.1639
     47  C         80.6660   91.0410   20.3430 C.2   409  TYR409      0.2290
     48  O         80.1160   90.2160   19.5950 O.2   409  TYR409     -0.2864
     49  CB        80.2540   93.4860   19.9970 C.3   409  TYR409      0.0560
     50  CG        79.2210   94.5940   20.0300 C.ar  409  TYR409     -0.0198
     51  CD1       78.1700   94.5750   20.9500 C.ar  409  TYR409     -0.0009
     52  CD2       79.2950   95.6630   19.1290 C.ar  409  TYR409     -0.0009
     53  CE1       77.2420   95.6020   20.9930 C.ar  409  TYR409      0.0417
     54  CE2       78.3640   96.6970   19.1550 C.ar  409  TYR409      0.0417
     55  CZ        77.3440   96.6560   20.1010 C.ar  409  TYR409      0.1957
     56  OH        76.4350   97.6710   20.1430 O.3   409  TYR409     -0.2866
     57  N         93.0430   88.2150   26.3750 N.3   460  ARG460     -0.1245
     58  CA        92.7280   89.3580   27.2240 C.3   460  ARG460      0.1563
     59  C         92.5020   88.9210   28.6640 C.2   460  ARG460      0.2260
     60  O         93.1170   89.4640   29.5890 O.2   460  ARG460     -0.2867
     61  CB        91.5070   90.1110   26.7000 C.3   460  ARG460      0.0307
     62  CG        90.8040   90.9630   27.7680 C.3   460  ARG460      0.0489
     63  CD        89.9720   92.0400   27.1180 C.3   460  ARG460      0.2205
     64  NE        89.5840   93.1190   28.0170 N.pl3 460  ARG460     -0.0865
     65  CZ        88.3260   93.3880   28.3670 C.cat 460  ARG460      0.5346
     66  NH1       87.3310   92.6590   27.8880 N.pl3 460  ARG460      0.1354
     67  NH2       88.0650   94.3950   29.1870 N.pl3 460  ARG460      0.1354
     68  N         94.3020   90.2450   31.8570 N.3   464  LYS464     -0.1245
     69  CA        93.5100   90.8780   32.9110 C.3   464  LYS464      0.1561
     70  C         93.7960   90.2520   34.2740 C.2   464  LYS464      0.2260
     71  O         93.9880   90.9630   35.2680 O.2   464  LYS464     -0.2867
     72  CB        92.0210   90.7980   32.5820 C.3   464  LYS464      0.0271
     73  CG        91.3330   92.1490   32.5770 C.3   464  LYS464      0.0035
     74  CD        89.8190   92.0010   32.3890 C.3   464  LYS464      0.0206
     75  CE        89.1250   93.3550   32.4520 C.3   464  LYS464      0.1093
     76  NZ        87.7020   93.2560   32.8730 N.3   464  LYS464     -0.1314
     77  N         91.3260   94.1500   23.8360 N.3   487  LYS487     -0.1231
     78  CA        89.8810   94.3630   23.7810 C.3   487  LYS487      0.1693
     79  C         89.4900   95.2360   22.5920 C.2   487  LYS487      0.2591
     80  O         88.4610   94.9910   21.9520 O.2   487  LYS487     -0.2718
     81  CB        89.3680   94.9880   25.0770 C.3   487  LYS487      0.0285
     82  CG        87.9700   95.6280   24.9270 C.3   487  LYS487      0.0035
     83  CD        87.4770   96.2540   26.2130 C.3   487  LYS487      0.0206
     84  CE        86.6500   97.5090   25.9700 C.3   487  LYS487      0.1093
     85  NZ        86.1520   98.0760   27.2800 N.3   487  LYS487     -0.1314
     86  N         90.2690   96.2780   22.2950 N.am  488  ILE488     -0.1980
     87  CA        89.9180   97.1210   21.1600 C.3   488  ILE488      0.1595
     88  C         90.0810   96.3430   19.8580 C.2   488  ILE488      0.2287
     89  O         89.2690   96.4660   18.9370 O.2   488  ILE488     -0.2864
     90  CB        90.7510   98.4100   21.1660 C.3   488  ILE488      0.0276
     91  CG1       90.4530   99.2220   22.4230 C.3   488  ILE488      0.0022
     92  CG2       90.4520   99.2360   19.9240 C.3   488  ILE488      0.0022
     93  CD1       91.4260  100.3810   22.6460 C.3   488  ILE488      0.0001
     94  N         87.0460   94.0660   19.5340 N.3   491  ASN491     -0.1225
     95  CA        85.8630   94.8150   19.1370 C.3   491  ASN491      0.1785
     96  C         85.9750   95.3160   17.7000 C.2   491  ASN491      0.2597
     97  O         84.9650   95.4370   16.9990 O.2   491  ASN491     -0.2718
     98  CB        85.6370   95.9530   20.1230 C.3   491  ASN491      0.1169
     99  CG        85.0540   95.4530   21.4280 C.2   491  ASN491      0.2627
    100  OD1       84.4980   94.3460   21.4880 O.2   491  ASN491     -0.2716
    101  ND2       85.1860   96.2450   22.4750 N.am  491  ASN491     -0.0877
    102  N         87.1960   95.6050   17.2570 N.am  492  SER492     -0.1952
    103  CA        87.4340   96.0070   15.8860 C.3   492  SER492      0.1924
    104  C         87.0530   94.9220   14.8900 C.2   492  SER492      0.2314
    105  O         86.8570   95.2270   13.7100 O.2   492  SER492     -0.2863
    106  CB        88.8970   96.4000   15.7220 C.3   492  SER492      0.2116
    107  OG        89.1110   97.7230   16.1920 O.3   492  SER492     -0.2180
    108  N         84.2340   93.2610   15.2080 N.3   494  TYR494     -0.1227
    109  CA        82.8340   93.6140   14.9820 C.3   494  TYR494      0.1736
    110  C         82.7320   94.8200   14.0480 C.2   494  TYR494      0.2596
    111  O         81.9880   94.7900   13.0590 O.2   494  TYR494     -0.2718
    112  CB        82.0890   93.8900   16.3020 C.3   494  TYR494      0.0548
    113  CG        81.0990   94.9970   16.0960 C.ar  494  TYR494     -0.0200
    114  CD1       79.8980   94.7790   15.3970 C.ar  494  TYR494     -0.0009
    115  CD2       81.4010   96.2850   16.4930 C.ar  494  TYR494     -0.0009
    116  CE1       79.0160   95.8070   15.1600 C.ar  494  TYR494      0.0417
    117  CE2       80.5130   97.3310   16.2430 C.ar  494  TYR494      0.0417
    118  CZ        79.3300   97.0760   15.5840 C.ar  494  TYR494      0.1957
    119  OH        78.4760   98.1120   15.3290 O.3   494  TYR494     -0.2866
    120  N         83.4650   95.8940   14.3590 N.am  495  GLY495     -0.1957
    121  CA        83.3940   97.0960   13.5440 C.3   495  GLY495      0.1869
    122  C         83.8390   96.8560   12.1140 C.2   495  GLY495      0.2309
    123  O         83.3640   97.5200   11.1820 O.2   495  GLY495     -0.2863
    124  N         74.5780  100.6660   26.0320 N.3   541  THR541     -0.1203
    125  CA        74.9550   99.5370   25.1840 C.3   541  THR541      0.1994
    126  C         74.9220   98.2060   25.9150 C.2   541  THR541      0.2617
    127  O         74.1580   97.3050   25.5560 O.2   541  THR541     -0.2717
    128  CB        76.3490   99.7380   24.5880 C.3   541  THR541      0.1784
    129  OG1       76.4220  101.0190   23.9470 O.3   541  THR541     -0.2211
    130  CG2       76.6340   98.6380   23.5670 C.3   541  THR541      0.0376
    131  N         75.7880   98.0420   26.9090 N.am  542  ASP542     -0.1973
    132  CA        75.8680   96.7550   27.5810 C.3   542  ASP542      0.1709
    133  C         76.1790   96.8980   29.0660 C.2   542  ASP542      0.2293
    134  O         76.4850   95.8860   29.7240 O.2   542  ASP542     -0.2864
    135  CB        76.9230   95.8910   26.9230 C.3   542  ASP542      0.1436
    136  CG        78.3290   96.2210   27.4140 C.2   542  ASP542      0.3671
    137  OD1       78.6650   97.4130   27.5670 O.co2 542  ASP542     -0.2456
    138  OD2       79.0870   95.2710   27.6330 O.co2 542  ASP542     -0.2456
    139  N         78.6800   90.9990   34.3280 N.3   578  GLU578     -0.1245
    140  CA        79.6690   91.0880   35.3940 C.3   578  GLU578      0.1567
    141  C         79.3080   92.1980   36.3830 C.2   578  GLU578      0.2260
    142  O         78.8510   93.2780   35.9930 O.2   578  GLU578     -0.2867
    143  CB        81.0930   91.3160   34.8310 C.3   578  GLU578      0.0388
    144  CG        81.7230   90.1050   34.0840 C.3   578  GLU578      0.1160
    145  CD        83.2000   90.3220   33.6270 C.2   578  GLU578      0.3649
    146  OE1       83.5510   91.3960   33.0700 O.co2 578  GLU578     -0.2457
    147  OE2       84.0200   89.3940   33.8190 O.co2 578  GLU578     -0.2457
    148  N         80.7590   95.0150   38.1860 N.3   580  GLU580     -0.1245
    149  CA        81.9270   95.7790   37.7780 C.3   580  GLU580      0.1567
    150  C         82.3320   96.8730   38.7480 C.2   580  GLU580      0.2260
    151  O         83.5150   97.1990   38.8170 O.2   580  GLU580     -0.2867
    152  CB        81.7050   96.4040   36.3970 C.3   580  GLU580      0.0388
    153  CG        82.9220   97.1780   35.8780 C.3   580  GLU580      0.1160
    154  CD        83.0600   97.1410   34.3520 C.2   580  GLU580      0.3649
    155  OE1       82.9200   96.0470   33.7650 O.co2 580  GLU580     -0.2457
    156  OE2       83.3150   98.2070   33.7500 O.co2 580  GLU580     -0.2457
@<TRIPOS>BOND
     1   123   122    2
     2   122   121    1
     3   111   110    2
     4   121   120    1
     5   105   104    2
     6   110   120   am
     7   110   109    1
     8   104   103    1
     9   109   108    1
    10   109   112    1
    11   116   114   ar
    12   116   118   ar
    13   119   118    1
    14   114   113   ar
    15   118   117   ar
    16   106   103    1
    17   106   107    1
    18   103   102    1
    19   113   112    1
    20   113   115   ar
    21   117   115   ar
    22    97    96    2
    23   102    96   am
    24    96    95    1
    25    89    88    2
    26    52    54   ar
    27    52    50   ar
    28    95    94    1
    29    95    98    1
    30    54    55   ar
    31    48    47    2
    32    88    87    1
    33    92    90    1
    34    49    50    1
    35    49    46    1
    36    50    51   ar
    37    55    56    1
    38    55    53   ar
    39    98    99    1
    40    47    46    1
    41    46    45    1
    42    51    53   ar
    43    87    90    1
    44    87    86    1
    45    90    91    1
    46    99   100    2
    47    99   101   am
    48    80    79    2
    49    45    39   am
    50    86    79   am
    51    91    93    1
    52    79    78    1
    53    40    39    2
    54    39    38    1
    55   130   128    1
    56    78    77    1
    57    78    81    1
    58   129   128    1
    59    44    42    1
    60    42    41    1
    61    42    43    1
    62    34    33    2
    63   128   125    1
    64    38    41    1
    65    38    37    1
    66    82    81    1
    67    82    83    1
    68    33    37   am
    69    33    32    1
    70   125   126    1
    71   125   124    1
    72   127   126    2
    73    35    32    1
    74    35    36    1
    75    32    31    1
    76   126   131   am
    77    84    83    1
    78    84    85    1
    79    57    58    1
    80    61    58    1
    81    61    62    1
    82   131   132    1
    83   135   136    1
    84   135   132    1
    85    63    62    1
    86    63    64    1
    87    58    59    1
    88    31    22   am
    89    23    22    2
    90   136   137   ar
    91   136   138   ar
    92   132   133    1
    93    22    21    1
    94    66    65    1
    95    64    65    2
    96    65    67    1
    97    13    14    1
    98    13    10    1
    99    59    60    2
   100    16    14   ar
   101    16    18   ar
   102    14    15   ar
   103    15    17   ar
   104    18    19   ar
   105    12    11    2
   106   133   134    2
   107    19    17   ar
   108    21    20    1
   109    21    24    1
   110    25    26    1
   111    25    24    1
   112    11    20   am
   113    11    10    1
   114    27    26    1
   115    27    28    2
   116    10     9    1
   117    30    28    1
   118    28    29    1
   119     7     6   ar
   120     9     3   am
   121     8     6   ar
   122     6     5    1
   123    68    69    1
   124     3     4    2
   125     3     2    1
   126    74    75    1
   127    74    73    1
   128    75    76    1
   129     2     5    1
   130     2     1    1
   131    73    72    1
   132    72    69    1
   133    69    70    1
   134   146   145   ar
   135   145   147   ar
   136   145   144    1
   137   156   154   ar
   138   155   154   ar
   139   144   143    1
   140    70    71    2
   141   139   140    1
   142   154   153    1
   143   143   140    1
   144   140   141    1
   145   153   152    1
   146   142   141    2
   147   152   149    1
   148   149   148    1
   149   149   150    1
   150   150   151    2
