@<TRIPOS>MOLECULE
tmp/5omrA01.pdb
 103 98 0 0 0
SMALL
GASTEIGER

@<TRIPOS>ATOM
      1  N         40.9120   72.3140   30.9540 N.3    71  PHE71      -0.1241
      2  CA        39.6750   72.4410   31.7390 C.3    71  PHE71       0.1605
      3  C         38.3830   72.2480   30.9430 C.2    71  PHE71       0.2264
      4  O         37.3610   71.9020   31.5460 O.2    71  PHE71      -0.2867
      5  CB        39.5920   73.8210   32.4020 C.3    71  PHE71       0.0534
      6  CG        40.5360   74.0240   33.5790 C.ar   71  PHE71      -0.0203
      7  CD1       41.2530   72.9660   34.1230 C.ar   71  PHE71      -0.0042
      8  CD2       40.6800   75.2970   34.1340 C.ar   71  PHE71      -0.0042
      9  CE1       42.0960   73.1780   35.2260 C.ar   71  PHE71      -0.0003
     10  CE2       41.5170   75.5110   35.2370 C.ar   71  PHE71      -0.0003
     11  CZ        42.2280   74.4380   35.7690 C.ar   71  PHE71      -0.0000
     12  N         36.7090   80.7340   34.9170 N.3    77  ILE77      -0.1245
     13  CA        37.6650   81.7230   34.4320 C.3    77  ILE77       0.1561
     14  C         37.5030   82.0400   32.9530 C.2    77  ILE77       0.2260
     15  O         38.0650   83.0400   32.4810 O.2    77  ILE77      -0.2867
     16  CB        39.1180   81.2630   34.6770 C.3    77  ILE77       0.0252
     17  CG1       39.4070   79.9500   33.9520 C.3    77  ILE77       0.0019
     18  CG2       39.4160   81.1130   36.1800 C.3    77  ILE77       0.0019
     19  CD1       40.9150   79.5250   34.0290 C.3    77  ILE77       0.0001
     20  N         47.9280   72.8270   32.3300 N.3   165  PHE165     -0.1241
     21  CA        47.3620   74.1470   32.0860 C.3   165  PHE165      0.1605
     22  C         48.3880   75.0930   31.4720 C.2   165  PHE165      0.2264
     23  O         48.0390   75.9400   30.6400 O.2   165  PHE165     -0.2867
     24  CB        46.8400   74.7210   33.4040 C.3   165  PHE165      0.0534
     25  CG        46.0190   75.9850   33.2510 C.ar  165  PHE165     -0.0203
     26  CD1       46.6240   77.2210   33.0660 C.ar  165  PHE165     -0.0042
     27  CD2       44.6410   75.9210   33.3380 C.ar  165  PHE165     -0.0042
     28  CE1       45.8720   78.3770   32.9260 C.ar  165  PHE165     -0.0003
     29  CE2       43.8730   77.0750   33.2100 C.ar  165  PHE165     -0.0003
     30  CZ        44.4880   78.3030   33.0020 C.ar  165  PHE165     -0.0000
     31  N         39.1620   74.2290   38.2200 N.3   237  VAL237     -0.1231
     32  CA        39.7320   75.5380   38.5600 C.3   237  VAL237      0.1692
     33  C         40.1600   75.5500   40.0250 C.2   237  VAL237      0.2592
     34  O         41.2260   76.0750   40.3780 O.2   237  VAL237     -0.2718
     35  CB        38.7210   76.6620   38.2590 C.3   237  VAL237      0.0266
     36  CG1       39.1850   77.9910   38.8740 C.3   237  VAL237      0.0020
     37  CG2       38.5500   76.8160   36.7370 C.3   237  VAL237      0.0020
     38  N         39.3360   74.9610   40.8990 N.am  238  TYR238     -0.1976
     39  CA        39.7060   74.8930   42.3120 C.3   238  TYR238      0.1639
     40  C         40.8410   73.9090   42.5490 C.2   238  TYR238      0.2290
     41  O         41.7480   74.1830   43.3420 O.2   238  TYR238     -0.2864
     42  CB        38.5060   74.4820   43.1690 C.3   238  TYR238      0.0560
     43  CG        37.6590   75.6300   43.6810 C.ar  238  TYR238     -0.0198
     44  CD1       37.0890   76.5520   42.8100 C.ar  238  TYR238     -0.0009
     45  CD2       37.3970   75.7540   45.0440 C.ar  238  TYR238     -0.0009
     46  CE1       36.2910   77.5890   43.2850 C.ar  238  TYR238      0.0417
     47  CE2       36.5950   76.7880   45.5360 C.ar  238  TYR238      0.0417
     48  CZ        36.0560   77.6850   44.6490 C.ar  238  TYR238      0.1957
     49  OH        35.2500   78.6720   45.1350 O.3   238  TYR238     -0.2866
     50  N         43.2550   73.0410   40.8070 N.3   240  LEU240     -0.1231
     51  CA        44.5470   73.6060   40.4300 C.3   240  LEU240      0.1693
     52  C         44.8220   74.8100   41.3250 C.2   240  LEU240      0.2593
     53  O         45.4120   74.6550   42.4000 O.2   240  LEU240     -0.2718
     54  CB        44.5550   73.9800   38.9410 C.3   240  LEU240      0.0284
     55  CG        45.9220   74.1330   38.2460 C.3   240  LEU240      0.0019
     56  CD1       45.7850   74.6400   36.8020 C.3   240  LEU240      0.0001
     57  CD2       46.9200   74.9650   39.0260 C.3   240  LEU240      0.0001
     58  N         44.3520   76.0000   40.9210 N.am  241  GLY241     -0.1942
     59  CA        44.7920   77.2240   41.5790 C.3   241  GLY241      0.2014
     60  C         44.3310   77.3890   43.0180 C.2   241  GLY241      0.2638
     61  O         45.0890   77.8570   43.8700 O.2   241  GLY241     -0.2714
     62  N         43.0710   77.0810   43.3090 N.am  242  ALA242     -0.1977
     63  CA        42.6430   77.3220   44.6790 C.3   242  ALA242      0.1597
     64  C         43.3900   76.4260   45.6560 C.2   242  ALA242      0.2287
     65  O         43.7130   76.8690   46.7660 O.2   242  ALA242     -0.2864
     66  CB        41.1280   77.1470   44.7970 C.3   242  ALA242      0.0319
     67  N         49.7560   83.3300   40.9780 N.3   288  ILE288     -0.1245
     68  CA        49.2160   83.2960   39.6250 C.3   288  ILE288      0.1561
     69  C         49.9600   84.3850   38.8550 C.2   288  ILE288      0.2260
     70  O         49.7600   85.5910   39.0580 O.2   288  ILE288     -0.2867
     71  CB        47.6970   83.4600   39.5990 C.3   288  ILE288      0.0252
     72  CG1       47.0910   82.3510   40.4380 C.3   288  ILE288      0.0019
     73  CG2       47.1980   83.3950   38.1590 C.3   288  ILE288      0.0019
     74  CD1       45.6090   82.0390   40.1150 C.3   288  ILE288      0.0001
     75  N         48.6400   83.1900   34.1640 N.3   291  ALA291     -0.1231
     76  CA        47.7080   82.1210   33.8220 C.3   291  ALA291      0.1694
     77  C         46.3650   82.6270   33.3370 C.2   291  ALA291      0.2592
     78  O         45.5530   81.8120   32.8960 O.2   291  ALA291     -0.2718
     79  CB        47.4660   81.2000   35.0320 C.3   291  ALA291      0.0304
     80  N         46.1120   83.9380   33.4360 N.am  292  THR292     -0.1953
     81  CA        44.8380   84.5900   33.1700 C.3   292  THR292      0.1897
     82  C         44.8820   85.2320   31.7870 C.2   292  THR292      0.2313
     83  O         45.9410   85.6920   31.3400 O.2   292  THR292     -0.2863
     84  CB        44.5860   85.6940   34.2260 C.3   292  THR292      0.1794
     85  OG1       44.9570   85.2250   35.5300 O.3   292  THR292     -0.2208
     86  CG2       43.1510   86.1440   34.2210 C.3   292  THR292      0.0378
     87  N         39.7450   87.5380   41.4870 N.3   352  CYS352     -0.1235
     88  CA        39.6910   86.4160   42.4160 C.3   352  CYS352      0.1677
     89  C         38.4790   86.4830   43.3430 C.2   352  CYS352      0.2270
     90  O         38.2530   87.4830   44.0280 O.2   352  CYS352     -0.2867
     91  CB        40.9820   86.4040   43.2510 C.3   352  CYS352      0.0956
     92  SG        41.0140   85.0720   44.4970 S.3   352  CYS352     -0.0801
     93  N         51.9470   79.6520   36.7680 N.3   391  PHE391     -0.1241
     94  CA        51.8890   79.6960   38.2260 C.3   391  PHE391      0.1605
     95  C         53.3110   79.5850   38.7470 C.2   391  PHE391      0.2264
     96  O         54.0790   78.7340   38.2830 O.2   391  PHE391     -0.2867
     97  CB        51.0400   78.5370   38.7990 C.3   391  PHE391      0.0534
     98  CG        49.7110   78.3900   38.1350 C.ar  391  PHE391     -0.0203
     99  CD1       48.6120   79.1230   38.5800 C.ar  391  PHE391     -0.0042
    100  CD2       49.5530   77.5360   37.0490 C.ar  391  PHE391     -0.0042
    101  CE1       47.3800   78.9980   37.9550 C.ar  391  PHE391     -0.0003
    102  CE2       48.3080   77.4120   36.4140 C.ar  391  PHE391     -0.0003
    103  CZ        47.2230   78.1550   36.8710 C.ar  391  PHE391     -0.0000
@<TRIPOS>BOND
     1    23    22    2
     2     3     4    2
     3     3     2    1
     4     1     2    1
     5    83    82    2
     6    22    21    1
     7     2     5    1
     8    82    81    1
     9    21    20    1
    10    21    24    1
    11     5     6    1
    12    15    14    2
    13    78    77    2
    14    28    30   ar
    15    28    26   ar
    16    14    13    1
    17    30    29   ar
    18    26    25   ar
    19    81    80    1
    20    81    84    1
    21    29    27   ar
    22    25    27   ar
    23    25    24    1
    24    77    80   am
    25    77    76    1
    26     6     7   ar
    27     6     8   ar
    28    76    75    1
    29    76    79    1
    30    17    19    1
    31    17    16    1
    32     7     9   ar
    33     8    10   ar
    34    86    84    1
    35    84    85    1
    36    13    16    1
    37    13    12    1
    38    16    18    1
    39     9    11   ar
    40    10    11   ar
    41   102   103   ar
    42   102   100   ar
    43    37    35    1
    44    93    94    1
    45    56    55    1
    46   103   101   ar
    47   100    98   ar
    48   101    99   ar
    49    98    99   ar
    50    98    97    1
    51    73    71    1
    52    31    32    1
    53    94    95    1
    54    94    97    1
    55    55    54    1
    56    55    57    1
    57    35    32    1
    58    35    36    1
    59    96    95    2
    60    32    33    1
    61    69    70    2
    62    69    68    1
    63    54    51    1
    64    71    68    1
    65    71    72    1
    66    68    67    1
    67    33    34    2
    68    33    38   am
    69    74    72    1
    70    51    50    1
    71    51    52    1
    72    38    39    1
    73    58    52   am
    74    58    59    1
    75    52    53    2
    76    87    88    1
    77    59    60    1
    78    39    40    1
    79    39    42    1
    80    88    91    1
    81    88    89    1
    82    40    41    2
    83    44    46   ar
    84    44    43   ar
    85    60    62   am
    86    60    61    2
    87    42    43    1
    88    91    92    1
    89    46    48   ar
    90    62    63    1
    91    89    90    2
    92    43    45   ar
    93    48    49    1
    94    48    47   ar
    95    63    66    1
    96    63    64    1
    97    45    47   ar
    98    64    65    2
