@<TRIPOS>MOLECULE
tmp/5omuA01.pdb
 112 106 0 0 0
SMALL
GASTEIGER

@<TRIPOS>ATOM
      1  N         41.6890   73.0130   30.7760 N.3    71  PHE71      -0.1241
      2  CA        40.4270   73.1510   31.5180 C.3    71  PHE71       0.1605
      3  C         39.1650   72.9270   30.6890 C.2    71  PHE71       0.2264
      4  O         38.1200   72.6150   31.2730 O.2    71  PHE71      -0.2867
      5  CB        40.2960   74.5490   32.1450 C.3    71  PHE71       0.0534
      6  CG        41.2000   74.8010   33.3250 C.ar   71  PHE71      -0.0203
      7  CD1       41.7620   73.7500   34.0420 C.ar   71  PHE71      -0.0042
      8  CD2       41.4700   76.1080   33.7260 C.ar   71  PHE71      -0.0042
      9  CE1       42.5760   73.9980   35.1350 C.ar   71  PHE71      -0.0003
     10  CE2       42.2890   76.3590   34.8180 C.ar   71  PHE71      -0.0003
     11  CZ        42.8390   75.2950   35.5170 C.ar   71  PHE71      -0.0000
     12  N         37.3640   81.2370   34.5540 N.3    77  ILE77      -0.1245
     13  CA        38.2800   82.2480   34.0970 C.3    77  ILE77       0.1561
     14  C         38.2250   82.5640   32.6140 C.2    77  ILE77       0.2260
     15  O         38.7900   83.5150   32.1890 O.2    77  ILE77      -0.2867
     16  CB        39.7330   81.8620   34.3960 C.3    77  ILE77       0.0252
     17  CG1       40.1430   80.6550   33.5900 C.3    77  ILE77       0.0019
     18  CG2       39.9640   81.6300   35.8570 C.3    77  ILE77       0.0019
     19  CD1       41.5420   80.2110   33.8470 C.3    77  ILE77       0.0001
     20  N         48.6220   73.5290   32.2970 N.3   165  PHE165     -0.1241
     21  CA        48.0550   74.8220   31.9460 C.3   165  PHE165      0.1605
     22  C         49.1090   75.7520   31.3550 C.2   165  PHE165      0.2264
     23  O         48.8050   76.5460   30.4510 O.2   165  PHE165     -0.2867
     24  CB        47.4050   75.4610   33.1720 C.3   165  PHE165      0.0534
     25  CG        46.5670   76.6750   32.8380 C.ar  165  PHE165     -0.0203
     26  CD1       47.1630   77.8920   32.5580 C.ar  165  PHE165     -0.0042
     27  CD2       45.1870   76.5820   32.7910 C.ar  165  PHE165     -0.0042
     28  CE1       46.3830   79.0080   32.2300 C.ar  165  PHE165     -0.0003
     29  CE2       44.4050   77.6860   32.4640 C.ar  165  PHE165     -0.0003
     30  CZ        45.0070   78.8850   32.1730 C.ar  165  PHE165     -0.0000
     31  N         39.6970   74.6340   37.9550 N.3   237  VAL237     -0.1231
     32  CA        40.2430   75.9470   38.3110 C.3   237  VAL237      0.1692
     33  C         40.5890   75.9870   39.7950 C.2   237  VAL237      0.2592
     34  O         41.6520   76.4840   40.1970 O.2   237  VAL237     -0.2718
     35  CB        39.2390   77.0600   37.9420 C.3   237  VAL237      0.0266
     36  CG1       39.6390   78.4060   38.5930 C.3   237  VAL237      0.0020
     37  CG2       39.1160   77.2260   36.4360 C.3   237  VAL237      0.0020
     38  N         39.6900   75.4810   40.6400 N.am  238  TYR238     -0.1976
     39  CA        39.9740   75.4980   42.0700 C.3   238  TYR238      0.1639
     40  C         41.1100   74.5540   42.4200 C.2   238  TYR238      0.2290
     41  O         41.9500   74.8760   43.2730 O.2   238  TYR238     -0.2864
     42  CB        38.7310   75.1310   42.8770 C.3   238  TYR238      0.0560
     43  CG        37.9180   76.3280   43.3120 C.ar  238  TYR238     -0.0198
     44  CD1       37.4040   77.2190   42.3730 C.ar  238  TYR238     -0.0009
     45  CD2       37.6540   76.5630   44.6560 C.ar  238  TYR238     -0.0009
     46  CE1       36.6320   78.3250   42.7700 C.ar  238  TYR238      0.0417
     47  CE2       36.8860   77.6650   45.0600 C.ar  238  TYR238      0.0417
     48  CZ        36.3870   78.5250   44.1170 C.ar  238  TYR238      0.1957
     49  OH        35.6410   79.5930   44.5170 O.3   238  TYR238     -0.2866
     50  N         43.6010   73.8180   40.7960 N.3   240  LEU240     -0.1231
     51  CA        44.8910   74.3910   40.4170 C.3   240  LEU240      0.1693
     52  C         45.1690   75.5930   41.3110 C.2   240  LEU240      0.2593
     53  O         45.7740   75.4610   42.3820 O.2   240  LEU240     -0.2718
     54  CB        44.9100   74.8190   38.9400 C.3   240  LEU240      0.0284
     55  CG        46.2820   74.8880   38.2450 C.3   240  LEU240      0.0019
     56  CD1       46.2080   75.4640   36.8120 C.3   240  LEU240      0.0001
     57  CD2       47.3080   75.6260   39.0720 C.3   240  LEU240      0.0001
     58  N         44.6810   76.7640   40.8910 N.am  241  GLY241     -0.1942
     59  CA        45.1080   78.0110   41.5180 C.3   241  GLY241      0.2014
     60  C         44.6290   78.1870   42.9460 C.2   241  GLY241      0.2638
     61  O         45.3890   78.6300   43.8080 O.2   241  GLY241     -0.2714
     62  N         43.3550   77.8700   43.2260 N.am  242  ALA242     -0.1977
     63  CA        42.8660   78.0770   44.5930 C.3   242  ALA242      0.1597
     64  C         43.6360   77.2200   45.5910 C.2   242  ALA242      0.2287
     65  O         43.9020   77.6540   46.7240 O.2   242  ALA242     -0.2864
     66  CB        41.3600   77.7930   44.6920 C.3   242  ALA242      0.0319
     67  N         47.8500   78.7330   45.2260 N.3   245  GLU245     -0.1245
     68  CA        48.3530   80.0980   45.3540 C.3   245  GLU245      0.1567
     69  C         48.5600   80.5200   46.8070 C.2   245  GLU245      0.2260
     70  O         49.5840   81.1520   47.1070 O.2   245  GLU245     -0.2867
     71  CB        47.4210   81.0790   44.6360 C.3   245  GLU245      0.0388
     72  CG        47.3010   80.8640   43.1250 C.3   245  GLU245      0.1160
     73  CD        48.5430   80.2280   42.5030 C.2   245  GLU245      0.3649
     74  OE1       49.6750   80.7450   42.6790 O.co2 245  GLU245     -0.2457
     75  OE2       48.3890   79.1980   41.8290 O.co2 245  GLU245     -0.2457
     76  N         50.3040   84.0970   40.8720 N.3   288  ILE288     -0.1245
     77  CA        49.8200   84.0130   39.4950 C.3   288  ILE288      0.1561
     78  C         50.5510   85.1000   38.7190 C.2   288  ILE288      0.2260
     79  O         50.2360   86.2860   38.8290 O.2   288  ILE288     -0.2867
     80  CB        48.3030   84.1510   39.4010 C.3   288  ILE288      0.0252
     81  CG1       47.6450   82.9880   40.1560 C.3   288  ILE288      0.0019
     82  CG2       47.8990   84.1460   37.9300 C.3   288  ILE288      0.0019
     83  CD1       46.1300   82.8310   39.8810 C.3   288  ILE288      0.0001
     84  N         49.4400   83.8180   34.1000 N.3   291  ALA291     -0.1231
     85  CA        48.6100   82.6820   33.6950 C.3   291  ALA291      0.1694
     86  C         47.3660   83.0860   32.9060 C.2   291  ALA291      0.2592
     87  O         46.9470   82.3350   32.0200 O.2   291  ALA291     -0.2718
     88  CB        48.1830   81.8750   34.9230 C.3   291  ALA291      0.0304
     89  N         46.7680   84.2450   33.1880 N.am  292  THR292     -0.1953
     90  CA        45.4620   84.5810   32.6330 C.3   292  THR292      0.1897
     91  C         45.5980   85.5860   31.4930 C.2   292  THR292      0.2313
     92  O         46.6700   86.1370   31.2340 O.2   292  THR292     -0.2863
     93  CB        44.5150   85.1210   33.7190 C.3   292  THR292      0.1794
     94  OG1       45.0330   86.3390   34.2790 O.3   292  THR292     -0.2208
     95  CG2       44.2940   84.0630   34.8290 C.3   292  THR292      0.0378
     96  N         40.3150   88.2520   41.0160 N.3   352  CYS352     -0.1235
     97  CA        40.1960   87.1910   42.0230 C.3   352  CYS352      0.1677
     98  C         38.9210   87.3340   42.8580 C.2   352  CYS352      0.2270
     99  O         38.6400   88.4080   43.4050 O.2   352  CYS352     -0.2867
    100  CB        41.4180   87.2300   42.9410 C.3   352  CYS352      0.0956
    101  SG        41.3720   85.9410   44.2200 S.3   352  CYS352     -0.0801
    102  N         52.5750   80.4640   36.6400 N.3   391  PHE391     -0.1241
    103  CA        52.5140   80.4900   38.0980 C.3   391  PHE391      0.1605
    104  C         53.9470   80.4580   38.6120 C.2   391  PHE391      0.2264
    105  O         54.7470   79.6590   38.1350 O.2   391  PHE391     -0.2867
    106  CB        51.7830   79.2570   38.6670 C.3   391  PHE391      0.0534
    107  CG        50.3860   79.0910   38.1690 C.ar  391  PHE391     -0.0203
    108  CD1       49.3380   79.7590   38.7830 C.ar  391  PHE391     -0.0042
    109  CD2       50.1220   78.2650   37.0830 C.ar  391  PHE391     -0.0042
    110  CE1       48.0330   79.6070   38.3240 C.ar  391  PHE391     -0.0003
    111  CE2       48.8310   78.1090   36.6070 C.ar  391  PHE391     -0.0003
    112  CZ        47.7750   78.7900   37.2330 C.ar  391  PHE391     -0.0000
@<TRIPOS>BOND
     1    23    22    2
     2     3     4    2
     3     3     2    1
     4     1     2    1
     5    92    91    2
     6    22    21    1
     7    91    90    1
     8     2     5    1
     9    21    20    1
    10    21    24    1
    11    87    86    2
    12     5     6    1
    13    30    28   ar
    14    30    29   ar
    15    15    14    2
    16    28    26   ar
    17    29    27   ar
    18    26    25   ar
    19    14    13    1
    20    90    89    1
    21    90    93    1
    22    27    25   ar
    23    25    24    1
    24    86    89   am
    25    86    85    1
    26     6     8   ar
    27     6     7   ar
    28    17    19    1
    29    17    16    1
    30    85    84    1
    31    85    88    1
    32    93    94    1
    33    93    95    1
    34     8    10   ar
    35     7     9   ar
    36    13    16    1
    37    13    12    1
    38    16    18    1
    39    10    11   ar
    40     9    11   ar
    41    37    35    1
    42   111   109   ar
    43   111   112   ar
    44   102   103    1
    45    56    55    1
    46   109   107   ar
    47   112   110   ar
    48    82    80    1
    49    35    32    1
    50    35    36    1
    51    31    32    1
    52   103   104    1
    53   103   106    1
    54   105   104    2
    55   107   106    1
    56   107   108   ar
    57    55    54    1
    58    55    57    1
    59    32    33    1
    60   110   108   ar
    61    78    79    2
    62    78    77    1
    63    54    51    1
    64    80    77    1
    65    80    81    1
    66    77    76    1
    67    33    34    2
    68    33    38   am
    69    83    81    1
    70    51    50    1
    71    51    52    1
    72    38    39    1
    73    58    52   am
    74    58    59    1
    75    96    97    1
    76    52    53    2
    77    59    60    1
    78    75    73   ar
    79    97    98    1
    80    97   100    1
    81    39    40    1
    82    39    42    1
    83    44    46   ar
    84    44    43   ar
    85    40    41    2
    86    73    74   ar
    87    73    72    1
    88    46    48   ar
    89    98    99    2
    90    42    43    1
    91   100   101    1
    92    60    62   am
    93    60    61    2
    94    72    71    1
    95    62    63    1
    96    43    45   ar
    97    48    49    1
    98    48    47   ar
    99    63    66    1
   100    63    64    1
   101    71    68    1
   102    45    47   ar
   103    67    68    1
   104    68    69    1
   105    64    65    2
   106    69    70    2
