@<TRIPOS>MOLECULE
tmp/5omvA00.pdb
 88 87 0 0 0
SMALL
GASTEIGER

@<TRIPOS>ATOM
      1  N        111.0160  110.2470   19.4730 N.3   209  TYR209     -0.1227
      2  CA       109.7070  110.8510   19.7120 C.3   209  TYR209      0.1736
      3  C        109.4680  111.8570   18.5870 C.2   209  TYR209      0.2595
      4  O        110.0340  112.9550   18.6000 O.2   209  TYR209     -0.2718
      5  CB       109.6130  111.5120   21.0860 C.3   209  TYR209      0.0548
      6  CG       108.1880  111.9590   21.3880 C.ar  209  TYR209     -0.0200
      7  CD1      107.2180  111.0380   21.7660 C.ar  209  TYR209     -0.0009
      8  CD2      107.8140  113.2940   21.2780 C.ar  209  TYR209     -0.0009
      9  CE1      105.8960  111.4450   22.0450 C.ar  209  TYR209      0.0417
     10  CE2      106.5110  113.7120   21.5510 C.ar  209  TYR209      0.0417
     11  CZ       105.5520  112.7790   21.9290 C.ar  209  TYR209      0.1957
     12  OH       104.2590  113.1920   22.1840 O.3   209  TYR209     -0.2866
     13  N        108.6350  111.4610   17.6170 N.am  210  ASN210     -0.1974
     14  CA       108.4130  112.1790   16.3600 C.3   210  ASN210      0.1688
     15  C        109.6250  112.1370   15.4330 C.2   210  ASN210      0.2292
     16  O        109.8380  113.0520   14.6330 O.2   210  ASN210     -0.2864
     17  CB       107.9900  113.6350   16.5900 C.3   210  ASN210      0.1181
     18  CG       107.1630  114.1880   15.4220 C.2   210  ASN210      0.2629
     19  OD1      106.4990  113.4370   14.6890 O.2   210  ASN210     -0.2716
     20  ND2      107.2110  115.4990   15.2410 N.am  210  ASN210     -0.0877
     21  N        108.9450  112.5300   11.5700 N.3   213  ASN213     -0.1240
     22  CA       108.6210  113.8030   10.9430 C.3   213  ASN213      0.1653
     23  C        109.6290  114.8980   11.2070 C.2   213  ASN213      0.2266
     24  O        109.6100  115.9070   10.4980 O.2   213  ASN213     -0.2867
     25  CB       107.2410  114.2860   11.4070 C.3   213  ASN213      0.1155
     26  CG       106.1310  113.3840   10.9290 C.2   213  ASN213      0.2627
     27  OD1      105.9810  113.1340    9.7230 O.2   213  ASN213     -0.2716
     28  ND2      105.3620  112.8650   11.8670 N.am  213  ASN213     -0.0877
     29  N        105.5880  108.6290   18.9600 N.3   261  TYR261     -0.1241
     30  CA       104.4980  109.5950   18.9220 C.3   261  TYR261      0.1605
     31  C        103.1900  108.9420   18.4760 C.2   261  TYR261      0.2264
     32  O        102.1860  109.0280   19.1990 O.2   261  TYR261     -0.2867
     33  CB       104.8200  110.7920   18.0210 C.3   261  TYR261      0.0534
     34  CG       103.5890  111.6460   17.8080 C.ar  261  TYR261     -0.0201
     35  CD1      103.1580  112.5350   18.7850 C.ar  261  TYR261     -0.0009
     36  CD2      102.8310  111.5330   16.6520 C.ar  261  TYR261     -0.0009
     37  CE1      102.0180  113.3000   18.6110 C.ar  261  TYR261      0.0417
     38  CE2      101.6760  112.2980   16.4720 C.ar  261  TYR261      0.0417
     39  CZ       101.2750  113.1760   17.4580 C.ar  261  TYR261      0.1957
     40  OH       100.1350  113.9330   17.2870 O.3   261  TYR261     -0.2866
     41  N        100.8080  117.2470   23.1580 N.3   273  TYR273     -0.1227
     42  CA       101.6030  116.0280   23.1350 C.3   273  TYR273      0.1736
     43  C        103.0930  116.3320   23.1080 C.2   273  TYR273      0.2596
     44  O        103.8790  115.6360   22.4550 O.2   273  TYR273     -0.2718
     45  CB       101.1950  115.1410   21.9650 C.3   273  TYR273      0.0548
     46  CG        99.8930  114.4590   22.2180 C.ar  273  TYR273     -0.0200
     47  CD1       98.6880  115.0800   21.9070 C.ar  273  TYR273     -0.0009
     48  CD2       99.8570  113.2060   22.8100 C.ar  273  TYR273     -0.0009
     49  CE1       97.4720  114.4540   22.1640 C.ar  273  TYR273      0.0417
     50  CE2       98.6660  112.5800   23.0720 C.ar  273  TYR273      0.0417
     51  CZ        97.4740  113.2110   22.7480 C.ar  273  TYR273      0.1957
     52  OH        96.2920  112.5830   23.0070 O.3   273  TYR273     -0.2866
     53  N        103.4920  117.3910   23.8070 N.am  274  THR274     -0.1953
     54  CA       104.9080  117.6020   24.0570 C.3   274  THR274      0.1897
     55  C        105.4750  116.3970   24.7950 C.2   274  THR274      0.2313
     56  O        104.7630  115.7000   25.5250 O.2   274  THR274     -0.2863
     57  CB       105.1340  118.8750   24.8820 C.3   274  THR274      0.1794
     58  OG1      104.5490  118.7200   26.1810 O.3   274  THR274     -0.2208
     59  CG2      104.4970  120.0790   24.1940 C.3   274  THR274      0.0378
     60  N         99.3070  121.2510    9.6570 N.3   694  ARG694     -0.1231
     61  CA        98.8310  120.0620    8.9740 C.3   694  ARG694      0.1679
     62  C         97.8920  119.3180    9.9110 C.2   694  ARG694      0.2434
     63  O         97.8120  119.6420   11.1050 O.2   694  ARG694     -0.2733
     64  CB       100.0030  119.1770    8.5240 C.3   694  ARG694      0.0321
     65  CG       100.9690  118.7560    9.6290 C.3   694  ARG694      0.0489
     66  CD       102.0670  117.8330    9.0770 C.3   694  ARG694      0.2205
     67  NE       103.1610  117.5960   10.0270 N.pl3 694  ARG694     -0.0865
     68  CZ       103.3420  116.4720   10.7220 C.cat 694  ARG694      0.5346
     69  NH1      102.5060  115.4470   10.5850 N.pl3 694  ARG694      0.1354
     70  NH2      104.3720  116.3690   11.5560 N.pl3 694  ARG694      0.1354
     71  N         97.1550  118.3320    9.4130 N.am  695  PRO695     -0.2718
     72  CA        96.2620  117.5700   10.2940 C.3   695  PRO695      0.1535
     73  C         97.0400  116.9870   11.4610 C.2   695  PRO695      0.2599
     74  O         98.0210  116.2630   11.2800 O.2   695  PRO695     -0.2715
     75  CB        95.7100  116.4760    9.3750 C.3   695  PRO695      0.0310
     76  CG        95.8300  117.0480    8.0200 C.3   695  PRO695      0.0237
     77  CD        97.0820  117.8800    8.0190 C.3   695  PRO695      0.0939
     78  N         96.5900  117.3070   12.6660 N.am  696  GLY696     -0.1941
     79  CA        97.2340  116.8780   13.8850 C.3   696  GLY696      0.2014
     80  C         97.9220  117.9950   14.6270 C.2   696  GLY696      0.2639
     81  O         98.2110  117.8440   15.8200 O.2   696  GLY696     -0.2714
     82  N         98.2090  119.1070   13.9550 N.am  697  THR697     -0.1950
     83  CA        98.6130  120.3030   14.6700 C.3   697  THR697      0.1897
     84  C         97.5760  120.6480   15.7310 C.2   697  THR697      0.2313
     85  O         96.3740  120.6910   15.4580 O.2   697  THR697     -0.2863
     86  CB        98.7750  121.4720   13.7110 C.3   697  THR697      0.1794
     87  OG1       99.8150  121.1750   12.7810 O.3   697  THR697     -0.2208
     88  CG2       99.1370  122.7220   14.4830 C.3   697  THR697      0.0378
@<TRIPOS>BOND
     1    77    76    1
     2    77    71    1
     3    76    75    1
     4    64    61    1
     5    64    65    1
     6    61    60    1
     7    61    62    1
     8    66    65    1
     9    66    67    1
    10    75    72    1
    11    71    62   am
    12    71    72    1
    13    27    26    2
    14    62    63    2
    15    67    68    2
    16    72    73    1
    17    24    23    2
    18    69    68    1
    19    68    70    1
    20    26    25    1
    21    26    28   am
    22    22    23    1
    23    22    25    1
    24    22    21    1
    25    74    73    2
    26    73    78   am
    27    78    79    1
    28    87    86    1
    29    86    88    1
    30    86    83    1
    31    79    80    1
    32    82    80   am
    33    82    83    1
    34    80    81    2
    35    16    15    2
    36    83    84    1
    37    19    18    2
    38    20    18   am
    39    18    17    1
    40    15    14    1
    41    85    84    2
    42    14    17    1
    43    14    13    1
    44    38    36   ar
    45    38    39   ar
    46    36    34   ar
    47    40    39    1
    48    39    37   ar
    49    13     3   am
    50    34    33    1
    51    34    35   ar
    52    33    30    1
    53    31    30    1
    54    31    32    2
    55     3     4    2
    56     3     2    1
    57    37    35   ar
    58    30    29    1
    59     1     2    1
    60     2     5    1
    61     5     6    1
    62     8     6   ar
    63     8    10   ar
    64     6     7   ar
    65    10    11   ar
    66     7     9   ar
    67    47    49   ar
    68    47    46   ar
    69    11     9   ar
    70    11    12    1
    71    45    46    1
    72    45    42    1
    73    49    51   ar
    74    46    48   ar
    75    44    43    2
    76    51    52    1
    77    51    50   ar
    78    48    50   ar
    79    43    42    1
    80    43    53   am
    81    42    41    1
    82    53    54    1
    83    54    55    1
    84    54    57    1
    85    59    57    1
    86    55    56    2
    87    57    58    1
