@<TRIPOS>MOLECULE
tmp/5on3C01.pdb
 163 159 0 0 0
SMALL
GASTEIGER

@<TRIPOS>ATOM
      1  N         12.1750   32.6960  102.7650 N.3   227  SER227     -0.1217
      2  CA        12.2610   31.8340  103.9410 C.3   227  SER227      0.1889
      3  C         13.0660   32.5190  105.0480 C.2   227  SER227      0.2288
      4  O         14.2370   32.8570  104.8530 O.2   227  SER227     -0.2866
      5  CB        12.8860   30.4840  103.5730 C.3   227  SER227      0.2089
      6  OG        12.4690   29.4770  104.4770 O.3   227  SER227     -0.2183
      7  N         24.1440   29.4390  106.1440 N.3   246  TYR246     -0.1227
      8  CA        22.7140   29.7440  106.2490 C.3   246  TYR246      0.1736
      9  C         21.8860   28.4730  106.4620 C.2   246  TYR246      0.2596
     10  O         22.2350   27.4010  105.9600 O.2   246  TYR246     -0.2718
     11  CB        22.2280   30.4770  104.9930 C.3   246  TYR246      0.0548
     12  CG        20.7940   30.9530  105.0860 C.ar  246  TYR246     -0.0200
     13  CD1       20.4700   32.1180  105.7800 C.ar  246  TYR246     -0.0009
     14  CD2       19.7560   30.2280  104.4950 C.ar  246  TYR246     -0.0009
     15  CE1       19.1560   32.5540  105.8770 C.ar  246  TYR246      0.0417
     16  CE2       18.4380   30.6560  104.5850 C.ar  246  TYR246      0.0417
     17  CZ        18.1420   31.8180  105.2780 C.ar  246  TYR246      0.1957
     18  OH        16.8390   32.2490  105.3700 O.3   246  TYR246     -0.2866
     19  N         20.7900   28.6120  107.2070 N.am  247  THR247     -0.1939
     20  CA        19.8490   27.5160  107.4450 C.3   247  THR247      0.2028
     21  C         18.4550   28.0470  107.8000 C.2   247  THR247      0.2643
     22  O         18.3290   29.0790  108.4670 O.2   247  THR247     -0.2714
     23  CB        20.3520   26.5710  108.5630 C.3   247  THR247      0.1808
     24  OG1       19.4720   25.4450  108.6790 O.3   247  THR247     -0.2208
     25  CG2       20.4490   27.2940  109.9170 C.3   247  THR247      0.0379
     26  N         17.4230   27.3420  107.3370 N.am  248  THR248     -0.1936
     27  CA        16.0310   27.6040  107.7300 C.3   248  THR248      0.2028
     28  C         15.5370   26.6340  108.8110 C.2   248  THR248      0.2642
     29  O         14.4170   26.7840  109.3060 O.2   248  THR248     -0.2714
     30  CB        15.0810   27.5270  106.5200 C.3   248  THR248      0.1808
     31  OG1       15.3120   26.3080  105.8000 O.3   248  THR248     -0.2208
     32  CG2       15.2960   28.7190  105.6000 C.3   248  THR248      0.0379
     33  N         16.3730   25.6580  109.1780 N.am  249  ARG249     -0.1977
     34  CA        16.0600   24.6940  110.2320 C.3   249  ARG249      0.1597
     35  C         17.1240   24.7450  111.3430 C.2   249  ARG249      0.2287
     36  O         17.9260   23.8150  111.4810 O.2   249  ARG249     -0.2864
     37  CB        15.9610   23.2840  109.6350 C.3   249  ARG249      0.0334
     38  CG        14.8280   23.0920  108.6310 C.3   249  ARG249      0.0492
     39  CD        13.4660   22.9740  109.2970 C.3   249  ARG249      0.2205
     40  NE        13.3640   21.8030  110.1740 N.pl3 249  ARG249     -0.0865
     41  CZ        13.2230   20.5370  109.7700 C.cat 249  ARG249      0.5346
     42  NH1       13.1580   20.2160  108.4760 N.pl3 249  ARG249      0.1354
     43  NH2       13.1430   19.5680  110.6810 N.pl3 249  ARG249      0.1354
     44  N         17.0480   21.8570  114.1920 N.3   252  ALA252     -0.1245
     45  CA        17.9100   20.6790  114.0260 C.3   252  ALA252      0.1562
     46  C         19.4020   21.0490  113.9250 C.2   252  ALA252      0.2260
     47  O         20.1500   20.4310  113.1620 O.2   252  ALA252     -0.2867
     48  CB        17.4710   19.8900  112.7980 C.3   252  ALA252      0.0290
     49  N         26.9230   19.4620   95.3730 N.3   315  PHE315     -0.1227
     50  CA        25.5340   19.8770   95.6300 C.3   315  PHE315      0.1736
     51  C         25.3920   21.2490   96.3090 C.2   315  PHE315      0.2595
     52  O         24.3430   21.8860   96.1870 O.2   315  PHE315     -0.2718
     53  CB        24.7560   18.7900   96.4070 C.3   315  PHE315      0.0547
     54  CG        25.1420   18.6520   97.8620 C.ar  315  PHE315     -0.0202
     55  CD1       24.5040   19.4110   98.8430 C.ar  315  PHE315     -0.0042
     56  CD2       26.1140   17.7350   98.2600 C.ar  315  PHE315     -0.0042
     57  CE1       24.8470   19.2800  100.1820 C.ar  315  PHE315     -0.0003
     58  CE2       26.4590   17.5990   99.5990 C.ar  315  PHE315     -0.0003
     59  CZ        25.8250   18.3720  100.5610 C.ar  315  PHE315     -0.0000
     60  N         26.4370   21.6990   97.0080 N.am  316  VAL316     -0.1966
     61  CA        26.4290   23.0120   97.6610 C.3   316  VAL316      0.1727
     62  C         26.6790   24.0970   96.6050 C.2   316  VAL316      0.2616
     63  O         27.7640   24.1620   96.0230 O.2   316  VAL316     -0.2715
     64  CB        27.4820   23.1120   98.7950 C.3   316  VAL316      0.0290
     65  CG1       27.3980   24.4650   99.4980 C.3   316  VAL316      0.0023
     66  CG2       27.2890   21.9870   99.8090 C.3   316  VAL316      0.0023
     67  N         25.6710   24.9380   96.3690 N.am  317  LEU317     -0.1977
     68  CA        25.7410   25.9990   95.3580 C.3   317  LEU317      0.1596
     69  C         26.3970   27.2540   95.9330 C.2   317  LEU317      0.2287
     70  O         26.1800   27.5880   97.0980 O.2   317  LEU317     -0.2864
     71  CB        24.3360   26.3520   94.8560 C.3   317  LEU317      0.0297
     72  CG        23.4710   25.2100   94.3140 C.3   317  LEU317      0.0022
     73  CD1       22.0610   25.7090   94.0340 C.3   317  LEU317      0.0001
     74  CD2       24.0840   24.5990   93.0630 C.3   317  LEU317      0.0001
     75  N         23.2590   30.4440   96.0210 N.3   320  TYR320     -0.1227
     76  CA        22.3310   30.3810   97.1540 C.3   320  TYR320      0.1736
     77  C         23.0870   30.2030   98.4730 C.2   320  TYR320      0.2596
     78  O         24.1200   29.5310   98.5170 O.2   320  TYR320     -0.2718
     79  CB        21.3260   29.2410   96.9610 C.3   320  TYR320      0.0548
     80  CG        20.1830   29.2740   97.9480 C.ar  320  TYR320     -0.0200
     81  CD1       19.1260   30.1700   97.7890 C.ar  320  TYR320     -0.0009
     82  CD2       20.1600   28.4170   99.0490 C.ar  320  TYR320     -0.0009
     83  CE1       18.0760   30.2080   98.6960 C.ar  320  TYR320      0.0417
     84  CE2       19.1140   28.4480   99.9600 C.ar  320  TYR320      0.0417
     85  CZ        18.0740   29.3450   99.7800 C.ar  320  TYR320      0.1957
     86  OH        17.0300   29.3910  100.6740 O.3   320  TYR320     -0.2866
     87  N         22.5650   30.8090   99.5400 N.am  321  GLY321     -0.1957
     88  CA        23.1840   30.7400  100.8640 C.3   321  GLY321      0.1869
     89  C         24.4090   31.6330  100.9700 C.2   321  GLY321      0.2309
     90  O         24.3740   32.7900  100.5410 O.2   321  GLY321     -0.2863
     91  N         27.6850   30.0640  100.2200 N.3   323  GLY323     -0.1210
     92  CA        28.6750   29.1050   99.7240 C.3   323  GLY323      0.1956
     93  C         29.0140   27.9510  100.6590 C.2   323  GLY323      0.2612
     94  O         30.0370   27.2880  100.4690 O.2   323  GLY323     -0.2717
     95  N         28.1560   27.6970  101.6500 N.am  324  ALA324     -0.1965
     96  CA        28.3970   26.6600  102.6620 C.3   324  ALA324      0.1728
     97  C         27.1420   26.4120  103.5030 C.2   324  ALA324      0.2616
     98  O         26.2590   27.2720  103.5830 O.2   324  ALA324     -0.2715
     99  CB        29.5680   27.0490  103.5570 C.3   324  ALA324      0.0334
    100  N         27.0820   25.2360  104.1280 N.am  325  VAL325     -0.1963
    101  CA        25.9050   24.7920  104.8910 C.3   325  VAL325      0.1727
    102  C         26.2770   24.0830  106.1920 C.2   325  VAL325      0.2616
    103  O         27.4430   23.7610  106.4320 O.2   325  VAL325     -0.2715
    104  CB        25.0030   23.8430  104.0590 C.3   325  VAL325      0.0290
    105  CG1       24.2690   24.6150  102.9830 C.3   325  VAL325      0.0023
    106  CG2       25.8010   22.6990  103.4420 C.3   325  VAL325      0.0023
    107  N         25.2580   23.8570  107.0200 N.am  326  MET326     -0.1963
    108  CA        25.3510   22.9760  108.1880 C.3   326  MET326      0.1736
    109  C         24.5790   21.6930  107.8730 C.2   326  MET326      0.2616
    110  O         23.3580   21.6300  108.0310 O.2   326  MET326     -0.2715
    111  CB        24.8260   23.6490  109.4690 C.3   326  MET326      0.0427
    112  CG        23.5200   24.4270  109.3400 C.3   326  MET326      0.0599
    113  SD        22.5440   24.4130  110.8530 S.3   326  MET326     -0.1393
    114  CE        21.9110   22.7400  110.8350 C.3   326  MET326      0.0692
    115  N         25.3050   20.6760  107.4120 N.am  327  ALA327     -0.1963
    116  CA        24.6930   19.4360  106.9330 C.3   327  ALA327      0.1728
    117  C         24.1320   18.5940  108.0810 C.2   327  ALA327      0.2616
    118  O         24.8670   18.2220  108.9960 O.2   327  ALA327     -0.2715
    119  CB        25.6990   18.6270  106.1310 C.3   327  ALA327      0.0334
    120  N         22.8300   18.3120  108.0160 N.am  328  VAL328     -0.1977
    121  CA        22.1300   17.4820  108.9990 C.3   328  VAL328      0.1596
    122  C         21.7040   16.1810  108.2960 C.2   328  VAL328      0.2287
    123  O         20.5810   16.0950  107.7880 O.2   328  VAL328     -0.2864
    124  CB        20.8990   18.2190  109.5840 C.3   328  VAL328      0.0276
    125  CG1       20.2600   17.4090  110.7080 C.3   328  VAL328      0.0022
    126  CG2       21.2930   19.5980  110.0960 C.3   328  VAL328      0.0022
    127  N         18.2800   14.2840  109.0320 N.3   331  HIS331     -0.1226
    128  CA        17.0160   14.9120  108.6170 C.3   331  HIS331      0.1752
    129  C         17.1580   15.7770  107.3580 C.2   331  HIS331      0.2596
    130  O         16.5950   16.8680  107.2700 O.2   331  HIS331     -0.2718
    131  CB        16.4360   15.7210  109.7820 C.3   331  HIS331      0.0759
    132  CG        16.1020   14.8820  110.9720 C.ar  331  HIS331      0.0818
    133  ND1       14.8920   14.2380  111.1080 N.ar  331  HIS331     -0.2268
    134  CD2       16.8330   14.5460  112.0600 C.ar  331  HIS331      0.1154
    135  CE1       14.8850   13.5550  112.2380 C.ar  331  HIS331      0.1986
    136  NE2       16.0520   13.7210  112.8310 N.ar  331  HIS331     -0.2212
    137  N         17.9060   15.2680  106.3810 N.am  332  ASP332     -0.1974
    138  CA        17.9990   15.8860  105.0560 C.3   332  ASP332      0.1709
    139  C         18.4750   14.8310  104.0610 C.2   332  ASP332      0.2293
    140  O         19.5420   14.2410  104.2470 O.2   332  ASP332     -0.2864
    141  CB        18.9570   17.0820  105.0690 C.3   332  ASP332      0.1436
    142  CG        18.8560   17.9280  103.8070 C.2   332  ASP332      0.3671
    143  OD1       17.7740   18.4990  103.5540 O.co2 332  ASP332     -0.2456
    144  OD2       19.8580   18.0290  103.0710 O.co2 332  ASP332     -0.2456
    145  N         19.5060   14.9790  100.9220 N.3   334  ARG334     -0.1231
    146  CA        20.7430   15.3320  100.2120 C.3   334  ARG334      0.1694
    147  C         21.9780   15.0450  101.0730 C.2   334  ARG334      0.2592
    148  O         22.9700   14.5000  100.5830 O.2   334  ARG334     -0.2718
    149  CB        20.7340   16.8090   99.7960 C.3   334  ARG334      0.0321
    150  CG        19.6570   17.1760   98.7860 C.3   334  ARG334      0.0489
    151  CD        19.6550   18.6690   98.4980 C.3   334  ARG334      0.2205
    152  NE        18.5320   19.0720   97.6500 N.pl3 334  ARG334     -0.0865
    153  CZ        18.2560   20.3260   97.2810 C.cat 334  ARG334      0.5346
    154  NH1       19.0200   21.3460   97.6770 N.pl3 334  ARG334      0.1354
    155  NH2       17.2010   20.5650   96.5060 N.pl3 334  ARG334      0.1354
    156  N         21.9010   15.4090  102.3520 N.am  335  ASP335     -0.1974
    157  CA        22.9880   15.1700  103.3090 C.3   335  ASP335      0.1709
    158  C         23.0660   13.7120  103.7700 C.2   335  ASP335      0.2293
    159  O         24.1470   13.2430  104.1320 O.2   335  ASP335     -0.2864
    160  CB        22.8430   16.0810  104.5340 C.3   335  ASP335      0.1436
    161  CG        22.8580   17.5590  104.1800 C.2   335  ASP335      0.3671
    162  OD1       23.5320   17.9500  103.2030 O.co2 335  ASP335     -0.2456
    163  OD2       22.1900   18.3340  104.8930 O.co2 335  ASP335     -0.2456
@<TRIPOS>BOND
     1    74    72    1
     2    73    72    1
     3    72    71    1
     4    71    68    1
     5    68    69    1
     6    68    67    1
     7    49    50    1
     8    50    51    1
     9    50    53    1
    10    69    70    2
    11    75    76    1
    12    63    62    2
    13    52    51    2
    14    51    60   am
    15    67    62   am
    16    53    54    1
    17   155   153    1
    18    62    61    1
    19    79    76    1
    20    79    80    1
    21    60    61    1
    22    76    77    1
    23   153   152    2
    24   153   154    1
    25   152   151    1
    26    61    64    1
    27    81    80   ar
    28    81    83   ar
    29    54    56   ar
    30    54    55   ar
    31    80    82   ar
    32    56    58   ar
    33    77    78    2
    34    77    87   am
    35   151   150    1
    36    83    85   ar
    37   150   149    1
    38    64    65    1
    39    64    66    1
    40    55    57   ar
    41    82    84   ar
    42    87    88    1
    43    58    59   ar
    44    92    91    1
    45    92    93    1
    46    85    84   ar
    47    85    86    1
    48   149   146    1
    49    57    59   ar
    50   146   145    1
    51   146   147    1
    52    94    93    2
    53    90    89    2
    54   148   147    2
    55    93    95   am
    56    88    89    1
    57   147   156   am
    58    95    96    1
    59   156   157    1
    60    96    97    1
    61    96    99    1
    62     1     2    1
    63   105   104    1
    64   144   142   ar
    65   162   161   ar
    66   157   158    1
    67   157   160    1
    68   106   104    1
    69    97    98    2
    70    97   100   am
    71   143   142   ar
    72     5     2    1
    73     5     6    1
    74   158   159    2
    75   142   141    1
    76     2     3    1
    77   104   101    1
    78   139   140    2
    79   139   138    1
    80   100   101    1
    81   161   160    1
    82   161   163   ar
    83    14    16   ar
    84    14    12   ar
    85    16    17   ar
    86     4     3    2
    87   101   102    1
    88    11    12    1
    89    11     8    1
    90   138   141    1
    91   138   137    1
    92    12    13   ar
    93    17    18    1
    94    17    15   ar
    95    32    30    1
    96    13    15   ar
    97    31    30    1
    98    10     9    2
    99   119   116    1
   100     7     8    1
   101   102   103    2
   102   102   107   am
   103     8     9    1
   104   137   129   am
   105     9    19   am
   106    30    27    1
   107   116   115    1
   108   116   117    1
   109   107   108    1
   110    19    20    1
   111   130   129    2
   112    26    27    1
   113    26    21   am
   114   129   128    1
   115   115   109   am
   116    20    21    1
   117    20    23    1
   118    27    28    1
   119   123   122    2
   120    21    22    2
   121   109   110    2
   122   109   108    1
   123   120   117   am
   124   120   121    1
   125   117   118    2
   126   108   111    1
   127   122   121    1
   128    42    41    1
   129    23    24    1
   130    23    25    1
   131   128   127    1
   132   128   131    1
   133    38    39    1
   134    38    37    1
   135    28    33   am
   136    28    29    2
   137   121   124    1
   138    33    34    1
   139    39    40    1
   140   112   111    1
   141   112   113    1
   142   124   126    1
   143   124   125    1
   144    37    34    1
   145    41    40    2
   146    41    43    1
   147   131   132    1
   148    34    35    1
   149   114   113    1
   150   132   133   ar
   151   132   134   ar
   152   133   135   ar
   153    35    36    2
   154   134   136   ar
   155   135   136   ar
   156    48    45    1
   157    47    46    2
   158    46    45    1
   159    45    44    1
