@<TRIPOS>MOLECULE
tmp/5on3C00.pdb
 207 202 0 0 0
SMALL
GASTEIGER

@<TRIPOS>ATOM
      1  N         -0.5710   39.1010   74.7070 N.3    40  MET40      -0.1230
      2  CA         0.8940   38.9520   74.7160 C.3    40  MET40       0.1702
      3  C          1.4610   38.9370   73.2950 C.2    40  MET40       0.2592
      4  O          1.0540   38.1110   72.4770 O.2    40  MET40      -0.2718
      5  CB         1.3120   37.6760   75.4550 C.3    40  MET40       0.0401
      6  CG         1.2290   37.7690   76.9710 C.3    40  MET40       0.0596
      7  SD         2.0790   36.4140   77.8080 S.3    40  MET40      -0.1393
      8  CE         1.5610   36.6810   79.5000 C.3    40  MET40       0.0692
      9  N          2.4000   39.8450   73.0170 N.am   41  LEU41      -0.1966
     10  CA         2.9260   40.0360   71.6560 C.3    41  LEU41       0.1713
     11  C          3.7450   38.8230   71.1820 C.2    41  LEU41       0.2458
     12  O          4.5020   38.2540   71.9670 O.2    41  LEU41      -0.2730
     13  CB         3.7540   41.3330   71.5490 C.3    41  LEU41       0.0310
     14  CG         5.2530   41.3750   71.8970 C.3    41  LEU41       0.0022
     15  CD1        5.8170   42.7450   71.5490 C.3    41  LEU41       0.0001
     16  CD2        5.5430   41.0450   73.3540 C.3    41  LEU41       0.0001
     17  N          3.6020   38.4300   69.8970 N.am   42  PRO42      -0.2716
     18  CA         4.2630   37.2140   69.4320 C.3    42  PRO42       0.1536
     19  C          5.6960   37.4260   68.9480 C.2    42  PRO42       0.2598
     20  O          6.0870   38.5520   68.6240 O.2    42  PRO42      -0.2715
     21  CB         3.3870   36.7850   68.2540 C.3    42  PRO42       0.0310
     22  CG         2.8510   38.0650   67.7040 C.3    42  PRO42       0.0237
     23  CD         2.9220   39.1140   68.7820 C.3    42  PRO42       0.0939
     24  N          6.4580   36.3330   68.9050 N.am   43  TYR43      -0.1974
     25  CA         7.7510   36.3010   68.2280 C.3    43  TYR43       0.1639
     26  C          7.4820   36.0170   66.7460 C.2    43  TYR43       0.2290
     27  O          6.7060   35.1100   66.4290 O.2    43  TYR43      -0.2864
     28  CB         8.6600   35.2120   68.8170 C.3    43  TYR43       0.0560
     29  CG         9.9890   35.0660   68.0970 C.ar   43  TYR43      -0.0198
     30  CD1       11.0760   35.8750   68.4260 C.ar   43  TYR43      -0.0009
     31  CD2       10.1570   34.1220   67.0810 C.ar   43  TYR43      -0.0009
     32  CE1       12.2920   35.7500   67.7660 C.ar   43  TYR43       0.0417
     33  CE2       11.3690   33.9910   66.4140 C.ar   43  TYR43       0.0417
     34  CZ        12.4340   34.8060   66.7600 C.ar   43  TYR43       0.1957
     35  OH        13.6380   34.6810   66.1040 O.3    43  TYR43      -0.2866
     36  N          0.1890   29.6660   64.2760 N.3    49  HIS49      -0.1241
     37  CA        -0.3290   28.3370   64.6080 C.3    49  HIS49       0.1621
     38  C         -1.5550   28.4750   65.5130 C.2    49  HIS49       0.2264
     39  O         -1.8850   29.5790   65.9460 O.2    49  HIS49      -0.2867
     40  CB         0.7620   27.4660   65.2490 C.3    49  HIS49       0.0745
     41  CG         1.4130   28.0840   66.4470 C.ar   49  HIS49       0.0817
     42  ND1        0.8600   28.0230   67.7060 N.ar   49  HIS49      -0.2268
     43  CD2        2.5750   28.7640   66.5800 C.ar   49  HIS49       0.1154
     44  CE1        1.6480   28.6460   68.5620 C.ar   49  HIS49       0.1986
     45  NE2        2.6980   29.1020   67.9050 N.ar   49  HIS49      -0.2212
     46  N         -2.1940   27.6990   68.5500 N.3    51  GLY51      -0.1210
     47  CA        -1.8260   28.3480   69.8100 C.3    51  GLY51       0.1956
     48  C         -1.9390   29.8650   69.7740 C.2    51  GLY51       0.2611
     49  O         -2.4960   30.4670   70.6960 O.2    51  GLY51      -0.2717
     50  N         -1.4120   30.4790   68.7130 N.am   52  HIS52      -0.1975
     51  CA        -1.5500   31.9270   68.4990 C.3    52  HIS52       0.1656
     52  C         -3.0150   32.3160   68.2970 C.2    52  HIS52       0.2291
     53  O         -3.4920   33.2700   68.9110 O.2    52  HIS52      -0.2864
     54  CB        -0.7280   32.4110   67.2920 C.3    52  HIS52       0.0771
     55  CG         0.7510   32.4510   67.5320 C.ar   52  HIS52       0.0820
     56  ND1        1.6600   31.8650   66.6780 N.ar   52  HIS52      -0.2267
     57  CD2        1.4790   33.0210   68.5210 C.ar   52  HIS52       0.1154
     58  CE1        2.8830   32.0710   67.1310 C.ar   52  HIS52       0.1986
     59  NE2        2.8020   32.7650   68.2510 N.ar   52  HIS52      -0.2212
     60  N         -5.0420   32.4340   71.5480 N.3    55  ASN55      -0.1225
     61  CA        -4.6390   33.5520   72.4160 C.3    55  ASN55       0.1785
     62  C         -5.2710   34.8760   71.9840 C.2    55  ASN55       0.2597
     63  O         -5.8530   35.5910   72.8040 O.2    55  ASN55      -0.2718
     64  CB        -3.1070   33.6960   72.4350 C.3    55  ASN55       0.1169
     65  CG        -2.6040   34.5150   73.6130 C.2    55  ASN55       0.2627
     66  OD1       -2.0150   33.9720   74.5460 O.2    55  ASN55      -0.2716
     67  ND2       -2.8310   35.8240   73.5760 N.am   55  ASN55      -0.0877
     68  N         -5.1560   35.1860   70.6950 N.am   56  TYR56      -0.1976
     69  CA        -5.5900   36.4800   70.1600 C.3    56  TYR56       0.1639
     70  C         -7.0920   36.5800   69.9050 C.2    56  TYR56       0.2290
     71  O         -7.6330   37.6870   69.8990 O.2    56  TYR56      -0.2864
     72  CB        -4.7950   36.8190   68.8950 C.3    56  TYR56       0.0560
     73  CG        -3.3090   36.9200   69.1670 C.ar   56  TYR56      -0.0198
     74  CD1       -2.8200   37.7970   70.1370 C.ar   56  TYR56      -0.0009
     75  CD2       -2.3910   36.1260   68.4780 C.ar   56  TYR56      -0.0009
     76  CE1       -1.4660   37.8870   70.4090 C.ar   56  TYR56       0.0417
     77  CE2       -1.0310   36.2090   68.7440 C.ar   56  TYR56       0.0417
     78  CZ        -0.5760   37.0920   69.7100 C.ar   56  TYR56       0.1957
     79  OH         0.7630   37.1890   69.9840 O.3    56  TYR56      -0.2866
     80  N          7.7970   41.0310   69.2480 N.3    80  ASP80      -0.1239
     81  CA         9.0190   40.7540   70.0120 C.3    80  ASP80       0.1674
     82  C         10.0220   40.1230   69.0440 C.2    80  ASP80       0.2266
     83  O         10.1040   38.9020   68.9220 O.2    80  ASP80      -0.2867
     84  CB         8.7140   39.8310   71.2100 C.3    80  ASP80       0.1410
     85  CG         9.9400   39.5510   72.0930 C.2    80  ASP80       0.3668
     86  OD1       10.9730   40.2490   71.9760 O.co2  80  ASP80      -0.2456
     87  OD2        9.8570   38.6210   72.9240 O.co2  80  ASP80      -0.2456
     88  N         13.7560   39.0530   77.1100 N.3   483  PHE483     -0.1241
     89  CA        12.7730   39.5250   78.0920 C.3   483  PHE483      0.1605
     90  C         12.8700   41.0280   78.3940 C.2   483  PHE483      0.2264
     91  O         11.8820   41.6280   78.8160 O.2   483  PHE483     -0.2867
     92  CB        12.8870   38.7300   79.3990 C.3   483  PHE483      0.0534
     93  CG        12.3990   37.3120   79.2940 C.ar  483  PHE483     -0.0203
     94  CD1       11.0520   37.0110   79.4780 C.ar  483  PHE483     -0.0042
     95  CD2       13.2830   36.2720   79.0210 C.ar  483  PHE483     -0.0042
     96  CE1       10.5980   35.7030   79.3870 C.ar  483  PHE483     -0.0003
     97  CE2       12.8330   34.9620   78.9290 C.ar  483  PHE483     -0.0003
     98  CZ        11.4880   34.6780   79.1140 C.ar  483  PHE483     -0.0000
     99  N         10.3650   42.6770   76.0790 N.3   486  SER486     -0.1217
    100  CA         8.9870   42.2980   76.4300 C.3   486  SER486      0.1889
    101  C          8.5720   42.6060   77.8840 C.2   486  SER486      0.2288
    102  O          7.4850   42.2060   78.3040 O.2   486  SER486     -0.2866
    103  CB         8.7580   40.8100   76.1260 C.3   486  SER486      0.2089
    104  OG         9.4550   39.9780   77.0350 O.3   486  SER486     -0.2183
    105  N          6.9470   46.6320   76.8250 N.3   489  TYR489     -0.1241
    106  CA         6.1950   46.8230   75.5690 C.3   489  TYR489      0.1605
    107  C          4.7500   47.2970   75.8080 C.2   489  TYR489      0.2264
    108  O          4.2190   48.0860   75.0240 O.2   489  TYR489     -0.2867
    109  CB         6.2070   45.5350   74.7180 C.3   489  TYR489      0.0534
    110  CG         5.1890   44.4890   75.1420 C.ar  489  TYR489     -0.0201
    111  CD1        5.3960   43.6970   76.2690 C.ar  489  TYR489     -0.0009
    112  CD2        4.0100   44.3070   74.4230 C.ar  489  TYR489     -0.0009
    113  CE1        4.4650   42.7520   76.6660 C.ar  489  TYR489      0.0417
    114  CE2        3.0690   43.3640   74.8110 C.ar  489  TYR489      0.0417
    115  CZ         3.3030   42.5890   75.9320 C.ar  489  TYR489      0.1957
    116  OH         2.3810   41.6530   76.3230 O.3   489  TYR489     -0.2866
    117  N         -2.6730   35.8210   77.9970 N.3   519  GLY519     -0.1210
    118  CA        -1.4210   35.1400   77.6640 C.3   519  GLY519      0.1956
    119  C         -1.4840   33.6480   77.9270 C.2   519  GLY519      0.2612
    120  O         -2.5220   33.1300   78.3340 O.2   519  GLY519     -0.2717
    121  N         -0.3710   32.9600   77.6870 N.am  520  GLY520     -0.1956
    122  CA        -0.2730   31.5200   77.9330 C.3   520  GLY520      0.1869
    123  C          0.1360   31.2010   79.3590 C.2   520  GLY520      0.2309
    124  O          0.7010   32.0470   80.0580 O.2   520  GLY520     -0.2863
    125  N          2.4770   29.1850   80.0700 N.3   522  GLU522     -0.1231
    126  CA         3.9490   29.1580   80.0220 C.3   522  GLU522      0.1699
    127  C          4.6260   30.4040   80.6100 C.2   522  GLU522      0.2592
    128  O          5.7170   30.3040   81.1760 O.2   522  GLU522     -0.2718
    129  CB         4.4420   28.9270   78.5830 C.3   522  GLU522      0.0402
    130  CG         4.2080   30.0940   77.6240 C.3   522  GLU522      0.1161
    131  CD         4.4540   29.7400   76.1670 C.2   522  GLU522      0.3649
    132  OE1        5.0940   28.7030   75.8890 O.co2 522  GLU522     -0.2457
    133  OE2        4.0160   30.5160   75.2920 O.co2 522  GLU522     -0.2457
    134  N          3.9730   31.5610   80.4760 N.am  523  HIS523     -0.1976
    135  CA         4.4880   32.8390   80.9910 C.3   523  HIS523      0.1656
    136  C          4.0050   33.1940   82.4100 C.2   523  HIS523      0.2291
    137  O          4.0960   34.3550   82.8200 O.2   523  HIS523     -0.2864
    138  CB         4.1220   33.9670   80.0170 C.3   523  HIS523      0.0771
    139  CG         4.7270   33.8060   78.6600 C.ar  523  HIS523      0.0820
    140  ND1        6.0830   33.9110   78.4340 N.ar  523  HIS523     -0.2267
    141  CD2        4.1640   33.5460   77.4580 C.ar  523  HIS523      0.1154
    142  CE1        6.3280   33.7200   77.1510 C.ar  523  HIS523      0.1986
    143  NE2        5.1800   33.4950   76.5370 N.ar  523  HIS523     -0.2212
    144  N          8.1640   35.4660   82.6160 N.3   527  HIS527     -0.1241
    145  CA         7.8160   36.7520   81.9900 C.3   527  HIS527      0.1621
    146  C          7.0210   37.6710   82.9230 C.2   527  HIS527      0.2264
    147  O          7.3660   38.8450   83.0720 O.2   527  HIS527     -0.2867
    148  CB         7.0460   36.5560   80.6730 C.3   527  HIS527      0.0745
    149  CG         6.1670   37.7140   80.3130 C.ar  527  HIS527      0.0817
    150  ND1        6.6670   38.9460   79.9490 N.ar  527  HIS527     -0.2268
    151  CD2        4.8200   37.8330   80.2930 C.ar  527  HIS527      0.1154
    152  CE1        5.6630   39.7710   79.7120 C.ar  527  HIS527      0.1986
    153  NE2        4.5310   39.1200   79.9090 N.ar  527  HIS527     -0.2212
    154  N         -4.3970   31.3940   79.4280 N.3   556  GLN556     -0.1231
    155  CA        -5.0030   30.2940   78.6660 C.3   556  GLN556      0.1698
    156  C         -4.1240   29.0460   78.6570 C.2   556  GLN556      0.2593
    157  O         -2.9070   29.1270   78.8420 O.2   556  GLN556     -0.2718
    158  CB        -5.3250   30.7050   77.2180 C.3   556  GLN556      0.0381
    159  CG        -4.1300   31.1550   76.3740 C.3   556  GLN556      0.0905
    160  CD        -4.2860   30.8730   74.8860 C.2   556  GLN556      0.2608
    161  OE1       -5.3970   30.7570   74.3670 O.2   556  GLN556     -0.2717
    162  NE2       -3.1620   30.7740   74.1910 N.am  556  GLN556     -0.0878
    163  N         -4.7550   27.8980   78.4320 N.am  557  GLY557     -0.1942
    164  CA        -4.0490   26.6250   78.3360 C.3   557  GLY557      0.2014
    165  C         -3.3280   26.4850   77.0090 C.2   557  GLY557      0.2639
    166  O         -3.7120   27.1070   76.0150 O.2   557  GLY557     -0.2714
    167  N         -2.2790   25.6670   77.0020 N.am  558  MET558     -0.1963
    168  CA        -1.5030   25.4000   75.7920 C.3   558  MET558      0.1736
    169  C         -2.2860   24.5400   74.8010 C.2   558  MET558      0.2616
    170  O         -3.0270   23.6370   75.1980 O.2   558  MET558     -0.2715
    171  CB        -0.1870   24.6930   76.1320 C.3   558  MET558      0.0427
    172  CG         0.7910   25.5030   76.9690 C.3   558  MET558      0.0599
    173  SD         1.5750   26.8600   76.0770 S.3   558  MET558     -0.1393
    174  CE         0.5660   28.2490   76.5860 C.3   558  MET558      0.0692
    175  N         -2.1130   24.8430   73.5160 N.am  559  VAL559     -0.1977
    176  CA        -2.6310   24.0290   72.4230 C.3   559  VAL559      0.1596
    177  C         -1.5140   23.0570   72.0530 C.2   559  VAL559      0.2287
    178  O         -0.4690   23.4730   71.5480 O.2   559  VAL559     -0.2864
    179  CB        -3.0290   24.8940   71.2050 C.3   559  VAL559      0.0276
    180  CG1       -3.5940   24.0280   70.0830 C.3   559  VAL559      0.0022
    181  CG2       -4.0460   25.9520   71.6140 C.3   559  VAL559      0.0022
    182  N          3.6690   21.4250   73.2370 N.3   609  LYS609     -0.1231
    183  CA         3.1290   22.7110   72.7750 C.3   609  LYS609      0.1693
    184  C          3.5100   23.0100   71.3210 C.2   609  LYS609      0.2591
    185  O          4.6280   22.7090   70.8930 O.2   609  LYS609     -0.2718
    186  CB         3.5790   23.8640   73.6930 C.3   609  LYS609      0.0285
    187  CG         5.0670   24.1970   73.6550 C.3   609  LYS609      0.0035
    188  CD         5.4140   25.3140   74.6220 C.3   609  LYS609      0.0206
    189  CE         6.8810   25.6970   74.5110 C.3   609  LYS609      0.1093
    190  NZ         7.2140   26.9070   75.3110 N.3   609  LYS609     -0.1314
    191  N          2.5640   23.5710   70.5680 N.am  610  MET610     -0.1979
    192  CA         2.8260   24.0560   69.2130 C.3   610  MET610      0.1605
    193  C          3.8740   25.1660   69.2420 C.2   610  MET610      0.2287
    194  O          3.6960   26.1730   69.9330 O.2   610  MET610     -0.2864
    195  CB         1.5460   24.5940   68.5620 C.3   610  MET610      0.0413
    196  CG         0.5260   23.5300   68.1980 C.3   610  MET610      0.0598
    197  SD        -0.7920   24.1900   67.1600 S.3   610  MET610     -0.1393
    198  CE        -1.8290   22.7430   66.9790 C.3   610  MET610      0.0692
    199  N          7.5760   26.7810   66.7320 N.3   612  LYS612     -0.1245
    200  CA         8.5530   26.7050   65.6350 C.3   612  LYS612      0.1561
    201  C          9.8330   25.9210   65.9840 C.2   612  LYS612      0.2260
    202  O         10.5210   25.4420   65.0810 O.2   612  LYS612     -0.2867
    203  CB         8.8970   28.1110   65.0960 C.3   612  LYS612      0.0271
    204  CG         9.9500   28.9180   65.8590 C.3   612  LYS612      0.0035
    205  CD         9.5360   29.2670   67.2800 C.3   612  LYS612      0.0206
    206  CE        10.5540   30.1780   67.9430 C.3   612  LYS612      0.1093
    207  NZ        10.1720   30.5230   69.3390 N.3   612  LYS612     -0.1314
@<TRIPOS>BOND
     1    36    37    1
     2    37    40    1
     3    37    38    1
     4   202   201    2
     5   203   200    1
     6   203   204    1
     7    40    41    1
     8    38    39    2
     9   200   201    1
    10   200   199    1
    11   204   205    1
    12    35    34    1
    13    33    34   ar
    14    33    31   ar
    15    27    26    2
    16    41    43   ar
    17    41    42   ar
    18    43    45   ar
    19    56    58   ar
    20    56    55   ar
    21    26    25    1
    22    34    32   ar
    23   198   197    1
    24    31    29   ar
    25    58    59   ar
    26   197   196    1
    27   205   206    1
    28    54    55    1
    29    54    51    1
    30    55    57   ar
    31    22    21    1
    32    22    23    1
    33    42    44   ar
    34    32    30   ar
    35    45    44   ar
    36   206   207    1
    37    29    30   ar
    38    29    28    1
    39   196   195    1
    40    25    28    1
    41    25    24    1
    42    59    57   ar
    43    21    18    1
    44    52    51    1
    45    52    53    2
    46    75    77   ar
    47    75    73   ar
    48    51    50    1
    49    46    47    1
    50   195   192    1
    51    20    19    2
    52    50    48   am
    53    77    78   ar
    54    23    17    1
    55    72    73    1
    56    72    69    1
    57    24    19   am
    58    83    82    2
    59    19    18    1
    60    82    81    1
    61    73    74   ar
    62   192   193    1
    63   192   191    1
    64   193   194    2
    65    80    81    1
    66    18    17    1
    67    78    79    1
    68    78    76   ar
    69    48    47    1
    70    48    49    2
    71    17    11   am
    72    71    70    2
    73    70    69    1
    74    81    84    1
    75   180   179    1
    76    74    76   ar
    77    69    68    1
    78   191   184   am
    79    68    62   am
    80   185   184    2
    81    11    10    1
    82    11    12    2
    83   179   181    1
    84   179   176    1
    85    84    85    1
    86   184   183    1
    87   178   177    2
    88    60    61    1
    89    15    14    1
    90    13    10    1
    91    13    14    1
    92    10     9    1
    93    14    16    1
    94    86    85   ar
    95    62    61    1
    96    62    63    2
    97   177   176    1
    98    85    87   ar
    99    61    64    1
   100   176   175    1
   101    64    65    1
   102     4     3    2
   103   183   182    1
   104   183   186    1
   105     9     3   am
   106     3     2    1
   107   175   169   am
   108    67    65   am
   109    65    66    2
   110   187   186    1
   111   187   188    1
   112   162   160   am
   113   161   160    2
   114   112   114   ar
   115   112   110   ar
   116   189   188    1
   117   189   190    1
   118     1     2    1
   119     2     5    1
   120   109   110    1
   121   109   106    1
   122   169   170    2
   123   169   168    1
   124   114   115   ar
   125   160   159    1
   126   108   107    2
   127   110   111   ar
   128   133   131   ar
   129     5     6    1
   130   106   107    1
   131   106   105    1
   132   168   171    1
   133   168   167    1
   134   132   131   ar
   135   115   116    1
   136   115   113   ar
   137   166   165    2
   138   173   174    1
   139   173   172    1
   140    99   100    1
   141   103   100    1
   142   103   104    1
   143   171   172    1
   144   131   130    1
   145   111   113   ar
   146   159   158    1
   147   100   101    1
   148   143   142   ar
   149   143   141   ar
   150     6     7    1
   151   167   165   am
   152   165   164    1
   153    88    89    1
   154   142   140   ar
   155   158   155    1
   156   141   139   ar
   157   130   129    1
   158   118   119    1
   159   118   117    1
   160   121   119   am
   161   121   122    1
   162     7     8    1
   163   101   102    2
   164   119   120    2
   165   122   123    1
   166    89    90    1
   167    89    92    1
   168   164   163    1
   169    90    91    2
   170   163   156   am
   171   140   139   ar
   172   129   126    1
   173   156   155    1
   174   156   157    2
   175   139   138    1
   176   155   154    1
   177    97    95   ar
   178    97    98   ar
   179    95    93   ar
   180    98    96   ar
   181    93    92    1
   182    93    94   ar
   183   123   124    2
   184    96    94   ar
   185   152   153   ar
   186   152   150   ar
   187   153   151   ar
   188   150   149   ar
   189   138   135    1
   190   126   125    1
   191   126   127    1
   192   151   149   ar
   193   149   148    1
   194   134   127   am
   195   134   135    1
   196   127   128    2
   197   148   145    1
   198   135   136    1
   199   145   144    1
   200   145   146    1
   201   136   137    2
   202   146   147    2
