@<TRIPOS>MOLECULE
tmp/5on7A00.pdb
 115 108 0 0 0
SMALL
GASTEIGER

@<TRIPOS>ATOM
      1  N         42.0740   -1.2160  -33.3470 N.3    10  LYS10      -0.1245
      2  CA        43.2630   -0.4130  -33.6130 C.3    10  LYS10       0.1561
      3  C         44.2290   -1.1430  -34.5350 C.2    10  LYS10       0.2260
      4  O         44.9660   -0.5060  -35.2970 O.2    10  LYS10      -0.2867
      5  CB        43.9570   -0.0500  -32.2990 C.3    10  LYS10       0.0271
      6  CG        44.3180   -1.2560  -31.4400 C.3    10  LYS10       0.0035
      7  CD        45.0890   -0.8450  -30.1970 C.3    10  LYS10       0.0206
      8  CE        45.3760   -2.0390  -29.3010 C.3    10  LYS10       0.1093
      9  NZ        46.1330   -3.1020  -30.0170 N.3    10  LYS10      -0.1314
     10  N         45.4470   -0.8950  -38.9380 N.3    14  LYS14      -0.1245
     11  CA        46.8590   -1.1250  -39.2070 C.3    14  LYS14       0.1561
     12  C         47.0920   -2.1890  -40.2790 C.2    14  LYS14       0.2260
     13  O         48.2140   -2.6960  -40.4010 O.2    14  LYS14      -0.2867
     14  CB        47.5740   -1.5160  -37.9100 C.3    14  LYS14       0.0271
     15  CG        48.9390   -0.8780  -37.7160 C.3    14  LYS14       0.0035
     16  CD        49.4920   -1.2050  -36.3370 C.3    14  LYS14       0.0206
     17  CE        50.8700   -0.6050  -36.1270 C.3    14  LYS14       0.1093
     18  NZ        51.3960   -0.8890  -34.7630 N.3    14  LYS14      -0.1314
     19  N         45.3070   -5.5000  -41.0120 N.3    16  TYR16      -0.1241
     20  CA        45.3460   -6.8520  -40.4750 C.3    16  TYR16       0.1605
     21  C         44.0350   -7.5620  -40.7770 C.2    16  TYR16       0.2264
     22  O         42.9780   -6.9350  -40.8820 O.2    16  TYR16      -0.2867
     23  CB        45.5990   -6.8580  -38.9590 C.3    16  TYR16       0.0534
     24  CG        47.0380   -6.6070  -38.5650 C.ar   16  TYR16      -0.0201
     25  CD1       47.9350   -7.6580  -38.4350 C.ar   16  TYR16      -0.0009
     26  CD2       47.4970   -5.3210  -38.3150 C.ar   16  TYR16      -0.0009
     27  CE1       49.2500   -7.4350  -38.0720 C.ar   16  TYR16       0.0417
     28  CE2       48.8090   -5.0880  -37.9510 C.ar   16  TYR16       0.0417
     29  CZ        49.6810   -6.1480  -37.8310 C.ar   16  TYR16       0.1957
     30  OH        50.9890   -5.9200  -37.4690 O.3    16  TYR16      -0.2866
     31  N         48.6700  -12.4380  -33.8620 N.3    24  ARG24      -0.1231
     32  CA        49.3830  -11.3050  -33.2840 C.3    24  ARG24       0.1694
     33  C         49.0470  -11.1460  -31.8070 C.2    24  ARG24       0.2592
     34  O         49.9310  -10.8670  -30.9880 O.2    24  ARG24      -0.2718
     35  CB        49.0450  -10.0380  -34.0690 C.3    24  ARG24       0.0321
     36  CG        49.3140   -8.7290  -33.3550 C.3    24  ARG24       0.0489
     37  CD        48.7580   -7.5700  -34.1710 C.3    24  ARG24       0.2205
     38  NE        48.8510   -6.2940  -33.4700 N.pl3  24  ARG24      -0.0865
     39  CZ        47.9250   -5.8270  -32.6390 C.cat  24  ARG24       0.5346
     40  NH1       46.8290   -6.5330  -32.3980 N.pl3  24  ARG24       0.1354
     41  NH2       48.0960   -4.6520  -32.0460 N.pl3  24  ARG24       0.1354
     42  N         47.7740  -11.3340  -31.4450 N.am   25  ASP25      -0.1974
     43  CA        47.3800  -11.2580  -30.0430 C.3    25  ASP25       0.1709
     44  C         47.8590  -12.4690  -29.2540 C.2    25  ASP25       0.2293
     45  O         48.0230  -12.3810  -28.0310 O.2    25  ASP25      -0.2864
     46  CB        45.8610  -11.1240  -29.9270 C.3    25  ASP25       0.1436
     47  CG        45.3870   -9.6940  -30.0910 C.2    25  ASP25       0.3671
     48  OD1       46.0550   -8.7810  -29.5620 O.co2  25  ASP25      -0.2456
     49  OD2       44.3450   -9.4820  -30.7470 O.co2  25  ASP25      -0.2456
     50  N         50.8530  -14.0190  -29.3680 N.3    27  THR27      -0.1203
     51  CA        52.1740  -13.6640  -28.8490 C.3    27  THR27       0.1994
     52  C         52.1250  -12.2400  -28.2940 C.2    27  THR27       0.2618
     53  O         52.6930  -11.2940  -28.8420 O.2    27  THR27      -0.2717
     54  CB        53.2290  -13.8140  -29.9370 C.3    27  THR27       0.1784
     55  OG1       52.9130  -12.9450  -31.0320 O.3    27  THR27      -0.2211
     56  CG2       53.2640  -15.2470  -30.4400 C.3    27  THR27       0.0376
     57  N         51.4220  -12.1060  -27.1740 N.am   28  ALA28      -0.1965
     58  CA        51.1910  -10.8070  -26.5540 C.3    28  ALA28       0.1728
     59  C         52.4590  -10.3400  -25.8370 C.2    28  ALA28       0.2616
     60  O         53.5390  -10.9220  -25.9720 O.2    28  ALA28      -0.2715
     61  CB        49.9940  -10.8820  -25.6110 C.3    28  ALA28       0.0334
     62  N         52.3340   -9.2650  -25.0560 N.am   29  ASN29      -0.1972
     63  CA        53.4730   -8.6600  -24.3750 C.3    29  ASN29       0.1688
     64  C         53.3470   -8.7130  -22.8570 C.2    29  ASN29       0.2292
     65  O         54.1270   -8.0540  -22.1580 O.2    29  ASN29      -0.2864
     66  CB        53.6550   -7.2100  -24.8340 C.3    29  ASN29       0.1181
     67  CG        55.0450   -6.6780  -24.5460 C.2    29  ASN29       0.2629
     68  OD1       55.9880   -7.4480  -24.3660 O.2    29  ASN29      -0.2716
     69  ND2       55.1780   -5.3580  -24.4940 N.am   29  ASN29      -0.0877
     70  N         53.9660  -14.0180  -39.9120 N.3    58  MET58      -0.1245
     71  CA        53.8540  -13.2410  -38.6830 C.3    58  MET58       0.1570
     72  C         54.8540  -13.7270  -37.6410 C.2    58  MET58       0.2261
     73  O         55.5890  -12.9280  -37.0500 O.2    58  MET58      -0.2867
     74  CB        52.4280  -13.3200  -38.1410 C.3    58  MET58       0.0387
     75  CG        52.2180  -12.5960  -36.8220 C.3    58  MET58       0.0595
     76  SD        52.5410  -10.8270  -36.9370 S.3    58  MET58      -0.1393
     77  CE        51.3480  -10.3470  -38.1830 C.3    58  MET58       0.0692
     78  N         58.5910  -12.6500  -38.3160 N.3    61  LYS61      -0.1231
     79  CA        59.0350  -11.3600  -37.8040 C.3    61  LYS61       0.1693
     80  C         58.9920  -11.2850  -36.2840 C.2    61  LYS61       0.2591
     81  O         59.6050  -10.3810  -35.7060 O.2    61  LYS61      -0.2718
     82  CB        58.1890  -10.2360  -38.4050 C.3    61  LYS61       0.0285
     83  CG        58.3740  -10.0610  -39.9050 C.3    61  LYS61       0.0035
     84  CD        57.7000   -8.7930  -40.4050 C.3    61  LYS61       0.0206
     85  CE        57.9930   -8.5580  -41.8790 C.3    61  LYS61       0.1093
     86  NZ        57.4320   -7.2640  -42.3600 N.3    61  LYS61      -0.1314
     87  N         58.2890  -12.2070  -35.6280 N.am   62  ARG62      -0.1980
     88  CA        58.2650  -12.2650  -34.1730 C.3    62  ARG62       0.1597
     89  C         59.4280  -13.0550  -33.5910 C.2    62  ARG62       0.2287
     90  O         59.7800  -12.8440  -32.4250 O.2    62  ARG62      -0.2864
     91  CB        56.9490  -12.8830  -33.6910 C.3    62  ARG62       0.0334
     92  CG        55.7200  -12.0120  -33.8960 C.3    62  ARG62       0.0492
     93  CD        55.3990  -11.2030  -32.6490 C.3    62  ARG62       0.2205
     94  NE        54.0330  -10.6870  -32.6760 N.pl3  62  ARG62      -0.0865
     95  CZ        53.4510  -10.0530  -31.6630 C.cat  62  ARG62       0.5346
     96  NH1       54.1140   -9.8540  -30.5310 N.pl3  62  ARG62       0.1354
     97  NH2       52.2030   -9.6230  -31.7790 N.pl3  62  ARG62       0.1354
     98  N         63.4390  -11.1800  -33.4030 N.3    65  ASP65      -0.1239
     99  CA        63.5830  -10.0180  -32.5400 C.3    65  ASP65       0.1674
    100  C         64.4280  -10.3530  -31.3180 C.2    65  ASP65       0.2266
    101  O         64.5160  -11.5090  -30.8950 O.2    65  ASP65      -0.2867
    102  CB        62.2150   -9.4960  -32.0950 C.3    65  ASP65       0.1410
    103  CG        61.4160   -8.9070  -33.2390 C.2    65  ASP65       0.3668
    104  OD1       62.0350   -8.3620  -34.1770 O.co2  65  ASP65      -0.2456
    105  OD2       60.1700   -8.9890  -33.2000 O.co2  65  ASP65      -0.2456
    106  N         58.2530  -11.6200  -27.7120 N.3    72  HIS72      -0.1241
    107  CA        57.9650  -11.9270  -29.1100 C.3    72  HIS72       0.1621
    108  C         58.4620  -13.3180  -29.4750 C.2    72  HIS72       0.2264
    109  O         57.8070  -14.0400  -30.2330 O.2    72  HIS72      -0.2867
    110  CB        58.6060  -10.8880  -30.0300 C.3    72  HIS72       0.0745
    111  CG        58.1030   -9.4940  -29.8230 C.ar   72  HIS72       0.0817
    112  ND1       58.4560   -8.4480  -30.6480 N.ar   72  HIS72      -0.2268
    113  CD2       57.2800   -8.9720  -28.8840 C.ar   72  HIS72       0.1154
    114  CE1       57.8690   -7.3410  -30.2280 C.ar   72  HIS72       0.1986
    115  NE2       57.1500   -7.6320  -29.1590 N.ar   72  HIS72      -0.2212
@<TRIPOS>BOND
     1    86    85    1
     2    85    84    1
     3    19    20    1
     4    22    21    2
     5    21    20    1
     6    20    23    1
     7    84    83    1
     8    13    12    2
     9    12    11    1
    10    70    71    1
    11    83    82    1
    12    11    10    1
    13    11    14    1
    14    23    24    1
    15    71    74    1
    16    71    72    1
    17    24    25   ar
    18    24    26   ar
    19    25    27   ar
    20    82    79    1
    21    78    79    1
    22    26    28   ar
    23    77    76    1
    24    74    75    1
    25    27    29   ar
    26    28    29   ar
    27    14    15    1
    28    29    30    1
    29    79    80    1
    30    15    16    1
    31    72    73    2
    32    76    75    1
    33    16    17    1
    34    80    81    2
    35    80    87   am
    36    17    18    1
    37    87    88    1
    38     4     3    2
    39     3     2    1
    40   104   103   ar
    41    88    91    1
    42    88    89    1
    43    37    38    1
    44    37    36    1
    45    35    36    1
    46    35    32    1
    47    92    91    1
    48    92    93    1
    49    31    32    1
    50     2     1    1
    51     2     5    1
    52    89    90    2
    53    38    39    2
    54    98    99    1
    55    32    33    1
    56   103   105   ar
    57   103   102    1
    58    94    93    1
    59    94    95    2
    60    39    40    1
    61    39    41    1
    62    99   102    1
    63    99   100    1
    64     5     6    1
    65    33    42   am
    66    33    34    2
    67    97    95    1
    68    95    96    1
    69    42    43    1
    70     6     7    1
    71   100   101    2
    72    55    54    1
    73    49    47   ar
    74   112   114   ar
    75   112   111   ar
    76    56    54    1
    77   109   108    2
    78   114   115   ar
    79     7     8    1
    80    47    46    1
    81    47    48   ar
    82    43    46    1
    83    43    44    1
    84   110   111    1
    85   110   107    1
    86     9     8    1
    87    54    51    1
    88   111   113   ar
    89   108   107    1
    90    50    51    1
    91    44    45    2
    92   115   113   ar
    93   107   106    1
    94    51    52    1
    95    53    52    2
    96    52    57   am
    97    57    58    1
    98    58    59    1
    99    58    61    1
   100    60    59    2
   101    59    62   am
   102    62    63    1
   103    66    67    1
   104    66    63    1
   105    67    69   am
   106    67    68    2
   107    63    64    1
   108    64    65    2
