@<TRIPOS>MOLECULE
tmp/5on8B00.pdb
 163 159 0 0 0
SMALL
GASTEIGER

@<TRIPOS>ATOM
      1  N         43.8490   19.1090   20.5900 N.3    20  TYR20      -0.1227
      2  CA        42.5320   19.2170   19.9810 C.3    20  TYR20       0.1736
      3  C         42.6460   18.9280   18.4940 C.2    20  TYR20       0.2596
      4  O         43.2830   17.9530   18.1230 O.2    20  TYR20      -0.2718
      5  CB        41.9470   20.5960   20.2830 C.3    20  TYR20       0.0548
      6  CG        41.7960   20.7850   21.7760 C.ar   20  TYR20      -0.0200
      7  CD1       40.6410   20.3840   22.4290 C.ar   20  TYR20      -0.0009
      8  CD2       42.8270   21.3150   22.5440 C.ar   20  TYR20      -0.0009
      9  CE1       40.5060   20.5140   23.7870 C.ar   20  TYR20       0.0417
     10  CE2       42.6930   21.4570   23.9100 C.ar   20  TYR20       0.0417
     11  CZ        41.5270   21.0620   24.5270 C.ar   20  TYR20       0.1957
     12  OH        41.3800   21.1860   25.8900 O.3    20  TYR20      -0.2866
     13  N         42.0360   19.7420   17.6400 N.am   21  THR21      -0.1953
     14  CA        42.1600   19.5410   16.1990 C.3    21  THR21       0.1897
     15  C         43.6360   19.3870   15.8190 C.2    21  THR21       0.2313
     16  O         44.4980   20.0870   16.3510 O.2    21  THR21      -0.2863
     17  CB        41.5220   20.7040   15.4070 C.3    21  THR21       0.1794
     18  OG1       41.6770   20.4710   14.0030 O.3    21  THR21      -0.2208
     19  CG2       42.1710   22.0320   15.7710 C.3    21  THR21       0.0378
     20  N         37.7710   13.4260   18.7270 N.3    25  MET25      -0.1245
     21  CA        37.4470   13.0540   20.0990 C.3    25  MET25       0.1570
     22  C         36.9930   11.6030   20.2330 C.2    25  MET25       0.2261
     23  O         37.3770   10.9130   21.1720 O.2    25  MET25      -0.2867
     24  CB        36.3690   13.9920   20.6470 C.3    25  MET25       0.0387
     25  CG        36.7430   15.4580   20.5180 C.3    25  MET25       0.0595
     26  SD        35.4540   16.6080   21.0220 S.3    25  MET25      -0.1393
     27  CE        35.3250   16.1500   22.7390 C.3    25  MET25       0.0692
     28  N         45.7990   26.7330   26.8500 N.3    95  ARG95      -0.1245
     29  CA        45.0910   26.1130   25.7330 C.3    95  ARG95       0.1563
     30  C         43.7660   25.5030   26.1990 C.2    95  ARG95       0.2260
     31  O         42.8350   25.3430   25.4090 O.2    95  ARG95      -0.2867
     32  CB        45.9610   25.0420   25.0650 C.3    95  ARG95       0.0307
     33  CG        45.3290   24.3680   23.8460 C.3    95  ARG95       0.0489
     34  CD        45.0050   25.3800   22.7580 C.3    95  ARG95       0.2205
     35  NE        44.2280   24.7980   21.6630 N.pl3  95  ARG95      -0.0865
     36  CZ        42.8980   24.7470   21.6200 C.cat  95  ARG95       0.5346
     37  NH1       42.1700   25.2380   22.6170 N.pl3  95  ARG95       0.1354
     38  NH2       42.2910   24.2010   20.5750 N.pl3  95  ARG95       0.1354
     39  N         39.0110   27.1300   28.1450 N.3    98  TRP98      -0.1241
     40  CA        37.5810   26.8930   27.9430 C.3    98  TRP98       0.1605
     41  C         36.9940   25.9670   29.0040 C.2    98  TRP98       0.2264
     42  O         35.8070   26.0470   29.3290 O.2    98  TRP98      -0.2867
     43  CB        37.3380   26.2880   26.5650 C.3    98  TRP98       0.0550
     44  CG        37.8650   24.8850   26.4490 C.ar   98  TRP98       0.0003
     45  CD1       39.1350   24.5120   26.1120 C.ar   98  TRP98       0.0946
     46  CD2       37.1410   23.6730   26.6910 C.ar   98  TRP98       0.0152
     47  NE1       39.2410   23.1390   26.1140 N.ar   98  TRP98      -0.2442
     48  CE2       38.0320   22.6020   26.4690 C.ar   98  TRP98       0.0810
     49  CE3       35.8220   23.3900   27.0570 C.ar   98  TRP98       0.0012
     50  CZ2       37.6450   21.2700   26.6060 C.ar   98  TRP98       0.0191
     51  CZ3       35.4420   22.0700   27.1990 C.ar   98  TRP98       0.0001
     52  CH2       36.3500   21.0240   26.9700 C.ar   98  TRP98       0.0015
     53  N         38.7440   14.5180   26.3780 N.3   135  ARG135     -0.1245
     54  CA        40.0200   15.2130   26.4910 C.3   135  ARG135      0.1563
     55  C         39.8130   16.4800   27.3300 C.2   135  ARG135      0.2260
     56  O         38.7080   17.0270   27.3470 O.2   135  ARG135     -0.2867
     57  CB        40.5690   15.5410   25.0990 C.3   135  ARG135      0.0307
     58  CG        39.6860   16.4840   24.2890 C.3   135  ARG135      0.0489
     59  CD        40.0680   16.4590   22.8250 C.3   135  ARG135      0.2205
     60  NE        39.3690   17.4720   22.0260 N.pl3 135  ARG135     -0.0865
     61  CZ        39.3640   17.4970   20.6960 C.cat 135  ARG135      0.5346
     62  NH1       39.9940   16.5460   20.0100 N.pl3 135  ARG135      0.1354
     63  NH2       38.7150   18.4580   20.0460 N.pl3 135  ARG135      0.1354
     64  N         21.7320   17.6020   21.0760 N.3   245  GLU245     -0.1245
     65  CA        22.2480   18.9740   21.1590 C.3   245  GLU245      0.1567
     66  C         21.4810   19.9240   20.2420 C.2   245  GLU245      0.2260
     67  O         20.6870   19.5010   19.4060 O.2   245  GLU245     -0.2867
     68  CB        23.7460   19.0170   20.8150 C.3   245  GLU245      0.0388
     69  CG        24.0650   18.6830   19.3570 C.3   245  GLU245      0.1160
     70  CD        25.4280   18.0310   19.1890 C.2   245  GLU245      0.3649
     71  OE1       25.9760   17.5180   20.1890 O.co2 245  GLU245     -0.2457
     72  OE2       25.9530   18.0290   18.0530 O.co2 245  GLU245     -0.2457
     73  N         36.4090   29.5810   10.8010 N.3   380  TYR380     -0.1241
     74  CA        36.9990   29.5020   12.1350 C.3   380  TYR380      0.1605
     75  C         37.6670   30.8180   12.5000 C.2   380  TYR380      0.2264
     76  O         37.5900   31.2710   13.6430 O.2   380  TYR380     -0.2867
     77  CB        38.0160   28.3620   12.2240 C.3   380  TYR380      0.0534
     78  CG        37.4110   26.9870   12.0790 C.ar  380  TYR380     -0.0201
     79  CD1       36.0510   26.7830   12.2750 C.ar  380  TYR380     -0.0009
     80  CD2       38.1990   25.8910   11.7550 C.ar  380  TYR380     -0.0009
     81  CE1       35.4900   25.5280   12.1440 C.ar  380  TYR380      0.0417
     82  CE2       37.6480   24.6290   11.6260 C.ar  380  TYR380      0.0417
     83  CZ        36.2930   24.4560   11.8220 C.ar  380  TYR380      0.1957
     84  OH        35.7380   23.2040   11.6890 O.3   380  TYR380     -0.2866
     85  N         34.9230   33.3070   13.4510 N.3   383  GLN383     -0.1245
     86  CA        34.3550   33.0150   14.7650 C.3   383  GLN383      0.1566
     87  C         35.2360   33.5840   15.8630 C.2   383  GLN383      0.2260
     88  O         34.7470   34.1620   16.8330 O.2   383  GLN383     -0.2867
     89  CB        34.1900   31.5080   14.9690 C.3   383  GLN383      0.0367
     90  CG        33.0850   30.8740   14.1510 C.3   383  GLN383      0.0905
     91  CD        32.8850   29.4110   14.4970 C.2   383  GLN383      0.2608
     92  OE1       33.6010   28.8580   15.3330 O.2   383  GLN383     -0.2717
     93  NE2       31.9020   28.7790   13.8650 N.am  383  GLN383     -0.0878
     94  N         25.9270   27.5440   14.4470 N.3   393  HIS393     -0.1226
     95  CA        26.5990   27.1730   15.6750 C.3   393  HIS393      0.1752
     96  C         25.8690   25.9680   16.2540 C.2   393  HIS393      0.2595
     97  O         24.8100   25.5780   15.7600 O.2   393  HIS393     -0.2718
     98  CB        26.6200   28.3570   16.6520 C.3   393  HIS393      0.0759
     99  CG        27.6220   28.2310   17.7570 C.ar  393  HIS393      0.0818
    100  ND1       28.7420   27.4320   17.6690 N.ar  393  HIS393     -0.2268
    101  CD2       27.6770   28.8210   18.9760 C.ar  393  HIS393      0.1154
    102  CE1       29.4450   27.5370   18.7840 C.ar  393  HIS393      0.1986
    103  NE2       28.8240   28.3800   19.5900 N.ar  393  HIS393     -0.2212
    104  N         26.4430   25.3620   17.2820 N.am  394  ARG394     -0.1980
    105  CA        25.7950   24.2290   17.9170 C.3   394  ARG394      0.1597
    106  C         26.2610   24.1000   19.3530 C.2   394  ARG394      0.2287
    107  O         27.3680   24.5280   19.6960 O.2   394  ARG394     -0.2864
    108  CB        26.0760   22.9290   17.1440 C.3   394  ARG394      0.0334
    109  CG        27.5440   22.5090   17.1230 C.3   394  ARG394      0.0492
    110  CD        27.8040   21.4310   16.0670 C.3   394  ARG394      0.2205
    111  NE        26.8870   20.3010   16.2080 N.pl3 394  ARG394     -0.0865
    112  CZ        26.0980   19.8420   15.2420 C.cat 394  ARG394      0.5346
    113  NH1       26.1000   20.4060   14.0420 N.pl3 394  ARG394      0.1354
    114  NH2       25.2930   18.8140   15.4810 N.pl3 394  ARG394      0.1354
    115  N         26.9500   21.3340   22.6550 N.3   396  TRP396     -0.1241
    116  CA        28.0070   20.3330   22.6840 C.3   396  TRP396      0.1605
    117  C         27.5540   18.9360   23.0940 C.2   396  TRP396      0.2264
    118  O         28.3250   17.9810   23.0030 O.2   396  TRP396     -0.2867
    119  CB        29.1160   20.8160   23.6190 C.3   396  TRP396      0.0550
    120  CG        29.8560   22.0280   23.1100 C.ar  396  TRP396      0.0003
    121  CD1       29.7740   22.5800   21.8590 C.ar  396  TRP396      0.0946
    122  CD2       30.8110   22.8140   23.8320 C.ar  396  TRP396      0.0152
    123  NE1       30.6040   23.6740   21.7690 N.ar  396  TRP396     -0.2442
    124  CE2       31.2560   23.8350   22.9630 C.ar  396  TRP396      0.0810
    125  CE3       31.3350   22.7520   25.1330 C.ar  396  TRP396      0.0012
    126  CZ2       32.1940   24.7860   23.3520 C.ar  396  TRP396      0.0191
    127  CZ3       32.2650   23.7020   25.5170 C.ar  396  TRP396      0.0001
    128  CH2       32.6890   24.7020   24.6260 C.ar  396  TRP396      0.0015
    129  N         28.6220   18.1630   28.4080 N.3   400  TYR400     -0.1241
    130  CA        28.9880   19.5740   28.3010 C.3   400  TYR400      0.1605
    131  C         27.8260   20.5180   28.5280 C.2   400  TYR400      0.2264
    132  O         28.0110   21.6140   29.0340 O.2   400  TYR400     -0.2867
    133  CB        29.5610   19.8830   26.9230 C.3   400  TYR400      0.0534
    134  CG        30.7730   19.0910   26.5340 C.ar  400  TYR400     -0.0201
    135  CD1       30.6450   17.8720   25.8800 C.ar  400  TYR400     -0.0009
    136  CD2       32.0460   19.5780   26.7830 C.ar  400  TYR400     -0.0009
    137  CE1       31.7540   17.1490   25.5060 C.ar  400  TYR400      0.0417
    138  CE2       33.1630   18.8610   26.4100 C.ar  400  TYR400      0.0417
    139  CZ        33.0080   17.6490   25.7760 C.ar  400  TYR400      0.1957
    140  OH        34.1250   16.9340   25.4110 O.3   400  TYR400     -0.2866
    141  N         38.0380   35.0170   21.7880 N.3   413  SER413     -0.1202
    142  CA        38.3870   34.2350   20.5960 C.3   413  SER413      0.2020
    143  C         37.4680   33.0260   20.4210 C.2   413  SER413      0.2618
    144  O         37.6700   32.2200   19.5200 O.2   413  SER413     -0.2717
    145  CB        39.8520   33.7730   20.6330 C.3   413  SER413      0.2103
    146  OG        39.9960   32.6210   21.4520 O.3   413  SER413     -0.2182
    147  N         36.4700   32.8940   21.2880 N.am  414  HIS414     -0.1975
    148  CA        35.4010   31.9280   21.0560 C.3   414  HIS414      0.1656
    149  C         34.1950   32.6440   20.4450 C.2   414  HIS414      0.2291
    150  O         33.9190   33.8020   20.7640 O.2   414  HIS414     -0.2864
    151  CB        35.0090   31.2080   22.3510 C.3   414  HIS414      0.0771
    152  CG        35.8920   30.0460   22.6890 C.ar  414  HIS414      0.0820
    153  ND1       35.4550   28.9680   23.4310 N.ar  414  HIS414     -0.2267
    154  CD2       37.1860   29.7890   22.3810 C.ar  414  HIS414      0.1154
    155  CE1       36.4410   28.0980   23.5650 C.ar  414  HIS414      0.1986
    156  NE2       37.5030   28.5720   22.9370 N.ar  414  HIS414     -0.2212
    157  N         29.8170   12.8700   21.8620 N.3   488  THR488     -0.1218
    158  CA        30.8940   12.8620   20.8770 C.3   488  THR488      0.1862
    159  C         31.5470   11.4980   20.7180 C.2   488  THR488      0.2287
    160  O         32.2780   11.2580   19.7570 O.2   488  THR488     -0.2866
    161  CB        31.9820   13.8710   21.2460 C.3   488  THR488      0.1770
    162  OG1       32.4970   13.5680   22.5480 O.3   488  THR488     -0.2211
    163  CG2       31.4010   15.2440   21.2750 C.3   488  THR488      0.0375
@<TRIPOS>BOND
     1    73    74    1
     2    82    80   ar
     3    82    83   ar
     4    84    83    1
     5    80    78   ar
     6    83    81   ar
     7    78    77    1
     8    78    79   ar
     9    74    77    1
    10    74    75    1
    11    81    79   ar
    12    75    76    2
    13    85    86    1
    14    93    91   am
    15    18    17    1
    16   113   112    1
    17    90    91    1
    18    90    89    1
    19    94    95    1
    20    91    92    2
    21    86    89    1
    22    86    87    1
    23   112   114    1
    24   112   111    2
    25    17    19    1
    26    17    14    1
    27    95    96    1
    28    95    98    1
    29    97    96    2
    30    15    14    1
    31    15    16    2
    32    87    88    2
    33   110   111    1
    34   110   109    1
    35    14    13    1
    36    96   104   am
    37    98    99    1
    38   109   108    1
    39   108   105    1
    40   104   105    1
    41    13     3   am
    42   100    99   ar
    43   100   102   ar
    44    99   101   ar
    45   105   106    1
    46    72    70   ar
    47     4     3    2
    48     3     2    1
    49    20    21    1
    50   102   103   ar
    51   101   103   ar
    52    70    69    1
    53    70    71   ar
    54   106   107    2
    55    69    68    1
    56    67    66    2
    57   144   143    2
    58   160   159    2
    59     2     5    1
    60     2     1    1
    61    62    61    1
    62    63    61    1
    63    21    22    1
    64    21    24    1
    65    22    23    2
    66    66    65    1
    67     5     6    1
    68   143   142    1
    69   143   147   am
    70   149   150    2
    71   149   148    1
    72    25    24    1
    73    25    26    1
    74    38    36    1
    75   142   145    1
    76   142   141    1
    77   145   146    1
    78    61    60    2
    79   159   158    1
    80    68    65    1
    81   158   161    1
    82   158   157    1
    83    26    27    1
    84   148   147    1
    85   148   151    1
    86    64    65    1
    87   161   163    1
    88   161   162    1
    89    36    35    2
    90    36    37    1
    91    35    34    1
    92   123   121   ar
    93   123   124   ar
    94     6     7   ar
    95     6     8   ar
    96   121   120   ar
    97    60    59    1
    98   151   152    1
    99   154   152   ar
   100   154   156   ar
   101     7     9   ar
   102     8    10   ar
   103   115   116    1
   104   116   117    1
   105   116   119    1
   106   152   153   ar
   107    34    33    1
   108    59    58    1
   109   156   155   ar
   110   124   126   ar
   111   124   122   ar
   112   118   117    2
   113   120   119    1
   114   120   122   ar
   115   126   128   ar
   116   153   155   ar
   117     9    11   ar
   118   122   125   ar
   119    33    32    1
   120    10    11   ar
   121    58    57    1
   122    11    12    1
   123   128   127   ar
   124    32    29    1
   125    57    54    1
   126   125   127   ar
   127    31    30    2
   128   140   139    1
   129   137   139   ar
   130   137   135   ar
   131    29    30    1
   132    29    28    1
   133   139   138   ar
   134   135   134   ar
   135    45    47   ar
   136    45    44   ar
   137    47    48   ar
   138    53    54    1
   139   138   136   ar
   140    44    43    1
   141    44    46   ar
   142    48    50   ar
   143    48    46   ar
   144    54    55    1
   145   134   136   ar
   146   134   133    1
   147    43    40    1
   148    50    52   ar
   149    46    49   ar
   150   133   130    1
   151    52    51   ar
   152    49    51   ar
   153    55    56    2
   154    40    39    1
   155    40    41    1
   156   130   129    1
   157   130   131    1
   158   131   132    2
   159    41    42    2
