@<TRIPOS>MOLECULE
tmp/5on9B01.pdb
 77 75 0 0 0
SMALL
GASTEIGER

@<TRIPOS>ATOM
      1  N        120.2490    4.9290    8.3980 N.3     8  ALA8       -0.1231
      2  CA       120.7930    6.1040    7.7350 C.3     8  ALA8        0.1694
      3  C        120.8430    7.2910    8.6730 C.2     8  ALA8        0.2592
      4  O        120.1390    7.3240    9.6760 O.2     8  ALA8       -0.2718
      5  CB       119.9730    6.4450    6.5000 C.3     8  ALA8        0.0304
      6  N        121.6800    8.2650    8.3290 N.am    9  TRP9       -0.1963
      7  CA       121.7120    9.5520    9.0160 C.3     9  TRP9        0.1756
      8  C        122.1800   10.5910    7.9900 C.2     9  TRP9        0.2461
      9  O        122.8800   10.2370    7.0440 O.2     9  TRP9       -0.2730
     10  CB       122.6350    9.4840   10.2390 C.3     9  TRP9        0.0590
     11  CG       122.3850   10.5640   11.2390 C.ar    9  TRP9        0.0006
     12  CD1      123.2170   11.5960   11.5540 C.ar    9  TRP9        0.0946
     13  CD2      121.2160   10.7280   12.0500 C.ar    9  TRP9        0.0152
     14  NE1      122.6380   12.3950   12.5100 N.ar    9  TRP9       -0.2442
     15  CE2      121.4110   11.8810   12.8360 C.ar    9  TRP9        0.0810
     16  CE3      120.0290   10.0020   12.1980 C.ar    9  TRP9        0.0012
     17  CZ2      120.4620   12.3310   13.7510 C.ar    9  TRP9        0.0191
     18  CZ3      119.0850   10.4540   13.1020 C.ar    9  TRP9        0.0001
     19  CH2      119.3080   11.6040   13.8690 C.ar    9  TRP9        0.0015
     20  N        121.7800   11.8670    8.1440 N.am   10  PRO10      -0.2716
     21  CA       122.1530   12.8430    7.1050 C.3    10  PRO10       0.1536
     22  C        123.6480   13.1800    7.0640 C.2    10  PRO10       0.2598
     23  O        124.1230   13.7090    6.0550 O.2    10  PRO10      -0.2715
     24  CB       121.3410   14.0910    7.4800 C.3    10  PRO10       0.0310
     25  CG       120.2550   13.6010    8.3890 C.3    10  PRO10       0.0237
     26  CD       120.8340   12.4330    9.1210 C.3    10  PRO10       0.0939
     27  N        124.3670   12.8980    8.1490 N.am   11  VAL11      -0.1978
     28  CA       125.8010   13.1720    8.2420 C.3    11  VAL11       0.1596
     29  C        126.5100   12.0240    8.9470 C.2    11  VAL11       0.2287
     30  O        125.8540   11.1510    9.5140 O.2    11  VAL11      -0.2864
     31  CB       126.0850   14.4740    9.0120 C.3    11  VAL11       0.0276
     32  CG1      125.5390   15.6800    8.2520 C.3    11  VAL11       0.0022
     33  CG2      125.4940   14.3940   10.4260 C.3    11  VAL11       0.0022
     34  N        127.5210   13.6650   16.5820 N.3    25  GLN25      -0.1245
     35  CA       126.0830   13.4500   16.7040 C.3    25  GLN25       0.1566
     36  C        125.7650   12.8440   18.0720 C.2    25  GLN25       0.2260
     37  O        126.3320   11.8270   18.4580 O.2    25  GLN25      -0.2867
     38  CB       125.5790   12.5510   15.5800 C.3    25  GLN25       0.0367
     39  CG       125.8680   13.1050   14.1920 C.3    25  GLN25       0.0905
     40  CD       125.2450   14.4750   13.9850 C.2    25  GLN25       0.2608
     41  OE1      124.0280   14.6000   13.8580 O.2    25  GLN25      -0.2717
     42  NE2      126.0810   15.5120   13.9500 N.am   25  GLN25      -0.0878
     43  N        116.5360    8.9930    1.3910 N.3   204  ARG204     -0.1245
     44  CA       116.3840    8.1030    2.5360 C.3   204  ARG204      0.1563
     45  C        115.1570    7.2130    2.3380 C.2   204  ARG204      0.2260
     46  O        115.1910    6.0130    2.6320 O.2   204  ARG204     -0.2867
     47  CB       116.2830    8.9000    3.8400 C.3   204  ARG204      0.0307
     48  CG       117.6020    9.5230    4.2550 C.3   204  ARG204      0.0489
     49  CD       117.5900    9.9950    5.6980 C.3   204  ARG204      0.2205
     50  NE       116.7360   11.1610    5.9100 N.pl3 204  ARG204     -0.0865
     51  CZ       117.1460   12.4240    5.8210 C.cat 204  ARG204      0.5346
     52  NH1      118.4040   12.7040    5.4990 N.pl3 204  ARG204      0.1354
     53  NH2      116.2880   13.4120    6.0470 N.pl3 204  ARG204      0.1354
     54  N        113.9600    9.1780   13.2290 N.3   218  GLY218     -0.1210
     55  CA       114.2940   10.5880   13.3350 C.3   218  GLY218      0.1956
     56  C        113.0620   11.4300   13.5540 C.2   218  GLY218      0.2611
     57  O        111.9840   10.9000   13.8290 O.2   218  GLY218     -0.2717
     58  N        113.2190   12.7440   13.4290 N.am  219  ASN219     -0.1974
     59  CA       112.1110   13.6510   13.6830 C.3   219  ASN219      0.1688
     60  C        111.3140   13.9140   12.4050 C.2   219  ASN219      0.2292
     61  O        111.3450   13.1100   11.4680 O.2   219  ASN219     -0.2864
     62  CB       112.6170   14.9620   14.3140 C.3   219  ASN219      0.1181
     63  CG       113.6340   15.6990   13.4500 C.2   219  ASN219      0.2629
     64  OD1      113.6490   15.5690   12.2260 O.2   219  ASN219     -0.2716
     65  ND2      114.4780   16.5030   14.0960 N.am  219  ASN219     -0.0877
     66  N        111.7130   15.6160    9.9420 N.3   221  GLY221     -0.1210
     67  CA       112.4880   15.7430    8.7220 C.3   221  GLY221      0.1956
     68  C        113.0200   14.4200    8.1920 C.2   221  GLY221      0.2611
     69  O        113.7640   14.3960    7.2120 O.2   221  GLY221     -0.2717
     70  N        112.6310   13.3200    8.8300 N.am  222  LEU222     -0.1979
     71  CA       113.1720   12.0040    8.4930 C.3   222  LEU222      0.1596
     72  C        113.0060   11.6430    7.0130 C.2   222  LEU222      0.2287
     73  O        113.9510   11.2050    6.3680 O.2   222  LEU222     -0.2864
     74  CB       112.5110   10.9300    9.3530 C.3   222  LEU222      0.0297
     75  CG       113.0360    9.5080    9.1290 C.3   222  LEU222      0.0022
     76  CD1      114.5110    9.4250    9.4780 C.3   222  LEU222      0.0001
     77  CD2      112.2240    8.5210    9.9510 C.3   222  LEU222      0.0001
@<TRIPOS>BOND
     1    43    44    1
     2    45    44    1
     3    45    46    2
     4    44    47    1
     5    47    48    1
     6    48    49    1
     7    52    51    1
     8    49    50    1
     9    51    50    2
    10    51    53    1
    11    23    22    2
    12    73    72    2
    13     5     2    1
    14    72    71    1
    15     9     8    2
    16    22    21    1
    17    22    27   am
    18    21    24    1
    19    21    20    1
    20    69    68    2
    21    24    25    1
    22     2     1    1
    23     2     3    1
    24     8    20   am
    25     8     7    1
    26    20    26    1
    27    27    28    1
    28    68    67    1
    29    68    70   am
    30    28    29    1
    31    28    31    1
    32    32    31    1
    33     6     3   am
    34     6     7    1
    35    25    26    1
    36    71    70    1
    37    71    74    1
    38     3     4    2
    39    67    66    1
    40    29    30    2
    41    31    33    1
    42     7    10    1
    43    75    74    1
    44    75    76    1
    45    75    77    1
    46    10    11    1
    47    11    12   ar
    48    11    13   ar
    49    61    60    2
    50    12    14   ar
    51    13    16   ar
    52    13    15   ar
    53    16    18   ar
    54    64    63    2
    55    60    59    1
    56    14    15   ar
    57    15    17   ar
    58    18    19   ar
    59    54    55    1
    60    55    56    1
    61    58    56   am
    62    58    59    1
    63    63    65   am
    64    63    62    1
    65    56    57    2
    66    59    62    1
    67    17    19   ar
    68    41    40    2
    69    42    40   am
    70    40    39    1
    71    39    38    1
    72    38    35    1
    73    34    35    1
    74    35    36    1
    75    36    37    2
