@<TRIPOS>MOLECULE
tmp/5oneA00.pdb
 202 192 0 0 0
SMALL
GASTEIGER

@<TRIPOS>ATOM
      1  N         37.0240   -0.4540   -7.2550 N.3    11  ARG11      -0.1245
      2  CA        37.4200   -1.6560   -8.0040 C.3    11  ARG11       0.1563
      3  C         36.2430   -2.5910   -8.2960 C.2    11  ARG11       0.2260
      4  O         35.2060   -2.5300   -7.6190 O.2    11  ARG11      -0.2867
      5  CB        38.5160   -2.4430   -7.2600 C.3    11  ARG11       0.0307
      6  CG        37.9820   -3.4010   -6.2070 C.3    11  ARG11       0.0489
      7  CD        39.0920   -4.0210   -5.3890 C.3    11  ARG11       0.2205
      8  NE        38.5150   -4.8330   -4.3210 N.pl3  11  ARG11      -0.0865
      9  CZ        38.3160   -4.4420   -3.0610 C.cat  11  ARG11       0.5346
     10  NH1       37.7550   -5.2910   -2.1950 N.pl3  11  ARG11       0.1354
     11  NH2       38.6840   -3.2370   -2.6420 N.pl3  11  ARG11       0.1354
     12  N         34.4330   -5.7950   -7.6370 N.3    13  LEU13      -0.1231
     13  CA        34.3190   -6.8560   -6.6320 C.3    13  LEU13       0.1693
     14  C         33.9890   -8.2080   -7.2520 C.2    13  LEU13       0.2592
     15  O         34.3700   -9.2370   -6.7020 O.2    13  LEU13      -0.2718
     16  CB        33.2710   -6.4970   -5.5970 C.3    13  LEU13       0.0284
     17  CG        33.6370   -5.2770   -4.7810 C.3    13  LEU13       0.0019
     18  CD1       32.5170   -4.9970   -3.8060 C.3    13  LEU13       0.0001
     19  CD2       34.9600   -5.4880   -4.0460 C.3    13  LEU13       0.0001
     20  N         33.2690   -8.2030   -8.3760 N.am   14  GLY14      -0.1957
     21  CA        33.1330   -9.3940   -9.2100 C.3    14  GLY14       0.1869
     22  C         32.8030   -9.0440  -10.6490 C.2    14  GLY14       0.2309
     23  O         31.9910   -8.1490  -10.8950 O.2    14  GLY14      -0.2863
     24  N         30.0410   -6.1940  -10.6820 N.3    21  VAL21      -0.1245
     25  CA        29.8050   -5.5980   -9.3350 C.3    21  VAL21       0.1561
     26  C         30.9770   -4.7360   -8.9190 C.2    21  VAL21       0.2260
     27  O         32.1080   -5.2080   -8.8640 O.2    21  VAL21      -0.2867
     28  CB        29.6250   -6.6590   -8.2420 C.3    21  VAL21       0.0252
     29  CG1       29.4870   -6.0060   -6.8800 C.3    21  VAL21       0.0019
     30  CG2       28.3900   -7.4690   -8.5070 C.3    21  VAL21       0.0019
     31  N         27.7630   -1.0400   -2.9980 N.3    34  ALA34      -0.1245
     32  CA        28.1870   -1.7320   -4.2020 C.3    34  ALA34       0.1562
     33  C         27.1940   -1.4800   -5.2860 C.2    34  ALA34       0.2260
     34  O         26.0150   -1.3230   -5.0210 O.2    34  ALA34      -0.2867
     35  CB        28.3160   -3.2100   -3.9520 C.3    34  ALA34       0.0290
     36  N         25.8960   -2.9330   -8.8180 N.3    36  LYS36      -0.1245
     37  CA        25.8290   -4.0420   -9.7760 C.3    36  LYS36       0.1561
     38  C         25.3740   -3.5060  -11.1270 C.2    36  LYS36       0.2260
     39  O         24.3280   -2.8680  -11.2340 O.2    36  LYS36      -0.2867
     40  CB        24.8870   -5.1390   -9.2850 C.3    36  LYS36       0.0271
     41  CG        25.0320   -6.4630  -10.0290 C.3    36  LYS36       0.0035
     42  CD        23.7920   -7.3360   -9.8540 C.3    36  LYS36       0.0206
     43  CE        24.0260   -8.7600  -10.3460 C.3    36  LYS36       0.1093
     44  NZ        24.9680   -9.5310   -9.4770 N.3    36  LYS36      -0.1314
     45  N         21.3390   -9.7000    2.1050 N.3    68  LEU68      -0.1245
     46  CA        22.0110   -8.5800    1.4650 C.3    68  LEU68       0.1561
     47  C         20.9770   -7.5740    0.9490 C.2    68  LEU68       0.2260
     48  O         20.0880   -7.9200    0.1760 O.2    68  LEU68      -0.2867
     49  CB        22.9050   -9.0640    0.3430 C.3    68  LEU68       0.0270
     50  CG        24.0590   -8.1280    0.0170 C.3    68  LEU68       0.0019
     51  CD1       25.1390   -8.1960    1.1000 C.3    68  LEU68       0.0001
     52  CD2       24.6430   -8.4640   -1.3420 C.3    68  LEU68       0.0001
     53  N         23.4930   -1.7950   -4.0020 N.3    84  LEU84      -0.1231
     54  CA        23.4760   -2.9270   -3.0990 C.3    84  LEU84       0.1693
     55  C         24.3530   -2.7540   -1.8490 C.2    84  LEU84       0.2592
     56  O         25.3640   -2.0460   -1.8750 O.2    84  LEU84      -0.2718
     57  CB        23.9060   -4.1790   -3.8610 C.3    84  LEU84       0.0284
     58  CG        22.8150   -4.7840   -4.7700 C.3    84  LEU84       0.0019
     59  CD1       23.4030   -5.7400   -5.7950 C.3    84  LEU84       0.0001
     60  CD2       21.7530   -5.4900   -3.9490 C.3    84  LEU84       0.0001
     61  N         23.9560   -3.4280   -0.7630 N.am   85  GLU85      -0.1966
     62  CA        24.7850   -3.5330    0.4020 C.3    85  GLU85       0.1733
     63  C         26.1170   -4.1410    0.0240 C.2    85  GLU85       0.2616
     64  O         26.1720   -5.0820   -0.7720 O.2    85  GLU85      -0.2715
     65  CB        24.1360   -4.3960    1.4710 C.3    85  GLU85       0.0429
     66  CG        24.9140   -4.4070    2.7810 C.3    85  GLU85       0.1163
     67  CD        24.2740   -5.2600    3.8610 C.2    85  GLU85       0.3649
     68  OE1       23.0980   -5.6790    3.7080 O.co2  85  GLU85      -0.2457
     69  OE2       24.9730   -5.5400    4.8580 O.co2  85  GLU85      -0.2457
     70  N         27.1840   -3.5800    0.5940 N.am   86  TYR86      -0.1960
     71  CA        28.5320   -4.0890    0.4450 C.3    86  TYR86       0.1771
     72  C         28.8330   -4.9600    1.6640 C.2    86  TYR86       0.2619
     73  O         28.5150   -4.5880    2.7900 O.2    86  TYR86      -0.2715
     74  CB        29.5260   -2.9230    0.3420 C.3    86  TYR86       0.0574
     75  CG        30.9930   -3.3310    0.4490 C.ar   86  TYR86      -0.0198
     76  CD1       31.5910   -4.1250   -0.5270 C.ar   86  TYR86      -0.0009
     77  CD2       31.7780   -2.9060    1.5110 C.ar   86  TYR86      -0.0009
     78  CE1       32.9200   -4.4940   -0.4420 C.ar   86  TYR86       0.0417
     79  CE2       33.1120   -3.2680    1.6040 C.ar   86  TYR86       0.0417
     80  CZ        33.6750   -4.0610    0.6250 C.ar   86  TYR86       0.1957
     81  OH        35.0070   -4.4430    0.7070 O.3    86  TYR86      -0.2866
     82  N         29.4100   -6.1330    1.4270 N.am   87  ALA87      -0.1964
     83  CA        29.7860   -7.0410    2.4990 C.3    87  ALA87       0.1713
     84  C         31.3290   -7.1040    2.5420 C.2    87  ALA87       0.2458
     85  O         31.9500   -7.6530    1.6190 O.2    87  ALA87      -0.2730
     86  CB        29.1890   -8.3990    2.2460 C.3    87  ALA87       0.0333
     87  N         31.9500   -6.4680    3.5630 N.am   88  PRO88      -0.2716
     88  CA        33.4010   -6.2510    3.5320 C.3    88  PRO88       0.1536
     89  C         34.2900   -7.4900    3.6030 C.2    88  PRO88       0.2598
     90  O         35.4470   -7.4170    3.1730 O.2    88  PRO88      -0.2715
     91  CB        33.6530   -5.3620    4.7590 C.3    88  PRO88       0.0310
     92  CG        32.3840   -4.6310    4.9690 C.3    88  PRO88       0.0237
     93  CD        31.3050   -5.6170    4.5880 C.3    88  PRO88       0.0939
     94  N         33.7810   -8.6040    4.1340 N.am   89  LEU89      -0.1964
     95  CA        34.6200   -9.7790    4.4010 C.3    89  LEU89       0.1728
     96  C         34.5070  -10.8940    3.3790 C.2    89  LEU89       0.2617
     97  O         35.0620  -11.9740    3.5880 O.2    89  LEU89      -0.2715
     98  CB        34.3340  -10.3160    5.7990 C.3    89  LEU89       0.0311
     99  CG        34.8190   -9.4150    6.9470 C.3    89  LEU89       0.0022
    100  CD1       34.6320  -10.1430    8.2710 C.3    89  LEU89       0.0001
    101  CD2       36.2790   -8.9960    6.7770 C.3    89  LEU89       0.0001
    102  N         33.8170  -10.6290    2.2660 N.am   90  GLY90      -0.1940
    103  CA        33.8420  -11.5220    1.0990 C.3    90  GLY90       0.2014
    104  C         32.9270  -12.7360    1.2210 C.2    90  GLY90       0.2639
    105  O         31.9640  -12.7570    2.0010 O.2    90  GLY90      -0.2714
    106  N         33.2200  -13.7470    0.4280 N.am   91  THR91      -0.1950
    107  CA        32.3390  -14.8710    0.3220 C.3    91  THR91       0.1897
    108  C         32.7010  -15.8630    1.3980 C.2    91  THR91       0.2313
    109  O         33.8720  -16.0180    1.7510 O.2    91  THR91      -0.2863
    110  CB        32.4390  -15.5470   -1.0320 C.3    91  THR91       0.1794
    111  OG1       33.7260  -16.1510   -1.1630 O.3    91  THR91      -0.2208
    112  CG2       32.2190  -14.5650   -2.1280 C.3    91  THR91       0.0378
    113  N         35.3460  -18.2860    0.1000 N.3    94  ARG94      -0.1245
    114  CA        36.7610  -17.9240    0.2940 C.3    94  ARG94       0.1563
    115  C         37.2290  -18.2430    1.6920 C.2    94  ARG94       0.2260
    116  O         38.3090  -18.8080    1.8740 O.2    94  ARG94      -0.2867
    117  CB        37.0230  -16.4360    0.0140 C.3    94  ARG94       0.0307
    118  CG        37.9960  -16.1720   -1.1320 C.3    94  ARG94       0.0489
    119  CD        37.4750  -16.7280   -2.4560 C.3    94  ARG94       0.2205
    120  NE        38.1190  -16.1220   -3.6260 N.pl3  94  ARG94      -0.0865
    121  CZ        37.7040  -16.2730   -4.8870 C.cat  94  ARG94       0.5346
    122  NH1       38.3670  -15.6690   -5.8760 N.pl3  94  ARG94       0.1354
    123  NH2       36.6260  -17.0160   -5.1710 N.pl3  94  ARG94       0.1354
    124  N         37.9240  -21.9010    1.8020 N.3    97  GLN97      -0.1231
    125  CA        39.2350  -22.1840    1.1540 C.3    97  GLN97       0.1698
    126  C         40.4450  -21.9080    2.0660 C.2    97  GLN97       0.2592
    127  O         41.4270  -22.6420    2.0280 O.2    97  GLN97      -0.2718
    128  CB        39.4390  -21.3480   -0.1140 C.3    97  GLN97       0.0381
    129  CG        38.3360  -21.4430   -1.1460 C.3    97  GLN97       0.0905
    130  CD        38.8310  -21.1570   -2.5510 C.2    97  GLN97       0.2608
    131  OE1       38.5170  -21.9000   -3.4950 O.2    97  GLN97      -0.2717
    132  NE2       39.6110  -20.0800   -2.7040 N.am   97  GLN97      -0.0878
    133  N         40.3900  -20.8200    2.8320 N.am   98  LYS98      -0.1980
    134  CA        41.5010  -20.4380    3.7000 C.3    98  LYS98       0.1596
    135  C         41.5940  -21.3810    4.8760 C.2    98  LYS98       0.2287
    136  O         42.6500  -21.9660    5.1240 O.2    98  LYS98      -0.2864
    137  CB        41.3540  -18.9920    4.1940 C.3    98  LYS98       0.0298
    138  CG        41.7010  -17.9580    3.1420 C.3    98  LYS98       0.0038
    139  CD        41.4790  -16.5400    3.6390 C.3    98  LYS98       0.0206
    140  CE        41.6070  -15.5490    2.4840 C.3    98  LYS98       0.1093
    141  NZ        41.2180  -14.1460    2.8300 N.3    98  LYS98      -0.1314
    142  N         29.5710  -19.6850   -2.2520 N.3   134  GLU134     -0.1231
    143  CA        29.9660  -18.5950   -3.1670 C.3   134  GLU134      0.1699
    144  C         28.9650  -17.4590   -3.2170 C.2   134  GLU134      0.2592
    145  O         29.3000  -16.3540   -3.6540 O.2   134  GLU134     -0.2718
    146  CB        30.0900  -19.1170   -4.5960 C.3   134  GLU134      0.0402
    147  CG        30.8700  -20.4190   -4.7400 C.3   134  GLU134      0.1161
    148  CD        29.9720  -21.6570   -4.8650 C.2   134  GLU134      0.3649
    149  OE1       29.3800  -21.8410   -5.9720 O.co2 134  GLU134     -0.2457
    150  OE2       29.9040  -22.4500   -3.8770 O.co2 134  GLU134     -0.2457
    151  N         27.7170  -17.7500   -2.8630 N.am  135  ASN135     -0.1974
    152  CA        26.6380  -16.7780   -2.9170 C.3   135  ASN135      0.1688
    153  C         26.2760  -16.2610   -1.5370 C.2   135  ASN135      0.2292
    154  O         25.3510  -15.4890   -1.3940 O.2   135  ASN135     -0.2864
    155  CB        25.4240  -17.4030   -3.6110 C.3   135  ASN135      0.1181
    156  CG        25.7590  -17.9210   -5.0100 C.2   135  ASN135      0.2629
    157  OD1       26.6880  -17.4340   -5.6470 O.2   135  ASN135     -0.2716
    158  ND2       25.0250  -18.9280   -5.4760 N.am  135  ASN135     -0.0877
    159  N         27.6750  -14.0000    1.6170 N.3   137  LEU137     -0.1245
    160  CA        28.6800  -12.9940    1.8920 C.3   137  LEU137      0.1561
    161  C         28.7970  -12.8270    3.3850 C.2   137  LEU137      0.2260
    162  O         27.9600  -13.3560    4.1420 O.2   137  LEU137     -0.2867
    163  CB        28.3130  -11.6660    1.2450 C.3   137  LEU137      0.0270
    164  CG        28.0870  -11.7190   -0.2670 C.3   137  LEU137      0.0019
    165  CD1       27.4780  -10.4100   -0.7340 C.3   137  LEU137      0.0001
    166  CD2       29.3810  -11.9930   -1.0300 C.3   137  LEU137      0.0001
    167  N         22.9680  -13.3140   -0.5440 N.3   147  ALA147     -0.1231
    168  CA        23.1400  -12.3070   -1.5800 C.3   147  ALA147      0.1694
    169  C         22.4070  -12.6250   -2.8770 C.2   147  ALA147      0.2592
    170  O         22.2380  -11.7410   -3.6970 O.2   147  ALA147     -0.2718
    171  CB        24.6140  -12.1260   -1.8650 C.3   147  ALA147      0.0304
    172  N         21.9900  -13.8740   -3.0740 N.am  148  ASP148     -0.1974
    173  CA        21.5560  -14.3240   -4.4050 C.3   148  ASP148      0.1709
    174  C         20.1320  -13.9220   -4.7020 C.2   148  ASP148      0.2293
    175  O         19.1870  -14.5560   -4.2380 O.2   148  ASP148     -0.2864
    176  CB        21.7020  -15.8450   -4.5470 C.3   148  ASP148      0.1436
    177  CG        21.8300  -16.2910   -6.0000 C.2   148  ASP148      0.3671
    178  OD1       21.1670  -15.7020   -6.8860 O.co2 148  ASP148     -0.2456
    179  OD2       22.6120  -17.2300   -6.2560 O.co2 148  ASP148     -0.2456
    180  N         24.2730  -14.2420  -10.4060 N.3   152  SER152     -0.1202
    181  CA        25.3730  -14.1510   -9.4410 C.3   152  SER152      0.2020
    182  C         26.7030  -13.8370  -10.1330 C.2   152  SER152      0.2619
    183  O         26.7430  -13.6160  -11.3490 O.2   152  SER152     -0.2717
    184  CB        25.4830  -15.4560   -8.6390 C.3   152  SER152      0.2103
    185  OG        25.9050  -16.5350   -9.4010 O.3   152  SER152     -0.2182
    186  N         27.7840  -13.7920   -9.3500 N.am  153  VAL153     -0.1965
    187  CA        29.0680  -13.2870   -9.8380 C.3   153  VAL153      0.1727
    188  C         30.2390  -14.2220   -9.4430 C.2   153  VAL153      0.2616
    189  O         31.1790  -13.8230   -8.7380 O.2   153  VAL153     -0.2715
    190  CB        29.3030  -11.8320   -9.3600 C.3   153  VAL153      0.0290
    191  CG1       30.2040  -11.1040  -10.3420 C.3   153  VAL153      0.0023
    192  CG2       27.9830  -11.0780   -9.2290 C.3   153  VAL153      0.0023
    193  N         30.1660  -15.4660   -9.9400 N.am  154  HIS154     -0.1973
    194  CA        31.1420  -16.5350   -9.6250 C.3   154  HIS154      0.1656
    195  C         31.1150  -17.6460  -10.6920 C.2   154  HIS154      0.2291
    196  O         32.0720  -17.8120  -11.4750 O.2   154  HIS154     -0.2864
    197  CB        30.8410  -17.1500   -8.2480 C.3   154  HIS154      0.0771
    198  CG        31.8940  -18.1250   -7.7530 C.ar  154  HIS154      0.0820
    199  ND1       32.8500  -17.8770   -6.8670 N.ar  154  HIS154     -0.2267
    200  CD2       31.9480  -19.4600   -8.0510 C.ar  154  HIS154      0.1154
    201  CE1       33.4710  -18.9980   -6.5930 C.ar  154  HIS154      0.1986
    202  NE2       32.9170  -19.9330   -7.3090 N.ar  154  HIS154     -0.2212
@<TRIPOS>BOND
     1   196   195    2
     2   183   182    2
     3    39    38    2
     4    38    37    1
     5    23    22    2
     6   195   194    1
     7    24    25    1
     8    22    21    1
     9   180   181    1
    10    43    42    1
    11    43    44    1
    12   191   190    1
    13   182   181    1
    14   182   186   am
    15    41    42    1
    16    41    40    1
    17   193   194    1
    18   193   188   am
    19   187   188    1
    20   187   190    1
    21   187   186    1
    22    37    40    1
    23    37    36    1
    24   194   197    1
    25   188   189    2
    26   181   184    1
    27   185   184    1
    28   190   192    1
    29    25    26    1
    30    25    28    1
    31    21    20    1
    32    26    27    2
    33    30    28    1
    34    20    14   am
    35     3     2    1
    36     3     4    2
    37   197   198    1
    38    28    29    1
    39   200   198   ar
    40   200   202   ar
    41     2     5    1
    42     2     1    1
    43   198   199   ar
    44    12    13    1
    45   202   201   ar
    46     5     6    1
    47    14    15    2
    48    14    13    1
    49   178   177   ar
    50   199   201   ar
    51    13    16    1
    52   179   177   ar
    53     6     7    1
    54   177   176    1
    55   149   148   ar
    56   122   121    1
    57    59    58    1
    58   157   156    2
    59    16    17    1
    60   158   156   am
    61     7     8    1
    62    33    34    2
    63    33    32    1
    64   123   121    1
    65   156   155    1
    66   121   120    2
    67   148   147    1
    68   148   150   ar
    69    17    19    1
    70    17    18    1
    71    58    60    1
    72    58    57    1
    73   147   146    1
    74   174   173    1
    75   174   175    2
    76   146   143    1
    77   176   173    1
    78   173   172    1
    79     8     9    2
    80    32    35    1
    81    32    31    1
    82    53    54    1
    83    57    54    1
    84   170   169    2
    85   145   144    2
    86   120   119    1
    87   155   152    1
    88   131   130    2
    89   144   143    1
    90   144   151   am
    91   143   142    1
    92    54    55    1
    93   172   169   am
    94     9    11    1
    95     9    10    1
    96   152   151    1
    97   152   153    1
    98   169   168    1
    99   132   130   am
   100   130   129    1
   101   119   118    1
   102   112   110    1
   103    56    55    2
   104   171   168    1
   105    55    61   am
   106   168   167    1
   107   153   154    2
   108    52    50    1
   109   111   110    1
   110   129   128    1
   111   118   117    1
   112   110   107    1
   113   166   164    1
   114    64    63    2
   115    61    62    1
   116   165   164    1
   117    76    78   ar
   118    76    75   ar
   119    78    80   ar
   120   164   163    1
   121   128   125    1
   122   117   114    1
   123    50    49    1
   124    50    51    1
   125    63    62    1
   126    63    70   am
   127   113   114    1
   128    48    47    2
   129   114   115    1
   130   107   106    1
   131   107   108    1
   132    74    71    1
   133    74    75    1
   134    49    46    1
   135    62    65    1
   136   106   104   am
   137    71    70    1
   138    71    72    1
   139    75    77   ar
   140    80    81    1
   141    80    79   ar
   142    47    46    1
   143   103   104    1
   144   103   102    1
   145   125   124    1
   146   125   126    1
   147   104   105    2
   148   163   160    1
   149   108   109    2
   150    82    72   am
   151    82    83    1
   152    46    45    1
   153    65    66    1
   154    77    79   ar
   155   159   160    1
   156    85    84    2
   157    72    73    2
   158   115   116    2
   159   160   161    1
   160   127   126    2
   161   126   133   am
   162    86    83    1
   163   102    96   am
   164   140   141    1
   165   140   139    1
   166    83    84    1
   167    84    87   am
   168    66    67    1
   169   133   134    1
   170   138   139    1
   171   138   137    1
   172    90    89    2
   173    96    97    2
   174    96    95    1
   175   161   162    2
   176    88    87    1
   177    88    89    1
   178    88    91    1
   179    87    93    1
   180    89    94   am
   181   134   137    1
   182   134   135    1
   183    68    67   ar
   184    67    69   ar
   185    94    95    1
   186    95    98    1
   187    93    92    1
   188    91    92    1
   189   135   136    2
   190    98    99    1
   191   101    99    1
   192    99   100    1
