@<TRIPOS>MOLECULE
tmp/5onkA00.pdb
 104 100 0 0 0
SMALL
GASTEIGER

@<TRIPOS>ATOM
      1  N        -10.9530    4.2850  -17.9040 N.3    36  HIS36      -0.1241
      2  CA        -9.8220    4.7090  -18.7660 C.3    36  HIS36       0.1621
      3  C         -8.8960    3.5610  -19.0290 C.2    36  HIS36       0.2264
      4  O         -7.6680    3.6930  -18.9600 O.2    36  HIS36      -0.2867
      5  CB        -9.0900    5.8950  -18.1060 C.3    36  HIS36       0.0745
      6  CG       -10.0040    7.0830  -17.9220 C.ar   36  HIS36       0.0817
      7  ND1       -9.8760    7.9190  -16.8390 N.ar   36  HIS36      -0.2268
      8  CD2      -11.0210    7.5340  -18.6750 C.ar   36  HIS36       0.1154
      9  CE1      -10.8240    8.8590  -16.9590 C.ar   36  HIS36       0.1986
     10  NE2      -11.5420    8.6410  -18.0290 N.ar   36  HIS36      -0.2212
     11  N         -5.2530    4.7070  -20.0450 N.3    41  GLU41      -0.1245
     12  CA        -4.3430    4.6440  -18.8610 C.3    41  GLU41       0.1567
     13  C         -3.9230    3.2300  -18.7280 C.2    41  GLU41       0.2260
     14  O         -4.5050    2.3800  -18.0770 O.2    41  GLU41      -0.2867
     15  CB        -5.0620    5.2210  -17.6100 C.3    41  GLU41       0.0388
     16  CG        -5.1950    6.7300  -17.7340 C.3    41  GLU41       0.1160
     17  CD        -6.3480    7.3750  -16.9970 C.2    41  GLU41       0.3649
     18  OE1       -6.7590    6.9360  -15.9290 O.co2  41  GLU41      -0.2457
     19  OE2       -6.8240    8.4100  -17.4960 O.co2  41  GLU41      -0.2457
     20  N        -10.4980    9.4320  -23.6740 N.3    72  HIS72      -0.1241
     21  CA       -10.6170    9.7770  -22.2510 C.3    72  HIS72       0.1621
     22  C        -11.7800   10.7170  -22.0110 C.2    72  HIS72       0.2264
     23  O        -11.7200   11.8710  -22.5320 O.2    72  HIS72      -0.2867
     24  CB        -9.3120   10.4380  -21.7970 C.3    72  HIS72       0.0745
     25  CG        -9.3130   10.8520  -20.3710 C.ar   72  HIS72       0.0817
     26  ND1       -9.7820   12.1070  -19.9660 N.ar   72  HIS72      -0.2268
     27  CD2       -8.8360   10.2820  -19.2510 C.ar   72  HIS72       0.1154
     28  CE1       -9.6510   12.2150  -18.6430 C.ar   72  HIS72       0.1986
     29  NE2       -9.0260   11.1540  -18.2090 N.ar   72  HIS72      -0.2212
     30  N        -13.4250   12.4790  -18.7290 N.3    74  THR74      -0.1203
     31  CA       -13.1940   12.6530  -17.3460 C.3    74  THR74       0.1994
     32  C        -14.3640   12.0980  -16.5210 C.2    74  THR74       0.2618
     33  O        -15.4750   12.1120  -16.9540 O.2    74  THR74      -0.2717
     34  CB       -12.9180   14.1280  -17.0890 C.3    74  THR74       0.1784
     35  OG1      -12.2850   14.3120  -15.8210 O.3    74  THR74      -0.2211
     36  CG2      -14.1770   15.0020  -17.1660 C.3    74  THR74       0.0376
     37  N        -14.0460   11.6720  -15.2770 N.am   75  SER75      -0.1951
     38  CA       -15.0120   10.9940  -14.4640 C.3    75  SER75       0.1924
     39  C        -16.3390   11.7250  -14.2490 C.2    75  SER75       0.2314
     40  O        -17.4050   11.1110  -14.2030 O.2    75  SER75      -0.2863
     41  CB       -14.4480   10.6650  -13.0900 C.3    75  SER75       0.2116
     42  OG       -13.3780    9.7370  -13.1960 O.3    75  SER75      -0.2180
     43  N         -7.2170    4.4550  -12.0000 N.3    97  HIS97      -0.1226
     44  CA        -6.7580    5.4270  -12.9110 C.3    97  HIS97       0.1752
     45  C         -5.2240    5.3850  -13.0170 C.2    97  HIS97       0.2597
     46  O         -4.5400    4.8380  -12.1410 O.2    97  HIS97      -0.2718
     47  CB        -7.1600    6.8520  -12.4720 C.3    97  HIS97       0.0759
     48  CG        -8.6270    7.1150  -12.5910 C.ar   97  HIS97       0.0818
     49  ND1       -9.2240    7.5100  -13.7400 N.ar   97  HIS97      -0.2268
     50  CD2       -9.5890    6.9910  -11.6430 C.ar   97  HIS97       0.1154
     51  CE1      -10.5080    7.6360  -13.5090 C.ar   97  HIS97       0.1986
     52  NE2      -10.7640    7.3330  -12.2810 N.ar   97  HIS97      -0.2212
     53  N         -4.7430    5.9730  -14.0840 N.am   98  GLY98      -0.1942
     54  CA        -3.2950    6.2250  -14.2310 C.3    98  GLY98       0.2014
     55  C         -3.0730    7.6730  -14.4650 C.2    98  GLY98       0.2638
     56  O         -3.8320    8.3640  -15.1230 O.2    98  GLY98      -0.2714
     57  N         -1.8820    8.1500  -14.0070 N.am   99  TYR99      -0.1973
     58  CA        -1.4080    9.5250  -14.3030 C.3    99  TYR99       0.1639
     59  C          0.0760    9.4690  -14.6410 C.2    99  TYR99       0.2290
     60  O          0.7670    8.5130  -14.3680 O.2    99  TYR99      -0.2864
     61  CB        -1.7130   10.4790  -13.0950 C.3    99  TYR99       0.0560
     62  CG        -0.8430   10.2070  -11.8870 C.ar   99  TYR99      -0.0198
     63  CD1        0.2970   11.0210  -11.5900 C.ar   99  TYR99      -0.0009
     64  CD2       -1.1320    9.2240  -10.9890 C.ar   99  TYR99      -0.0009
     65  CE1        1.0240   10.7810  -10.4340 C.ar   99  TYR99       0.0417
     66  CE2       -0.4250    9.0070   -9.8480 C.ar   99  TYR99       0.0417
     67  CZ         0.6970    9.7620   -9.6090 C.ar   99  TYR99       0.1957
     68  OH         1.3660    9.5300   -8.4170 O.3    99  TYR99      -0.2866
     69  N         -8.9340   17.2890   -8.1090 N.3   139  HIS139     -0.1241
     70  CA        -9.3030   15.9330   -8.6240 C.3   139  HIS139      0.1621
     71  C         -9.3120   14.8700   -7.5350 C.2   139  HIS139      0.2264
     72  O         -8.7690   13.7560   -7.7290 O.2   139  HIS139     -0.2867
     73  CB        -8.5720   15.5520   -9.8810 C.3   139  HIS139      0.0745
     74  CG        -8.9370   16.4830  -10.9870 C.ar  139  HIS139      0.0817
     75  ND1       -8.1410   17.5460  -11.3740 N.ar  139  HIS139     -0.2268
     76  CD2      -10.1080   16.6240  -11.6550 C.ar  139  HIS139      0.1154
     77  CE1       -8.7810   18.2580  -12.2920 C.ar  139  HIS139      0.1986
     78  NE2       -9.9730   17.7160  -12.4830 N.ar  139  HIS139     -0.2212
     79  N        -19.0460   12.7440  -10.2800 N.3   146  ASN146     -0.1240
     80  CA       -18.0700   11.6820  -10.6060 C.3   146  ASN146      0.1653
     81  C        -18.7640   10.3460  -10.6870 C.2   146  ASN146      0.2266
     82  O        -19.4580    9.9380   -9.7460 O.2   146  ASN146     -0.2867
     83  CB       -17.0090   11.6790   -9.5380 C.3   146  ASN146      0.1155
     84  CG       -15.8250   10.8350   -9.8610 C.2   146  ASN146      0.2627
     85  OD1      -15.9140    9.7030  -10.2730 O.2   146  ASN146     -0.2716
     86  ND2      -14.6340   11.4750   -9.7010 N.am  146  ASN146     -0.0877
     87  N        -10.6680    6.2450   -4.8000 N.3   158  GLN158     -0.1245
     88  CA       -10.0150    6.5680   -6.1170 C.3   158  GLN158      0.1566
     89  C         -8.5790    6.1320   -6.0280 C.2   158  GLN158      0.2260
     90  O         -7.8630    6.5970   -5.0890 O.2   158  GLN158     -0.2867
     91  CB       -10.1180    8.0310   -6.3830 C.3   158  GLN158      0.0367
     92  CG        -9.4080    8.5080   -7.6770 C.3   158  GLN158      0.0905
     93  CD        -9.5930    9.9480   -7.9680 C.2   158  GLN158      0.2608
     94  OE1      -10.6730   10.3220   -8.4840 O.2   158  GLN158     -0.2717
     95  NE2       -8.7250   10.7930   -7.4930 N.am  158  GLN158     -0.0878
     96  N         -5.1170    6.2890   -8.0670 N.3   160  GLU160     -0.1245
     97  CA        -4.3710    6.8260   -9.1460 C.3   160  GLU160      0.1567
     98  C         -2.9840    6.2750   -9.1350 C.2   160  GLU160      0.2260
     99  O         -2.2210    6.4240   -8.1490 O.2   160  GLU160     -0.2867
    100  CB        -4.2840    8.3740   -8.9970 C.3   160  GLU160      0.0388
    101  CG        -5.5010    9.1300   -9.5790 C.3   160  GLU160      0.1160
    102  CD        -5.4270    9.2880  -11.0820 C.2   160  GLU160      0.3649
    103  OE1       -6.4670    9.9760  -11.5130 O.co2 160  GLU160     -0.2457
    104  OE2       -4.5880    8.7190  -11.7740 O.co2 160  GLU160     -0.2457
@<TRIPOS>BOND
     1    20    21    1
     2    23    22    2
     3    21    22    1
     4    21    24    1
     5    24    25    1
     6    25    26   ar
     7    25    27   ar
     8    11    12    1
     9    26    28   ar
    10    27    29   ar
    11     3     4    2
    12     3     2    1
    13    12    13    1
    14    12    15    1
    15     2     5    1
    16     2     1    1
    17    30    31    1
    18    13    14    2
    19     8    10   ar
    20     8     6   ar
    21    28    29   ar
    22     5     6    1
    23    10     9   ar
    24     6     7   ar
    25    16    15    1
    26    16    17    1
    27    19    17   ar
    28    31    34    1
    29    31    32    1
    30    36    34    1
    31    34    35    1
    32    17    18   ar
    33     9     7   ar
    34    33    32    2
    35    32    37   am
    36    37    38    1
    37    56    55    2
    38    59    60    2
    39    59    58    1
    40    55    54    1
    41    55    57   am
    42    38    39    1
    43    38    41    1
    44    58    57    1
    45    58    61    1
    46    39    40    2
    47    54    53    1
    48    53    45   am
    49    49    51   ar
    50    49    48   ar
    51    51    52   ar
    52    42    41    1
    53    61    62    1
    54    45    44    1
    55    45    46    2
    56    44    47    1
    57    44    43    1
    58    48    47    1
    59    48    50   ar
    60    78    77   ar
    61    78    76   ar
    62    77    75   ar
    63    52    50   ar
    64    62    63   ar
    65    62    64   ar
    66   104   102   ar
    67    76    74   ar
    68    63    65   ar
    69   103   102   ar
    70    75    74   ar
    71   102   101    1
    72    64    66   ar
    73    74    73    1
    74    81    80    1
    75    81    82    2
    76    80    79    1
    77    80    83    1
    78    65    67   ar
    79    85    84    2
    80    73    70    1
    81    84    86   am
    82    84    83    1
    83    66    67   ar
    84    67    68    1
    85   101   100    1
    86    97    98    1
    87    97   100    1
    88    97    96    1
    89    98    99    2
    90    70    69    1
    91    70    71    1
    92    94    93    2
    93    93    92    1
    94    93    95   am
    95    72    71    2
    96    92    91    1
    97    91    88    1
    98    88    89    1
    99    88    87    1
   100    89    90    2
