@<TRIPOS>MOLECULE
tmp/5onlA01.pdb
 65 62 0 0 0
SMALL
GASTEIGER

@<TRIPOS>ATOM
      1  N          5.5200   48.9100   23.9550 N.3    39  GLY39      -0.1210
      2  CA         4.4570   49.8970   24.1930 C.3    39  GLY39       0.1956
      3  C          4.6130   51.2890   23.6100 C.2    39  GLY39       0.2611
      4  O          3.7550   52.1370   23.7580 O.2    39  GLY39      -0.2717
      5  N          5.7200   51.5480   22.9120 N.am   40  ILE40      -0.1979
      6  CA         5.9900   52.8820   22.3650 C.3    40  ILE40       0.1595
      7  C          5.0950   53.0600   21.1700 C.2    40  ILE40       0.2287
      8  O          4.3240   54.0110   21.2000 O.2    40  ILE40      -0.2864
      9  CB         7.4550   53.0240   21.9680 C.3    40  ILE40       0.0276
     10  CG1        8.3880   52.7680   23.1500 C.3    40  ILE40       0.0022
     11  CG2        7.7010   54.4270   21.4020 C.3    40  ILE40       0.0022
     12  CD1        9.8730   52.6220   22.7590 C.3    40  ILE40       0.0001
     13  N          7.3990   49.0520   29.6910 N.3    64  LYS64      -0.1231
     14  CA         6.6670   49.5830   30.9000 C.3    64  LYS64       0.1693
     15  C          5.1710   49.1650   30.8180 C.2    64  LYS64       0.2593
     16  O          4.6480   48.9410   29.7130 O.2    64  LYS64      -0.2718
     17  CB         6.7840   51.0780   30.9220 C.3    64  LYS64       0.0285
     18  CG         8.1440   51.5780   31.1300 C.3    64  LYS64       0.0035
     19  CD         8.0330   53.0430   31.4620 C.3    64  LYS64       0.0206
     20  CE         9.4180   53.6090   31.5880 C.3    64  LYS64       0.1093
     21  NZ         9.4800   54.6130   32.6830 N.3    64  LYS64      -0.1314
     22  N          4.4870   49.0090   31.9720 N.am   65  SER65      -0.1938
     23  CA         3.0280   48.7440   31.9410 C.3    65  SER65       0.2055
     24  C          2.3070   49.9830   31.4610 C.2    65  SER65       0.2643
     25  O          1.2940   49.8570   30.7760 O.2    65  SER65      -0.2714
     26  CB         2.4570   48.2950   33.3000 C.3    65  SER65       0.2130
     27  OG         2.7780   49.2220   34.3140 O.3    65  SER65      -0.2179
     28  N          2.8680   51.1630   31.7730 N.am   66  ALA66      -0.1963
     29  CA         2.4330   52.3970   31.1690 C.3    66  ALA66       0.1728
     30  C          3.5640   53.4810   31.1110 C.2    66  ALA66       0.2617
     31  O          4.6220   53.3830   31.7810 O.2    66  ALA66      -0.2715
     32  CB         1.2160   52.9200   31.9300 C.3    66  ALA66       0.0334
     33  N          3.3320   54.5180   30.3060 N.am   67  GLY67      -0.1940
     34  CA         4.2770   55.5830   30.2150 C.3    67  GLY67       0.2014
     35  C          5.4540   55.3120   29.2450 C.2    67  GLY67       0.2639
     36  O          6.4970   55.9370   29.3400 O.2    67  GLY67      -0.2714
     37  N          5.2480   54.4050   28.2840 N.am   68  ASN68      -0.1958
     38  CA         6.3510   54.0380   27.3240 C.3    68  ASN68       0.1819
     39  C          6.6620   55.2200   26.3650 C.2    68  ASN68       0.2622
     40  O          7.7140   55.2350   25.6960 O.2    68  ASN68      -0.2715
     41  CB         5.9400   52.7900   26.5100 C.3    68  ASN68       0.1195
     42  CG         6.1270   51.5190   27.2940 C.2    68  ASN68       0.2630
     43  OD1        7.2270   51.1380   27.6280 O.2    68  ASN68      -0.2716
     44  ND2        5.0270   50.9080   27.6640 N.am   68  ASN68      -0.0877
     45  N          5.7310   56.1860   26.2770 N.am   69  SER69      -0.1936
     46  CA         5.9750   57.3810   25.4440 C.3    69  SER69       0.2055
     47  C          7.2670   58.0580   25.8480 C.2    69  SER69       0.2642
     48  O          7.9060   58.6730   25.0290 O.2    69  SER69      -0.2714
     49  CB         4.8160   58.4010   25.5490 C.3    69  SER69       0.2130
     50  OG         3.6560   57.9500   24.8460 O.3    69  SER69      -0.2179
     51  N          7.6960   57.9410   27.1010 N.am   70  VAL70      -0.1977
     52  CA         8.9600   58.5520   27.5410 C.3    70  VAL70       0.1596
     53  C         10.2060   57.8960   26.9230 C.2    70  VAL70       0.2287
     54  O         11.3070   58.4650   26.9480 O.2    70  VAL70      -0.2864
     55  CB         9.1070   58.5810   29.0560 C.3    70  VAL70       0.0276
     56  CG1        7.8190   59.1640   29.6640 C.3    70  VAL70       0.0022
     57  CG2        9.4580   57.2210   29.6190 C.3    70  VAL70       0.0022
     58  N          0.5190   44.9340   25.2790 N.3   175  LEU175     -0.1245
     59  CA         1.8830   44.4500   25.3140 C.3   175  LEU175      0.1561
     60  C          1.9390   42.9130   25.5560 C.2   175  LEU175      0.2260
     61  O          2.6560   42.1320   24.8850 O.2   175  LEU175     -0.2867
     62  CB         2.6310   45.2120   26.3630 C.3   175  LEU175      0.0270
     63  CG         4.1200   45.0160   26.5260 C.3   175  LEU175      0.0019
     64  CD1        4.8000   45.4850   25.2500 C.3   175  LEU175      0.0001
     65  CD2        4.6540   45.8970   27.6500 C.3   175  LEU175      0.0001
@<TRIPOS>BOND
     1     7     8    2
     2     7     6    1
     3    11     9    1
     4     9     6    1
     5     9    10    1
     6     6     5    1
     7    12    10    1
     8     5     3   am
     9     3     4    2
    10     3     2    1
    11     1     2    1
    12    50    49    1
    13    61    60    2
    14    48    47    2
    15    64    63    1
    16    58    59    1
    17    59    60    1
    18    59    62    1
    19    46    49    1
    20    46    47    1
    21    46    45    1
    22    40    39    2
    23    47    51   am
    24    45    39   am
    25    62    63    1
    26    39    38    1
    27    41    42    1
    28    41    38    1
    29    63    65    1
    30    53    54    2
    31    53    52    1
    32    51    52    1
    33    42    43    2
    34    42    44   am
    35    38    37    1
    36    52    55    1
    37    37    35   am
    38    55    57    1
    39    55    56    1
    40    35    36    2
    41    35    34    1
    42    13    14    1
    43    16    15    2
    44    34    33    1
    45    33    30   am
    46    25    24    2
    47    15    14    1
    48    15    22   am
    49    14    17    1
    50    17    18    1
    51    30    29    1
    52    30    31    2
    53    18    19    1
    54    29    28    1
    55    29    32    1
    56    24    28   am
    57    24    23    1
    58    19    20    1
    59    20    21    1
    60    23    22    1
    61    23    26    1
    62    26    27    1
