@<TRIPOS>MOLECULE
tmp/5onnA00.pdb
 176 162 0 0 0
SMALL
GASTEIGER

@<TRIPOS>ATOM
      1  N          8.0760  -38.7470   67.1860 N.3    21  TRP21      -0.1241
      2  CA         9.2650  -38.2890   67.9040 C.3    21  TRP21       0.1605
      3  C         10.3340  -37.8000   66.9350 C.2    21  TRP21       0.2264
      4  O         10.4560  -38.3160   65.8170 O.2    21  TRP21      -0.2867
      5  CB         9.8680  -39.3560   68.8460 C.3    21  TRP21       0.0550
      6  CG        10.1290  -40.7790   68.3220 C.ar   21  TRP21       0.0003
      7  CD1        9.3150  -41.8600   68.4780 C.ar   21  TRP21       0.0946
      8  CD2       11.3060  -41.2640   67.6400 C.ar   21  TRP21       0.0152
      9  NE1        9.8900  -42.9800   67.9150 N.ar   21  TRP21      -0.2442
     10  CE2       11.1110  -42.6400   67.3920 C.ar   21  TRP21       0.0810
     11  CE3       12.4950  -40.6640   67.2030 C.ar   21  TRP21       0.0012
     12  CZ2       12.0610  -43.4280   66.7290 C.ar   21  TRP21       0.0191
     13  CZ3       13.4390  -41.4520   66.5400 C.ar   21  TRP21       0.0001
     14  CH2       13.2100  -42.8160   66.3090 C.ar   21  TRP21       0.0015
     15  N         14.3850  -37.3640   67.2440 N.3    23  SER23      -0.1217
     16  CA        15.4930  -37.7050   68.1220 C.3    23  SER23       0.1889
     17  C         16.7710  -37.0650   67.5990 C.2    23  SER23       0.2288
     18  O         17.2200  -37.3660   66.4790 O.2    23  SER23      -0.2866
     19  CB        15.6670  -39.2150   68.2610 C.3    23  SER23       0.2089
     20  OG        16.6660  -39.5000   69.2230 O.3    23  SER23      -0.2183
     21  N         20.4620  -36.9650   67.9560 N.3    25  ARG25      -0.1245
     22  CA        21.4570  -37.8370   68.5490 C.3    25  ARG25       0.1563
     23  C         22.7260  -37.0600   68.8430 C.2    25  ARG25       0.2260
     24  O         23.2570  -36.3600   67.9720 O.2    25  ARG25      -0.2867
     25  CB        21.7600  -38.9970   67.6020 C.3    25  ARG25       0.0307
     26  CG        20.5200  -39.8220   67.3210 C.3    25  ARG25       0.0489
     27  CD        20.8220  -41.0200   66.4840 C.3    25  ARG25       0.2205
     28  NE        21.8880  -41.8700   66.9810 N.pl3  25  ARG25      -0.0865
     29  CZ        21.7660  -42.7230   67.9800 C.cat  25  ARG25       0.5346
     30  NH1       20.6200  -42.7920   68.6470 N.pl3  25  ARG25       0.1354
     31  NH2       22.7920  -43.4980   68.3390 N.pl3  25  ARG25       0.1354
     32  N         20.8600  -38.8430   73.5560 N.3    38  ASN38      -0.1240
     33  CA        20.0940  -38.0560   72.6090 C.3    38  ASN38       0.1653
     34  C         19.1850  -37.0760   73.3410 C.2    38  ASN38       0.2266
     35  O         18.9810  -37.1700   74.5600 O.2    38  ASN38      -0.2867
     36  CB        19.3300  -38.9460   71.6340 C.3    38  ASN38       0.1155
     37  CG        18.1700  -39.6590   72.2630 C.2    38  ASN38       0.2627
     38  OD1       17.2930  -39.0460   72.8860 O.2    38  ASN38      -0.2716
     39  ND2       18.1450  -40.9790   72.1110 N.am   38  ASN38      -0.0877
     40  N         15.4370  -35.9880   72.6260 N.3    40  THR40      -0.1218
     41  CA        14.2860  -36.3920   71.8300 C.3    40  THR40       0.1862
     42  C         13.0810  -35.5350   72.1610 C.2    40  THR40       0.2287
     43  O         12.7370  -35.3580   73.3380 O.2    40  THR40      -0.2866
     44  CB        13.9660  -37.8710   72.0470 C.3    40  THR40       0.1770
     45  OG1       15.0560  -38.6610   71.5820 O.3    40  THR40      -0.2211
     46  CG2       12.7250  -38.3000   71.2740 C.3    40  THR40       0.0375
     47  N          9.1850  -35.5780   71.9650 N.3    42  ILE42      -0.1245
     48  CA         8.0120  -36.4160   71.7760 C.3    42  ILE42       0.1561
     49  C          6.8790  -35.4750   71.4080 C.2    42  ILE42       0.2260
     50  O          6.5490  -34.5620   72.1720 O.2    42  ILE42      -0.2867
     51  CB         7.6550  -37.2060   73.0390 C.3    42  ILE42       0.0252
     52  CG1        8.8620  -37.9200   73.6570 C.3    42  ILE42       0.0019
     53  CG2        6.5360  -38.2040   72.7300 C.3    42  ILE42       0.0019
     54  CD1        9.4790  -38.9230   72.7390 C.3    42  ILE42       0.0001
     55  N          6.5050  -48.8460   73.4510 N.3    50  ILE50      -0.1245
     56  CA         7.9540  -48.9820   73.4550 C.3    50  ILE50       0.1561
     57  C          8.3460  -50.2160   74.2490 C.2    50  ILE50       0.2260
     58  O          7.8200  -50.4770   75.3390 O.2    50  ILE50      -0.2867
     59  CB         8.6090  -47.7190   74.0560 C.3    50  ILE50       0.0252
     60  CG1        8.1910  -46.5160   73.2260 C.3    50  ILE50       0.0019
     61  CG2       10.1270  -47.8510   74.0940 C.3    50  ILE50       0.0019
     62  CD1        8.7110  -45.1990   73.7750 C.3    50  ILE50       0.0001
     63  N         12.2380  -51.9920   74.7250 N.3    52  TYR52      -0.1241
     64  CA        13.6460  -52.2040   74.3760 C.3    52  TYR52       0.1605
     65  C         14.1020  -53.4870   75.0600 C.2    52  TYR52       0.2264
     66  O         14.4320  -53.4980   76.2490 O.2    52  TYR52      -0.2867
     67  CB        14.5120  -51.0160   74.7790 C.3    52  TYR52       0.0534
     68  CG        14.1810  -49.7260   74.0780 C.ar   52  TYR52      -0.0201
     69  CD1       14.4040  -49.5750   72.7160 C.ar   52  TYR52      -0.0009
     70  CD2       13.6490  -48.6450   74.7730 C.ar   52  TYR52      -0.0009
     71  CE1       14.1090  -48.3820   72.0710 C.ar   52  TYR52       0.0417
     72  CE2       13.3610  -47.4560   74.1350 C.ar   52  TYR52       0.0417
     73  CZ        13.5790  -47.3300   72.7890 C.ar   52  TYR52       0.1957
     74  OH        13.2950  -46.1440   72.1520 O.3    52  TYR52      -0.2866
     75  N         17.3850  -48.0370   79.1900 N.3    57  GLU57      -0.1245
     76  CA        17.2780  -46.6350   78.8090 C.3    57  GLU57       0.1567
     77  C         16.9210  -45.8220   80.0400 C.2    57  GLU57       0.2260
     78  O         16.0510  -46.2150   80.8200 O.2    57  GLU57      -0.2867
     79  CB        16.1940  -46.4260   77.7370 C.3    57  GLU57       0.0388
     80  CG        16.1520  -44.9850   77.1820 C.3    57  GLU57       0.1160
     81  CD        14.8510  -44.6200   76.5030 C.2    57  GLU57       0.3649
     82  OE1       13.8310  -45.3210   76.6680 O.co2  57  GLU57      -0.2457
     83  OE2       14.8240  -43.5930   75.7940 O.co2  57  GLU57      -0.2457
     84  N         15.5730  -41.8680   80.8940 N.3    59  VAL59      -0.1245
     85  CA        14.8640  -40.7700   80.2470 C.3    59  VAL59       0.1561
     86  C         14.6570  -39.6710   81.2770 C.2    59  VAL59       0.2260
     87  O         14.0900  -39.9220   82.3490 O.2    59  VAL59      -0.2867
     88  CB        13.5030  -41.2470   79.7200 C.3    59  VAL59       0.0252
     89  CG1       12.7980  -40.1010   79.0700 C.3    59  VAL59       0.0019
     90  CG2       13.6810  -42.3780   78.7160 C.3    59  VAL59       0.0019
     91  N         12.7020  -41.4950   84.4410 N.3    84  TYR84      -0.1241
     92  CA        12.4290  -42.9190   84.5250 C.3    84  TYR84       0.1605
     93  C         13.5440  -43.7020   83.8630 C.2    84  TYR84       0.2264
     94  O         14.2080  -43.2250   82.9360 O.2    84  TYR84      -0.2867
     95  CB        11.0660  -43.3120   83.9860 C.3    84  TYR84       0.0534
     96  CG        10.8390  -43.1100   82.5130 C.ar   84  TYR84      -0.0201
     97  CD1       11.1610  -44.1070   81.5970 C.ar   84  TYR84      -0.0009
     98  CD2       10.2670  -41.9370   82.0330 C.ar   84  TYR84      -0.0009
     99  CE1       10.9550  -43.9290   80.2480 C.ar   84  TYR84       0.0417
    100  CE2       10.0410  -41.7640   80.6840 C.ar   84  TYR84       0.0417
    101  CZ        10.3660  -42.7670   79.7930 C.ar   84  TYR84       0.1957
    102  OH        10.1550  -42.6190   78.4290 O.3    84  TYR84      -0.2866
    103  N          6.0760  -50.3520   77.5920 N.3    92  HIS92      -0.1241
    104  CA         5.3940  -49.1730   78.1190 C.3    92  HIS92       0.1621
    105  C          4.7830  -48.3280   77.0230 C.2    92  HIS92       0.2264
    106  O          5.2480  -48.3250   75.8780 O.2    92  HIS92      -0.2867
    107  CB         6.3440  -48.3030   78.9730 C.3    92  HIS92       0.0745
    108  CG         7.5830  -47.8420   78.2620 C.ar   92  HIS92       0.0817
    109  ND1        8.6290  -48.6900   77.9620 N.ar   92  HIS92      -0.2268
    110  CD2        7.9620  -46.6150   77.8160 C.ar   92  HIS92       0.1154
    111  CE1        9.5910  -48.0070   77.3630 C.ar   92  HIS92       0.1986
    112  NE2        9.2160  -46.7440   77.2770 N.ar   92  HIS92      -0.2212
    113  N          4.1980  -44.4230   75.9520 N.3    94  LEU94      -0.1245
    114  CA         4.6980  -43.0770   76.1590 C.3    94  LEU94       0.1561
    115  C          3.7480  -42.1170   75.4670 C.2    94  LEU94       0.2260
    116  O          3.5240  -42.2130   74.2510 O.2    94  LEU94      -0.2867
    117  CB         6.1110  -42.9520   75.6160 C.3    94  LEU94       0.0270
    118  CG         6.7990  -41.6160   75.8630 C.3    94  LEU94       0.0019
    119  CD1        6.9650  -41.3030   77.3300 C.3    94  LEU94       0.0001
    120  CD2        8.1590  -41.6040   75.1820 C.3    94  LEU94       0.0001
    121  N         13.1240  -34.7440   76.0940 N.3   102  MET102     -0.1245
    122  CA        13.6360  -35.8320   76.9000 C.3   102  MET102      0.1570
    123  C         15.1080  -36.0340   76.5840 C.2   102  MET102      0.2261
    124  O         15.4680  -36.2350   75.4240 O.2   102  MET102     -0.2867
    125  CB        12.8800  -37.1230   76.5350 C.3   102  MET102      0.0387
    126  CG        11.3590  -37.0200   76.5870 C.3   102  MET102      0.0595
    127  SD        10.8450  -36.7640   78.2670 S.3   102  MET102     -0.1393
    128  CE         9.7270  -38.1280   78.4010 C.3   102  MET102      0.0692
    129  N         17.8530  -38.6930   76.7810 N.3   104  CYS104     -0.1235
    130  CA        17.7830  -40.1450   76.8530 C.3   104  CYS104      0.1677
    131  C         19.1770  -40.7480   76.7580 C.2   104  CYS104      0.2270
    132  O         19.9980  -40.2980   75.9460 O.2   104  CYS104     -0.2867
    133  CB        16.9200  -40.6650   75.7130 C.3   104  CYS104      0.0956
    134  SG        15.2440  -39.9970   75.7260 S.3   104  CYS104     -0.0801
    135  N         21.0850  -44.6220   76.4200 N.3   106  PHE106     -0.1241
    136  CA        20.9340  -46.0540   76.1320 C.3   106  PHE106      0.1605
    137  C         22.2330  -46.7960   76.4140 C.2   106  PHE106      0.2264
    138  O         23.3070  -46.3250   76.0280 O.2   106  PHE106     -0.2867
    139  CB        20.5640  -46.2810   74.6870 C.3   106  PHE106      0.0534
    140  CG        19.1510  -45.9540   74.3640 C.ar  106  PHE106     -0.0203
    141  CD1       18.1960  -46.9390   74.3800 C.ar  106  PHE106     -0.0042
    142  CD2       18.7700  -44.6560   74.0170 C.ar  106  PHE106     -0.0042
    143  CE1       16.8920  -46.6780   74.0740 C.ar  106  PHE106     -0.0003
    144  CE2       17.4430  -44.3870   73.7020 C.ar  106  PHE106     -0.0003
    145  CZ        16.5150  -45.4120   73.7230 C.ar  106  PHE106     -0.0000
    146  N         22.5450  -47.2230   71.1040 N.3   110  LEU110     -0.1245
    147  CA        21.8120  -47.5080   69.8880 C.3   110  LEU110      0.1561
    148  C         22.7030  -47.2830   68.6770 C.2   110  LEU110      0.2260
    149  O         23.5580  -46.3960   68.6610 O.2   110  LEU110     -0.2867
    150  CB        20.5910  -46.6100   69.7750 C.3   110  LEU110      0.0270
    151  CG        19.5140  -46.7990   70.8350 C.3   110  LEU110      0.0019
    152  CD1       18.4000  -45.8420   70.5740 C.3   110  LEU110      0.0001
    153  CD2       18.9790  -48.2220   70.8140 C.3   110  LEU110      0.0001
    154  N         17.9530  -46.9410   65.1300 N.3   115  VAL115     -0.1245
    155  CA        17.1240  -45.7420   65.1980 C.3   115  VAL115      0.1561
    156  C         16.3200  -45.5850   63.9170 C.2   115  VAL115      0.2260
    157  O         15.1220  -45.2880   63.9540 O.2   115  VAL115     -0.2867
    158  CB        17.9680  -44.4900   65.5110 C.3   115  VAL115      0.0252
    159  CG1       17.0560  -43.2800   65.7120 C.3   115  VAL115      0.0019
    160  CG2       18.8010  -44.6950   66.7640 C.3   115  VAL115      0.0019
    161  N         13.5400  -49.6310   65.8260 N.3   119  GLU119     -0.1245
    162  CA        13.5200  -50.8710   66.5840 C.3   119  GLU119      0.1567
    163  C         13.0310  -50.5890   67.9970 C.2   119  GLU119      0.2260
    164  O         13.4580  -49.6190   68.6330 O.2   119  GLU119     -0.2867
    165  CB        14.9180  -51.4990   66.6210 C.3   119  GLU119      0.0388
    166  CG        14.9990  -52.7970   67.4370 C.3   119  GLU119      0.1160
    167  CD        16.3560  -53.4870   67.3330 C.2   119  GLU119      0.3649
    168  OE1       16.7880  -53.7840   66.1970 O.co2 119  GLU119     -0.2457
    169  OE2       16.9870  -53.7350   68.3870 O.co2 119  GLU119     -0.2457
    170  N         10.0550  -49.6100   68.9870 N.3   121  THR121     -0.1218
    171  CA         9.0000  -48.6150   69.1140 C.3   121  THR121      0.1862
    172  C          7.9080  -48.8850   68.0960 C.2   121  THR121      0.2287
    173  O          8.1790  -49.2810   66.9550 O.2   121  THR121     -0.2866
    174  CB         9.5180  -47.1890   68.9360 C.3   121  THR121      0.1770
    175  OG1        9.9250  -46.9740   67.5820 O.3   121  THR121     -0.2211
    176  CG2       10.6970  -46.9580   69.8570 C.3   121  THR121      0.0375
@<TRIPOS>BOND
     1   156   157    2
     2   156   155    1
     3   154   155    1
     4   155   158    1
     5   158   159    1
     6   158   160    1
     7     4     3    2
     8   161   162    1
     9   168   167   ar
    10    14    13   ar
    11    14    12   ar
    12    18    17    2
    13    27    28    1
    14    27    26    1
    15    13    11   ar
    16   162   165    1
    17   162   163    1
    18   165   166    1
    19    12    10   ar
    20     3     2    1
    21   173   172    2
    22    28    29    2
    23     1     2    1
    24    11     8   ar
    25    15    16    1
    26    26    25    1
    27   167   166    1
    28   167   169   ar
    29    10     8   ar
    30    10     9   ar
    31   175   174    1
    32    17    16    1
    33    25    22    1
    34     8     6   ar
    35     2     5    1
    36     9     7   ar
    37    21    22    1
    38    24    23    2
    39    29    31    1
    40    29    30    1
    41   163   164    2
    42   172   171    1
    43    16    19    1
    44    19    20    1
    45     6     7   ar
    46     6     5    1
    47    22    23    1
    48   149   148    2
    49   148   147    1
    50   174   171    1
    51   174   176    1
    52   170   171    1
    53   150   147    1
    54   150   151    1
    55   147   146    1
    56   152   151    1
    57   153   151    1
    58    46    44    1
    59    49    48    1
    60    49    50    2
    61    45    44    1
    62    36    37    1
    63    36    33    1
    64    48    47    1
    65    48    51    1
    66    41    44    1
    67    41    42    1
    68    41    40    1
    69    71    69   ar
    70    71    73   ar
    71    39    37   am
    72    74    73    1
    73    42    43    2
    74    37    38    2
    75    33    34    1
    76    33    32    1
    77    69    68   ar
    78    53    51    1
    79    54    52    1
    80    73    72   ar
    81    51    52    1
    82    60    62    1
    83    60    59    1
    84    34    35    2
    85    55    56    1
    86    56    59    1
    87    56    57    1
    88   144   145   ar
    89   144   142   ar
    90   145   143   ar
    91   142   140   ar
    92    59    61    1
    93   143   141   ar
    94    68    70   ar
    95    68    67    1
    96    72    70   ar
    97    57    58    2
    98   116   115    2
    99   140   141   ar
   100   140   139    1
   101    64    63    1
   102    64    67    1
   103    64    65    1
   104   139   136    1
   105    65    66    2
   106   120   118    1
   107   124   123    2
   108   115   114    1
   109   117   118    1
   110   117   114    1
   111   133   134    1
   112   133   130    1
   113    83    81   ar
   114   118   119    1
   115   106   105    2
   116   132   131    2
   117   113   114    1
   118   138   137    2
   119   121   122    1
   120   136   137    1
   121   136   135    1
   122    81    82   ar
   123    81    80    1
   124   125   126    1
   125   125   122    1
   126   123   122    1
   127   126   127    1
   128   131   130    1
   129   129   130    1
   130   105   104    1
   131    80    79    1
   132   112   111   ar
   133   112   110   ar
   134   111   109   ar
   135   103   104    1
   136    79    76    1
   137   110   108   ar
   138   109   108   ar
   139   104   107    1
   140   108   107    1
   141   127   128    1
   142   102   101    1
   143    90    88    1
   144    76    75    1
   145    76    77    1
   146    89    88    1
   147    88    85    1
   148   101    99   ar
   149   101   100   ar
   150    77    78    2
   151    85    84    1
   152    85    86    1
   153    99    97   ar
   154   100    98   ar
   155    86    87    2
   156    97    96   ar
   157    98    96   ar
   158    96    95    1
   159    94    93    2
   160    93    92    1
   161    95    92    1
   162    91    92    1
