@<TRIPOS>MOLECULE
tmp/5onoA00.pdb
 167 154 0 0 0
SMALL
GASTEIGER

@<TRIPOS>ATOM
      1  N          8.1820   84.7430   67.4610 N.3    21  TRP21      -0.1241
      2  CA         9.3010   85.4340   68.1050 C.3    21  TRP21       0.1605
      3  C         10.3490   85.9550   67.1340 C.2    21  TRP21       0.2264
      4  O         10.4120   85.5880   65.9630 O.2    21  TRP21      -0.2867
      5  CB        10.0010   84.5330   69.1540 C.3    21  TRP21       0.0550
      6  CG        10.2100   83.1070   68.7610 C.ar   21  TRP21       0.0003
      7  CD1        9.3590   82.0570   69.0040 C.ar   21  TRP21       0.0946
      8  CD2       11.3420   82.5540   68.0790 C.ar   21  TRP21       0.0152
      9  NE1        9.8850   80.8950   68.4930 N.ar   21  TRP21      -0.2442
     10  CE2       11.1020   81.1680   67.9210 C.ar   21  TRP21       0.0810
     11  CE3       12.5250   83.0930   67.5640 C.ar   21  TRP21       0.0012
     12  CZ2       12.0130   80.3110   67.2690 C.ar   21  TRP21       0.0191
     13  CZ3       13.4400   82.2280   66.9120 C.ar   21  TRP21       0.0001
     14  CH2       13.1730   80.8640   66.7770 C.ar   21  TRP21       0.0015
     15  N         14.5040   86.3350   67.4270 N.3    23  SER23      -0.1217
     16  CA        15.6370   85.9350   68.2510 C.3    23  SER23       0.1889
     17  C         16.9540   86.5280   67.7970 C.2    23  SER23       0.2288
     18  O         17.5080   86.1580   66.7640 O.2    23  SER23      -0.2866
     19  CB        15.7600   84.4120   68.2790 C.3    23  SER23       0.2089
     20  OG        16.5600   83.9870   69.3620 O.3    23  SER23      -0.2183
     21  N         20.5940   86.5670   68.2470 N.3    25  ARG25      -0.1245
     22  CA        21.6130   85.6720   68.7920 C.3    25  ARG25       0.1563
     23  C         22.8630   86.4490   69.2060 C.2    25  ARG25       0.2260
     24  O         23.4670   87.1300   68.3810 O.2    25  ARG25      -0.2867
     25  CB        21.9740   84.6230   67.7490 C.3    25  ARG25       0.0307
     26  CG        20.8160   83.7090   67.3150 C.3    25  ARG25       0.0489
     27  CD        20.9870   82.3220   67.8900 C.3    25  ARG25       0.2205
     28  NE        21.8210   81.5000   67.0430 N.pl3  25  ARG25      -0.0865
     29  CZ        22.6380   80.5440   67.4720 C.cat  25  ARG25       0.5346
     30  NH1       22.7430   80.2830   68.7550 N.pl3  25  ARG25       0.1354
     31  NH2       23.3580   79.8420   66.6030 N.pl3  25  ARG25       0.1354
     32  N         20.9460   84.7140   73.9290 N.3    38  ASN38      -0.1240
     33  CA        20.2510   85.5740   73.0030 C.3    38  ASN38       0.1653
     34  C         19.3060   86.5460   73.6880 C.2    38  ASN38       0.2266
     35  O         19.1120   86.4960   74.8940 O.2    38  ASN38      -0.2867
     36  CB        19.4850   84.7380   71.9820 C.3    38  ASN38       0.1155
     37  CG        18.2880   84.0270   72.5770 C.2    38  ASN38       0.2627
     38  OD1       17.4260   84.6200   73.2460 O.2    38  ASN38      -0.2716
     39  ND2       18.2200   82.7350   72.3160 N.am   38  ASN38      -0.0877
     40  N         15.5000   87.5340   72.9750 N.3    40  THR40      -0.1218
     41  CA        14.3170   87.1790   72.2230 C.3    40  THR40       0.1862
     42  C         13.1420   88.0740   72.5640 C.2    40  THR40       0.2287
     43  O         12.8230   88.3020   73.7240 O.2    40  THR40      -0.2866
     44  CB        13.9350   85.7060   72.4480 C.3    40  THR40       0.1770
     45  OG1       15.0160   84.8730   72.0170 O.3    40  THR40      -0.2211
     46  CG2       12.7010   85.3670   71.6450 C.3    40  THR40       0.0375
     47  N          9.2750   87.9460   72.2390 N.3    42  ILE42      -0.1245
     48  CA         8.0760   87.1150   72.0120 C.3    42  ILE42       0.1561
     49  C          6.9340   88.0730   71.6780 C.2    42  ILE42       0.2260
     50  O          6.6080   88.9180   72.4900 O.2    42  ILE42      -0.2867
     51  CB         7.6630   86.2600   73.2500 C.3    42  ILE42       0.0252
     52  CG1        8.8740   85.5990   73.9460 C.3    42  ILE42       0.0019
     53  CG2        6.5830   85.2280   72.8630 C.3    42  ILE42       0.0019
     54  CD1        9.5980   84.5850   73.1690 C.3    42  ILE42       0.0001
     55  N          6.5340   74.6490   73.7540 N.3    50  ILE50      -0.1245
     56  CA         7.9840   74.4970   73.7710 C.3    50  ILE50       0.1561
     57  C          8.3960   73.2830   74.5610 C.2    50  ILE50       0.2260
     58  O          7.8660   73.0090   75.6430 O.2    50  ILE50      -0.2867
     59  CB         8.6840   75.7410   74.3690 C.3    50  ILE50       0.0252
     60  CG1        8.3830   76.9820   73.5130 C.3    50  ILE50       0.0019
     61  CG2       10.1810   75.5060   74.4670 C.3    50  ILE50       0.0019
     62  CD1        8.9650   78.2650   74.0430 C.3    50  ILE50       0.0001
     63  N         12.3280   71.4690   74.9610 N.3    52  TYR52      -0.1241
     64  CA        13.7260   71.1790   74.6180 C.3    52  TYR52       0.1605
     65  C         14.1630   69.8980   75.3370 C.2    52  TYR52       0.2264
     66  O         14.5140   69.9080   76.5310 O.2    52  TYR52      -0.2867
     67  CB        14.6640   72.3510   74.9720 C.3    52  TYR52       0.0534
     68  CG        14.3410   73.6820   74.2750 C.ar   52  TYR52      -0.0201
     69  CD1       14.5040   73.8370   72.9030 C.ar   52  TYR52      -0.0009
     70  CD2       13.8890   74.7880   74.9990 C.ar   52  TYR52      -0.0009
     71  CE1       14.2140   75.0320   72.2610 C.ar   52  TYR52       0.0417
     72  CE2       13.6010   76.0090   74.3600 C.ar   52  TYR52       0.0417
     73  CZ        13.7710   76.1160   72.9900 C.ar   52  TYR52       0.1957
     74  OH        13.4740   77.2940   72.3360 O.3    52  TYR52      -0.2866
     75  N         17.3990   75.5040   79.5090 N.3    57  GLU57      -0.1245
     76  CA        17.3390   76.9020   79.1350 C.3    57  GLU57       0.1567
     77  C         16.9820   77.7510   80.3490 C.2    57  GLU57       0.2260
     78  O         16.1290   77.3800   81.1540 O.2    57  GLU57      -0.2867
     79  CB        16.3120   77.1310   78.0320 C.3    57  GLU57       0.0388
     80  CG        16.2460   78.5730   77.5450 C.3    57  GLU57       0.1160
     81  CD        14.9590   78.9030   76.8210 C.2    57  GLU57       0.3649
     82  OE1       13.9410   78.2200   77.0710 O.co2  57  GLU57      -0.2457
     83  OE2       14.9560   79.8780   76.0290 O.co2  57  GLU57      -0.2457
     84  N         15.6490   81.6440   81.2160 N.3    59  VAL59      -0.1245
     85  CA        14.9670   82.7770   80.6270 C.3    59  VAL59       0.1561
     86  C         14.7660   83.8740   81.6830 C.2    59  VAL59       0.2260
     87  O         14.2620   83.6140   82.7920 O.2    59  VAL59      -0.2867
     88  CB        13.5930   82.3560   80.0460 C.3    59  VAL59       0.0252
     89  CG1       12.9250   83.5320   79.3310 C.3    59  VAL59       0.0019
     90  CG2       13.7690   81.1780   79.1190 C.3    59  VAL59       0.0019
     91  N         12.7560   82.0220   84.7340 N.3    84  TYR84      -0.1241
     92  CA        12.4570   80.6100   84.8650 C.3    84  TYR84       0.1605
     93  C         13.5280   79.7830   84.1470 C.2    84  TYR84       0.2264
     94  O         14.2300   80.2820   83.2680 O.2    84  TYR84      -0.2867
     95  CB        11.0110   80.2820   84.3550 C.3    84  TYR84       0.0534
     96  CG        10.7670   80.4730   82.8750 C.ar   84  TYR84      -0.0201
     97  CD1       11.1360   79.5010   81.9720 C.ar   84  TYR84      -0.0009
     98  CD2       10.1560   81.6290   82.3850 C.ar   84  TYR84      -0.0009
     99  CE1       10.9280   79.6640   80.6320 C.ar   84  TYR84       0.0417
    100  CE2        9.9430   81.8070   81.0280 C.ar   84  TYR84       0.0417
    101  CZ        10.3300   80.8180   80.1560 C.ar   84  TYR84       0.1957
    102  OH        10.1230   80.9840   78.8080 O.3    84  TYR84      -0.2866
    103  N          6.2310   73.0370   77.8040 N.3    92  HIS92      -0.1241
    104  CA         5.5210   74.2310   78.2740 C.3    92  HIS92       0.1621
    105  C          4.9700   75.1560   77.1970 C.2    92  HIS92       0.2264
    106  O          5.4660   75.1950   76.0670 O.2    92  HIS92      -0.2867
    107  CB         6.4380   75.0570   79.2040 C.3    92  HIS92       0.0745
    108  CG         7.6680   75.5870   78.5340 C.ar   92  HIS92       0.0817
    109  ND1        8.7520   74.7910   78.2270 N.ar   92  HIS92      -0.2268
    110  CD2        7.9930   76.8380   78.1230 C.ar   92  HIS92       0.1154
    111  CE1        9.6830   75.5250   77.6360 C.ar   92  HIS92       0.1986
    112  NE2        9.2500   76.7710   77.5640 N.ar   92  HIS92      -0.2212
    113  N          4.2590   79.0590   76.1800 N.3    94  LEU94      -0.1245
    114  CA         4.7510   80.3890   76.4330 C.3    94  LEU94       0.1561
    115  C          3.8040   81.3440   75.7580 C.2    94  LEU94       0.2260
    116  O          3.5690   81.2590   74.5420 O.2    94  LEU94      -0.2867
    117  CB         6.1720   80.5450   75.9260 C.3    94  LEU94       0.0270
    118  CG         6.7440   81.9340   76.1580 C.3    94  LEU94       0.0019
    119  CD1        6.8180   82.2350   77.6210 C.3    94  LEU94       0.0001
    120  CD2        8.1460   82.1090   75.5190 C.3    94  LEU94       0.0001
    121  N         13.0450   88.7730   76.3440 N.3   102  MET102     -0.1245
    122  CA        13.5910   87.7030   77.1700 C.3   102  MET102      0.1570
    123  C         15.0770   87.5240   76.8790 C.2   102  MET102      0.2261
    124  O         15.4610   87.3020   75.7340 O.2   102  MET102     -0.2867
    125  CB        12.8860   86.3670   76.8940 C.3   102  MET102      0.0387
    126  CG        11.3860   86.3660   76.9100 C.3   102  MET102      0.0595
    127  SD        10.6840   86.6990   78.5240 S.3   102  MET102     -0.1393
    128  CE         9.6750   85.2460   78.7730 C.3   102  MET102      0.0692
    129  N         17.9760   84.9130   77.1170 N.3   104  CYS104     -0.1235
    130  CA        17.9400   83.4530   77.1580 C.3   104  CYS104      0.1677
    131  C         19.2890   82.7630   77.0840 C.2   104  CYS104      0.2270
    132  O         20.1640   83.1390   76.3120 O.2   104  CYS104     -0.2867
    133  CB        17.0920   82.9330   76.0110 C.3   104  CYS104      0.0956
    134  SG        15.4390   83.5300   76.0360 S.3   104  CYS104     -0.0801
    135  N         21.1410   78.9310   76.7450 N.3   106  PHE106     -0.1241
    136  CA        20.9750   77.5110   76.4370 C.3   106  PHE106      0.1605
    137  C         22.2500   76.7830   76.7550 C.2   106  PHE106      0.2264
    138  O         23.3410   77.2630   76.4140 O.2   106  PHE106     -0.2867
    139  CB        20.6160   77.2730   74.9660 C.3   106  PHE106      0.0534
    140  CG        19.1900   77.5720   74.6230 C.ar  106  PHE106     -0.0203
    141  CD1       18.2270   76.5610   74.6210 C.ar  106  PHE106     -0.0042
    142  CD2       18.8010   78.8540   74.2680 C.ar  106  PHE106     -0.0042
    143  CE1       16.9000   76.8400   74.2800 C.ar  106  PHE106     -0.0003
    144  CE2       17.4670   79.1330   73.9150 C.ar  106  PHE106     -0.0003
    145  CZ        16.5230   78.1400   73.9220 C.ar  106  PHE106     -0.0000
    146  N         22.6620   76.3670   71.4160 N.3   110  LEU110     -0.1245
    147  CA        21.8960   76.0340   70.2390 C.3   110  LEU110      0.1561
    148  C         22.8090   76.2140   69.0220 C.2   110  LEU110      0.2260
    149  O         23.7690   76.9870   69.0620 O.2   110  LEU110     -0.2867
    150  CB        20.6640   76.9130   70.1070 C.3   110  LEU110      0.0270
    151  CG        19.4330   76.6790   70.9920 C.3   110  LEU110      0.0019
    152  CD1       18.2910   77.4880   70.4470 C.3   110  LEU110      0.0001
    153  CD2       19.0400   75.2170   71.0810 C.3   110  LEU110      0.0001
    154  N         18.1560   76.4640   65.5540 N.3   115  VAL115     -0.1245
    155  CA        17.3440   77.6750   65.6390 C.3   115  VAL115      0.1561
    156  C         16.4550   77.7980   64.3970 C.2   115  VAL115      0.2260
    157  O         15.2580   78.1150   64.5030 O.2   115  VAL115     -0.2867
    158  CB        18.2000   78.9500   65.7790 C.3   115  VAL115      0.0252
    159  CG1       17.3230   80.1870   65.7370 C.3   115  VAL115      0.0019
    160  CG2       18.9820   78.9300   67.0750 C.3   115  VAL115      0.0019
    161  N         10.2470   73.9180   69.3510 N.3   121  THR121     -0.1218
    162  CA         9.1330   74.8640   69.4370 C.3   121  THR121      0.1862
    163  C          8.0300   74.5470   68.4320 C.2   121  THR121      0.2287
    164  O          8.2790   73.9590   67.3820 O.2   121  THR121     -0.2866
    165  CB         9.6210   76.2880   69.2480 C.3   121  THR121      0.1770
    166  OG1       10.2100   76.4210   67.9610 O.3   121  THR121     -0.2211
    167  CG2       10.6690   76.6100   70.3090 C.3   121  THR121      0.0375
@<TRIPOS>BOND
     1   156   157    2
     2   156   155    1
     3   154   155    1
     4   155   158    1
     5   159   158    1
     6   158   160    1
     7     4     3    2
     8    31    29    1
     9    18    17    2
    10    14    13   ar
    11    14    12   ar
    12    13    11   ar
    13    28    29    2
    14    28    27    1
    15     3     2    1
    16    12    10   ar
    17    26    25    1
    18    26    27    1
    19   164   163    2
    20    15    16    1
    21     1     2    1
    22    29    30    1
    23    11     8   ar
    24    25    22    1
    25    17    16    1
    26    10     8   ar
    27    10     9   ar
    28   166   165    1
    29     8     6   ar
    30     2     5    1
    31    21    22    1
    32    16    19    1
    33    19    20    1
    34    24    23    2
    35   163   162    1
    36     9     7   ar
    37     6     7   ar
    38     6     5    1
    39    22    23    1
    40   148   149    2
    41   148   147    1
    42   165   162    1
    43   165   167    1
    44   161   162    1
    45   150   147    1
    46   150   151    1
    47   147   146    1
    48   152   151    1
    49   151   153    1
    50    46    44    1
    51    49    48    1
    52    49    50    2
    53    36    37    1
    54    36    33    1
    55    48    47    1
    56    48    51    1
    57    45    44    1
    58    41    44    1
    59    41    42    1
    60    41    40    1
    61    71    69   ar
    62    71    73   ar
    63    39    37   am
    64    74    73    1
    65    42    43    2
    66    37    38    2
    67    53    51    1
    68    69    68   ar
    69    73    72   ar
    70    33    34    1
    71    33    32    1
    72    54    52    1
    73    51    52    1
    74    60    62    1
    75    60    59    1
    76    34    35    2
    77    55    56    1
    78    56    59    1
    79    56    57    1
    80   144   145   ar
    81   144   142   ar
    82   145   143   ar
    83   142   140   ar
    84    68    67    1
    85    68    70   ar
    86   143   141   ar
    87    72    70   ar
    88    59    61    1
    89   116   115    2
    90    57    58    2
    91    64    63    1
    92    64    67    1
    93    64    65    1
    94   141   140   ar
    95   140   139    1
    96   139   136    1
    97    65    66    2
    98   120   118    1
    99   124   123    2
   100   115   114    1
   101   117   118    1
   102   117   114    1
   103   133   134    1
   104   133   130    1
   105    83    81   ar
   106   106   105    2
   107   118   119    1
   108   113   114    1
   109   132   131    2
   110   121   122    1
   111   138   137    2
   112   136   135    1
   113   136   137    1
   114    81    82   ar
   115    81    80    1
   116   123   122    1
   117   125   126    1
   118   125   122    1
   119   126   127    1
   120   131   130    1
   121   129   130    1
   122   105   104    1
   123    80    79    1
   124   112   111   ar
   125   112   110   ar
   126   111   109   ar
   127   103   104    1
   128    79    76    1
   129   110   108   ar
   130   109   108   ar
   131   104   107    1
   132   127   128    1
   133   108   107    1
   134   102   101    1
   135    90    88    1
   136    76    75    1
   137    76    77    1
   138    89    88    1
   139    88    85    1
   140   101    99   ar
   141   101   100   ar
   142    77    78    2
   143    85    84    1
   144    85    86    1
   145    99    97   ar
   146   100    98   ar
   147    86    87    2
   148    97    96   ar
   149    98    96   ar
   150    96    95    1
   151    94    93    2
   152    93    92    1
   153    95    92    1
   154    91    92    1
