@<TRIPOS>MOLECULE
tmp/5onuC00.pdb
 151 145 0 0 0
SMALL
GASTEIGER

@<TRIPOS>ATOM
      1  N        -40.4630  -20.3180    3.7270 N.3     1  GLY1       -0.1210
      2  CA       -40.5930  -20.1440    5.1610 C.3     1  GLY1        0.1956
      3  C        -39.6270  -21.0050    5.9520 C.2     1  GLY1        0.2611
      4  O        -38.9980  -20.5370    6.9020 O.2     1  GLY1       -0.2717
      5  N        -39.5060  -22.2670    5.5510 N.am    2  ILE2       -0.1979
      6  CA       -38.6220  -23.2150    6.2200 C.3     2  ILE2        0.1595
      7  C        -37.1440  -22.8340    6.1010 C.2     2  ILE2        0.2287
      8  O        -36.3550  -23.0750    7.0160 O.2     2  ILE2       -0.2864
      9  CB       -38.8410  -24.6380    5.6520 C.3     2  ILE2        0.0276
     10  CG1      -37.9130  -25.6460    6.3220 C.3     2  ILE2        0.0022
     11  CG2      -38.5680  -24.6720    4.1590 C.3     2  ILE2        0.0022
     12  CD1      -38.0360  -27.0340    5.7440 C.3     2  ILE2        0.0001
     13  N        -35.2080  -20.2270    6.7660 N.3     4  GLN4       -0.1245
     14  CA       -35.4540  -19.0200    7.5540 C.3     4  GLN4        0.1566
     15  C        -34.5930  -17.8220    7.1610 C.2     4  GLN4        0.2260
     16  O        -35.0550  -16.6830    7.2110 O.2     4  GLN4       -0.2867
     17  CB       -35.2490  -19.3180    9.0430 C.3     4  GLN4        0.0367
     18  CG       -36.1880  -20.3740    9.6010 C.3     4  GLN4        0.0905
     19  CD       -36.1100  -20.4900   11.1130 C.2     4  GLN4        0.2608
     20  OE1      -36.8790  -19.8570   11.8370 O.2     4  GLN4       -0.2717
     21  NE2      -35.1790  -21.3050   11.5970 N.am    4  GLN4       -0.0878
     22  N        -31.7810  -24.6820    6.9940 N.3   116  ILE116     -0.1245
     23  CA       -33.0020  -24.2240    7.6550 C.3   116  ILE116      0.1561
     24  C        -32.7790  -23.3750    8.9110 C.2   116  ILE116      0.2260
     25  O        -33.7430  -22.9830    9.5690 O.2   116  ILE116     -0.2867
     26  CB       -33.9000  -25.4210    8.0400 C.3   116  ILE116      0.0252
     27  CG1      -33.2430  -26.2540    9.1420 C.3   116  ILE116      0.0019
     28  CG2      -34.1930  -26.2840    6.8220 C.3   116  ILE116      0.0019
     29  CD1      -34.1510  -27.3200    9.7200 C.3   116  ILE116      0.0001
     30  N        -41.5380  -34.1640    5.9010 N.3   219  ARG219     -0.1245
     31  CA       -42.1890  -33.0530    6.5800 C.3   219  ARG219      0.1563
     32  C        -43.6140  -33.4350    6.9490 C.2   219  ARG219      0.2260
     33  O        -44.3800  -33.8660    6.0870 O.2   219  ARG219     -0.2867
     34  CB       -42.1780  -31.8150    5.6860 C.3   219  ARG219      0.0307
     35  CG       -43.1000  -30.6950    6.1210 C.3   219  ARG219      0.0489
     36  CD       -42.7760  -29.4340    5.3440 C.3   219  ARG219      0.2205
     37  NE       -43.8170  -28.4200    5.4630 N.pl3 219  ARG219     -0.0865
     38  CZ       -43.7120  -27.1900    4.9730 C.cat 219  ARG219      0.5346
     39  NH1      -42.6160  -26.8290    4.3190 N.pl3 219  ARG219      0.1354
     40  NH2      -44.7040  -26.3240    5.1250 N.pl3 219  ARG219      0.1354
     41  N        -46.8170  -32.0800    9.5320 N.3   221  GLU221     -0.1231
     42  CA       -47.4280  -31.2190   10.5410 C.3   221  GLU221      0.1699
     43  C        -46.3770  -30.2690   11.1040 C.2   221  GLU221      0.2592
     44  O        -45.8490  -29.4260   10.3800 O.2   221  GLU221     -0.2718
     45  CB       -48.0690  -32.0710   11.6370 C.3   221  GLU221      0.0402
     46  CG       -49.3960  -32.6990   11.2390 C.3   221  GLU221      0.1161
     47  CD       -49.7910  -33.8220   12.1750 C.2   221  GLU221      0.3649
     48  OE1      -50.1900  -33.5480   13.3250 O.co2 221  GLU221     -0.2457
     49  OE2      -49.7230  -34.9910   11.7390 O.co2 221  GLU221     -0.2457
     50  N        -46.0590  -30.4130   12.3850 N.am  222  ASN222     -0.1960
     51  CA       -45.0350  -29.5680   12.9880 C.3   222  ASN222      0.1819
     52  C        -43.6650  -30.2410   13.1590 C.2   222  ASN222      0.2621
     53  O        -42.8880  -29.8400   14.0280 O.2   222  ASN222     -0.2715
     54  CB       -45.5330  -29.0420   14.3360 C.3   222  ASN222      0.1195
     55  CG       -46.6060  -27.9810   14.1810 C.2   222  ASN222      0.2630
     56  OD1      -46.5930  -27.2050   13.2250 O.2   222  ASN222     -0.2716
     57  ND2      -47.5490  -27.9490   15.1160 N.am  222  ASN222     -0.0877
     58  N        -43.3650  -31.2550   12.3450 N.am  223  LEU223     -0.1963
     59  CA       -42.0300  -31.8720   12.3720 C.3   223  LEU223      0.1728
     60  C        -41.3660  -31.9100   10.9910 C.2   223  LEU223      0.2616
     61  O        -42.0450  -31.9690    9.9630 O.2   223  LEU223     -0.2715
     62  CB       -42.0790  -33.2790   12.9710 C.3   223  LEU223      0.0311
     63  CG       -42.5410  -33.3590   14.4270 C.3   223  LEU223      0.0022
     64  CD1      -42.6450  -34.8050   14.8770 C.3   223  LEU223      0.0001
     65  CD2      -41.5880  -32.5820   15.3270 C.3   223  LEU223      0.0001
     66  N        -40.0330  -31.8720   10.9850 N.am  224  TYR224     -0.1974
     67  CA       -39.2540  -31.9110    9.7470 C.3   224  TYR224      0.1639
     68  C        -37.8790  -32.5640    9.9220 C.2   224  TYR224      0.2290
     69  O        -37.1640  -32.2840   10.8850 O.2   224  TYR224     -0.2864
     70  CB       -39.0830  -30.4940    9.1920 C.3   224  TYR224      0.0560
     71  CG       -38.2760  -30.4120    7.9110 C.ar  224  TYR224     -0.0198
     72  CD1      -38.8820  -30.5930    6.6750 C.ar  224  TYR224     -0.0009
     73  CD2      -36.9140  -30.1330    7.9370 C.ar  224  TYR224     -0.0009
     74  CE1      -38.1540  -30.5160    5.5030 C.ar  224  TYR224      0.0417
     75  CE2      -36.1770  -30.0510    6.7690 C.ar  224  TYR224      0.0417
     76  CZ       -36.8030  -30.2440    5.5550 C.ar  224  TYR224      0.1957
     77  OH       -36.0780  -30.1630    4.3880 O.3   224  TYR224     -0.2866
     78  N        -36.0030  -30.0330   12.7340 N.3   248  GLY248     -0.1210
     79  CA       -36.6860  -28.8430   13.2020 C.3   248  GLY248      0.1956
     80  C        -38.0140  -29.1460   13.8660 C.2   248  GLY248      0.2612
     81  O        -38.6550  -30.1550   13.5730 O.2   248  GLY248     -0.2717
     82  N        -38.4310  -28.2550   14.7590 N.am  249  TYR249     -0.1962
     83  CA       -39.7000  -28.3960   15.4510 C.3   249  TYR249      0.1771
     84  C        -40.3450  -27.0360   15.6900 C.2   249  TYR249      0.2619
     85  O        -39.6580  -26.0370   15.8980 O.2   249  TYR249     -0.2715
     86  CB       -39.4640  -29.1380   16.7710 C.3   249  TYR249      0.0574
     87  CG       -40.5250  -28.9610   17.8300 C.ar  249  TYR249     -0.0198
     88  CD1      -41.7900  -29.5080   17.6730 C.ar  249  TYR249     -0.0009
     89  CD2      -40.2480  -28.2720   19.0050 C.ar  249  TYR249     -0.0009
     90  CE1      -42.7570  -29.3580   18.6470 C.ar  249  TYR249      0.0417
     91  CE2      -41.2080  -28.1170   19.9850 C.ar  249  TYR249      0.0417
     92  CZ       -42.4610  -28.6630   19.8010 C.ar  249  TYR249      0.1957
     93  OH       -43.4230  -28.5120   20.7730 O.3   249  TYR249     -0.2866
     94  N        -41.6730  -27.0110   15.6700 N.am  250  LYS250     -0.1977
     95  CA       -42.4140  -25.7650   15.7980 C.3   250  LYS250      0.1596
     96  C        -43.4270  -25.8110   16.9360 C.2   250  LYS250      0.2287
     97  O        -44.1570  -26.7900   17.0870 O.2   250  LYS250     -0.2864
     98  CB       -43.1220  -25.4460   14.4800 C.3   250  LYS250      0.0298
     99  CG       -43.9730  -24.1920   14.5050 C.3   250  LYS250      0.0038
    100  CD       -44.7300  -24.0310   13.2010 C.3   250  LYS250      0.0206
    101  CE       -45.1680  -22.5960   12.9920 C.3   250  LYS250      0.1093
    102  NZ       -45.6410  -22.3640   11.5990 N.3   250  LYS250     -0.1314
    103  N        -46.2760  -23.0800   18.2810 N.3   252  GLY252     -0.1210
    104  CA       -46.9340  -21.7900   18.1990 C.3   252  GLY252      0.1956
    105  C        -46.1150  -20.8000   17.3990 C.2   252  GLY252      0.2612
    106  O        -45.6570  -21.0960   16.2950 O.2   252  GLY252     -0.2717
    107  N        -45.9390  -19.6120   17.9660 N.am  253  GLN253     -0.1965
    108  CA       -44.9820  -18.6420   17.4560 C.3   253  GLN253      0.1733
    109  C        -43.5640  -18.9750   17.9220 C.2   253  GLN253      0.2616
    110  O        -43.0140  -18.2510   18.7510 O.2   253  GLN253     -0.2715
    111  CB       -45.3630  -17.2290   17.9110 C.3   253  GLN253      0.0408
    112  CG       -46.4530  -16.5730   17.0760 C.3   253  GLN253      0.0908
    113  CD       -47.1540  -15.4460   17.8120 C.2   253  GLN253      0.2608
    114  OE1      -46.5770  -14.8110   18.6940 O.2   253  GLN253     -0.2717
    115  NE2      -48.4120  -15.2050   17.4630 N.am  253  GLN253     -0.0878
    116  N        -42.9670  -20.0430   17.3860 N.am  254  ALA254     -0.1963
    117  CA       -41.6060  -20.4490   17.7820 C.3   254  ALA254      0.1728
    118  C        -41.0100  -21.5850   16.9410 C.2   254  ALA254      0.2616
    119  O        -41.5990  -22.6610   16.8330 O.2   254  ALA254     -0.2715
    120  CB       -41.5900  -20.8570   19.2510 C.3   254  ALA254      0.0334
    121  N        -39.8360  -21.3450   16.3580 N.am  255  ALA255     -0.1977
    122  CA       -39.1150  -22.3880   15.6280 C.3   255  ALA255      0.1597
    123  C        -37.8140  -22.8040   16.3270 C.2   255  ALA255      0.2287
    124  O        -37.0760  -21.9630   16.8370 O.2   255  ALA255     -0.2864
    125  CB       -38.8150  -21.9200   14.2060 C.3   255  ALA255      0.0319
    126  N        -34.3650  -25.3980   15.6650 N.3   257  THR257     -0.1218
    127  CA       -33.6750  -26.2670   14.7070 C.3   257  THR257      0.1862
    128  C        -32.3150  -26.7480   15.2020 C.2   257  THR257      0.2287
    129  O        -31.6880  -26.1150   16.0510 O.2   257  THR257     -0.2866
    130  CB       -33.4630  -25.5730   13.3340 C.3   257  THR257      0.1770
    131  OG1      -32.4060  -24.6110   13.4330 O.3   257  THR257     -0.2211
    132  CG2      -34.7360  -24.8890   12.8510 C.3   257  THR257      0.0375
    133  N        -41.0760  -15.4570   16.2400 N.3   281  TYR281     -0.1241
    134  CA       -41.7070  -14.5770   15.2640 C.3   281  TYR281      0.1605
    135  C        -42.7860  -13.7120   15.9020 C.2   281  TYR281      0.2264
    136  O        -43.9170  -14.1600   16.0940 O.2   281  TYR281     -0.2867
    137  CB       -42.3010  -15.3890   14.1080 C.3   281  TYR281      0.0534
    138  CG       -41.2630  -16.0230   13.2110 C.ar  281  TYR281     -0.0201
    139  CD1      -40.5910  -17.1740   13.5970 C.ar  281  TYR281     -0.0009
    140  CD2      -40.9500  -15.4660   11.9780 C.ar  281  TYR281     -0.0009
    141  CE1      -39.6410  -17.7550   12.7850 C.ar  281  TYR281      0.0417
    142  CE2      -39.9990  -16.0400   11.1560 C.ar  281  TYR281      0.0417
    143  CZ       -39.3450  -17.1840   11.5670 C.ar  281  TYR281      0.1957
    144  OH       -38.3990  -17.7670   10.7570 O.3   281  TYR281     -0.2866
    145  N        -44.9610  -11.5510   11.0600 N.3   284  PRO284     -0.2116
    146  CA       -44.3950  -12.1980    9.8700 C.3   284  PRO284      0.1372
    147  C        -43.1250  -11.5180    9.3630 C.2   284  PRO284      0.2244
    148  O        -42.2710  -12.1800    8.7740 O.2   284  PRO284     -0.2868
    149  CB       -45.5210  -12.0780    8.8420 C.3   284  PRO284      0.0268
    150  CG       -46.7570  -12.0960    9.6590 C.3   284  PRO284      0.0207
    151  CD       -46.4190  -11.3620   10.9320 C.3   284  PRO284      0.0892
@<TRIPOS>BOND
     1     1     2    1
     2    11     9    1
     3    39    38    1
     4    77    76    1
     5    38    40    1
     6    38    37    2
     7     2     3    1
     8    36    37    1
     9    36    35    1
    10    74    76   ar
    11    74    72   ar
    12     5     3   am
    13     5     6    1
    14    76    75   ar
    15     9     6    1
    16     9    10    1
    17    34    35    1
    18    34    31    1
    19    12    10    1
    20    30    31    1
    21     3     4    2
    22    33    32    2
    23     7     6    1
    24     7     8    2
    25    31    32    1
    26    72    71   ar
    27    13    14    1
    28    75    73   ar
    29    28    26    1
    30    22    23    1
    31    15    16    2
    32    15    14    1
    33    14    17    1
    34    23    26    1
    35    23    24    1
    36    71    73   ar
    37    71    70    1
    38    26    27    1
    39   148   147    2
    40   149   150    1
    41   149   146    1
    42    24    25    2
    43    17    18    1
    44    27    29    1
    45    70    67    1
    46   147   146    1
    47    41    42    1
    48    18    19    1
    49   150   151    1
    50    67    68    1
    51    67    66    1
    52   146   145    1
    53    68    69    2
    54    61    60    2
    55    44    43    2
    56    42    43    1
    57    42    45    1
    58   144   143    1
    59   151   145    1
    60    66    60   am
    61    60    59    1
    62    43    50   am
    63    19    21   am
    64    19    20    2
    65   142   143   ar
    66   142   140   ar
    67    46    45    1
    68    46    47    1
    69   143   141   ar
    70   102   101    1
    71    49    47   ar
    72   140   138   ar
    73    47    48   ar
    74    58    59    1
    75    58    52   am
    76    59    62    1
    77    50    51    1
    78    78    79    1
    79   141   139   ar
    80   132   130    1
    81    62    63    1
    82    51    52    1
    83    51    54    1
    84   101   100    1
    85    52    53    2
    86   100    99    1
    87    79    80    1
    88   138   139   ar
    89   138   137    1
    90    56    55    2
    91   130   131    1
    92   130   127    1
    93    81    80    2
    94    80    82   am
    95   137   134    1
    96    55    54    1
    97    55    57   am
    98   125   122    1
    99    63    64    1
   100    63    65    1
   101    98    99    1
   102    98    95    1
   103   127   128    1
   104   127   126    1
   105    82    83    1
   106   128   129    2
   107   134   135    1
   108   134   133    1
   109    83    84    1
   110    83    86    1
   111   122   123    1
   112   122   121    1
   113    94    84   am
   114    94    95    1
   115    84    85    2
   116    95    96    1
   117   135   136    2
   118   106   105    2
   119   123   124    2
   120   121   118   am
   121    86    87    1
   122   119   118    2
   123    96    97    2
   124   118   117    1
   125   112   113    1
   126   112   111    1
   127   116   117    1
   128   116   109   am
   129   105   107   am
   130   105   104    1
   131   108   111    1
   132   108   109    1
   133   108   107    1
   134   115   113   am
   135    88    87   ar
   136    88    90   ar
   137   117   120    1
   138   113   114    2
   139    87    89   ar
   140   109   110    2
   141   104   103    1
   142    90    92   ar
   143    89    91   ar
   144    92    91   ar
   145    92    93    1
