@<TRIPOS>MOLECULE
tmp/5onuC03.pdb
 86 84 0 0 0
SMALL
GASTEIGER

@<TRIPOS>ATOM
      1  N        -42.9670  -20.0430   17.3860 N.3   254  ALA254     -0.1245
      2  CA       -41.6060  -20.4490   17.7820 C.3   254  ALA254      0.1562
      3  C        -41.0100  -21.5850   16.9410 C.2   254  ALA254      0.2260
      4  O        -41.5990  -22.6610   16.8330 O.2   254  ALA254     -0.2867
      5  CB       -41.5900  -20.8570   19.2510 C.3   254  ALA254      0.0290
      6  N        -37.5470  -24.1080   16.3400 N.3   256  PHE256     -0.1241
      7  CA       -36.3360  -24.6770   16.9390 C.3   256  PHE256      0.1605
      8  C        -35.6530  -25.5970   15.9310 C.2   256  PHE256      0.2264
      9  O        -36.2890  -26.4960   15.4020 O.2   256  PHE256     -0.2867
     10  CB       -36.6530  -25.4570   18.2220 C.3   256  PHE256      0.0534
     11  CG       -37.3560  -24.6490   19.2740 C.ar  256  PHE256     -0.0203
     12  CD1      -38.7320  -24.7070   19.4180 C.ar  256  PHE256     -0.0042
     13  CD2      -36.6340  -23.8100   20.1070 C.ar  256  PHE256     -0.0042
     14  CE1      -39.3720  -23.9560   20.3910 C.ar  256  PHE256     -0.0003
     15  CE2      -37.2650  -23.0590   21.0770 C.ar  256  PHE256     -0.0003
     16  CZ       -38.6360  -23.1300   21.2200 C.ar  256  PHE256     -0.0000
     17  N        -33.0100  -21.0240   18.3450 N.3   278  ALA278     -0.1231
     18  CA       -34.4110  -20.7450   18.6380 C.3   278  ALA278      0.1694
     19  C        -34.8120  -19.3930   18.0540 C.2   278  ALA278      0.2593
     20  O        -34.1160  -18.3970   18.2470 O.2   278  ALA278     -0.2718
     21  CB       -34.6580  -20.7770   20.1380 C.3   278  ALA278      0.0304
     22  N        -35.9330  -19.3630   17.3400 N.am  279  THR279     -0.1939
     23  CA       -36.3750  -18.1500   16.6590 C.3   279  THR279      0.2028
     24  C        -37.8210  -17.8110   17.0110 C.2   279  THR279      0.2642
     25  O        -38.7130  -18.6490   16.8710 O.2   279  THR279     -0.2714
     26  CB       -36.2520  -18.2880   15.1270 C.3   279  THR279      0.1808
     27  OG1      -34.9040  -18.6230   14.7770 O.3   279  THR279     -0.2208
     28  CG2      -36.6460  -16.9890   14.4400 C.3   279  THR279      0.0379
     29  N        -38.0520  -16.5830   17.4690 N.am  280  TYR280     -0.1973
     30  CA       -39.3980  -16.1580   17.8410 C.3   280  TYR280      0.1639
     31  C        -39.9480  -15.1270   16.8600 C.2   280  TYR280      0.2290
     32  O        -39.3680  -14.0570   16.6750 O.2   280  TYR280     -0.2864
     33  CB       -39.4140  -15.5860   19.2620 C.3   280  TYR280      0.0560
     34  CG       -40.8050  -15.3450   19.8100 C.ar  280  TYR280     -0.0198
     35  CD1      -41.4740  -14.1510   19.5710 C.ar  280  TYR280     -0.0009
     36  CD2      -41.4500  -16.3160   20.5650 C.ar  280  TYR280     -0.0009
     37  CE1      -42.7470  -13.9310   20.0680 C.ar  280  TYR280      0.0417
     38  CE2      -42.7220  -16.1050   21.0660 C.ar  280  TYR280      0.0417
     39  CZ       -43.3650  -14.9110   20.8150 C.ar  280  TYR280      0.1957
     40  OH       -44.6300  -14.6980   21.3130 O.3   280  TYR280     -0.2866
     41  N        -36.8330  -12.3880   16.3440 N.3   288  SER288     -0.1202
     42  CA       -35.5530  -12.4220   17.0530 C.3   288  SER288      0.2020
     43  C        -35.0400  -13.8570   17.1440 C.2   288  SER288      0.2619
     44  O        -35.8280  -14.8000   17.0760 O.2   288  SER288     -0.2717
     45  CB       -35.6850  -11.8190   18.4530 C.3   288  SER288      0.2103
     46  OG       -36.4580  -12.6520   19.2990 O.3   288  SER288     -0.2182
     47  N        -33.7300  -14.0310   17.3010 N.am  289  TYR289     -0.1961
     48  CA       -33.1890  -15.3800   17.4640 C.3   289  TYR289      0.1771
     49  C        -31.8580  -15.4460   18.2110 C.2   289  TYR289      0.2619
     50  O        -31.1680  -14.4410   18.3850 O.2   289  TYR289     -0.2715
     51  CB       -33.0440  -16.0610   16.0950 C.3   289  TYR289      0.0574
     52  CG       -32.1900  -15.3230   15.0840 C.ar  289  TYR289     -0.0198
     53  CD1      -30.8020  -15.4110   15.1130 C.ar  289  TYR289     -0.0009
     54  CD2      -32.7750  -14.5540   14.0860 C.ar  289  TYR289     -0.0009
     55  CE1      -30.0230  -14.7430   14.1830 C.ar  289  TYR289      0.0417
     56  CE2      -32.0050  -13.8830   13.1530 C.ar  289  TYR289      0.0417
     57  CZ       -30.6300  -13.9810   13.2050 C.ar  289  TYR289      0.1957
     58  OH       -29.8630  -13.3140   12.2760 O.3   289  TYR289     -0.2866
     59  N        -31.5200  -16.6540   18.6530 N.am  290  ILE290     -0.1977
     60  CA       -30.2530  -16.9320   19.3180 C.3   290  ILE290      0.1596
     61  C        -29.7710  -18.3190   18.8910 C.2   290  ILE290      0.2287
     62  O        -30.5690  -19.2480   18.7530 O.2   290  ILE290     -0.2864
     63  CB       -30.3820  -16.8480   20.8610 C.3   290  ILE290      0.0276
     64  CG1      -29.0370  -17.1280   21.5370 C.3   290  ILE290      0.0022
     65  CG2      -31.4560  -17.7990   21.3740 C.3   290  ILE290      0.0022
     66  CD1      -29.0200  -16.8160   23.0200 C.3   290  ILE290      0.0001
     67  N        -26.5380  -13.7250   18.1750 N.3   313  ILE313     -0.1231
     68  CA       -27.8160  -13.1450   18.5900 C.3   313  ILE313      0.1692
     69  C        -28.3440  -12.1840   17.5270 C.2   313  ILE313      0.2593
     70  O        -27.6290  -11.2850   17.0900 O.2   313  ILE313     -0.2718
     71  CB       -27.6940  -12.4040   19.9360 C.3   313  ILE313      0.0266
     72  CG1      -27.2330  -13.3640   21.0340 C.3   313  ILE313      0.0019
     73  CG2      -29.0200  -11.7660   20.3180 C.3   313  ILE313      0.0020
     74  CD1      -26.9240  -12.6860   22.3490 C.3   313  ILE313      0.0001
     75  N        -29.5970  -12.3630   17.1180 N.am  314  GLY314     -0.1942
     76  CA       -30.1300  -11.5830   16.0160 C.3   314  GLY314      0.2014
     77  C        -31.5090  -10.9730   16.1840 C.2   314  GLY314      0.2638
     78  O        -32.3590  -11.4810   16.9210 O.2   314  GLY314     -0.2714
     79  N        -31.7180   -9.8710   15.4690 N.am  315  LEU315     -0.1977
     80  CA       -32.9970   -9.1740   15.4110 C.3   315  LEU315      0.1596
     81  C        -33.2620   -8.7470   13.9690 C.2   315  LEU315      0.2287
     82  O        -32.5300   -7.9270   13.4140 O.2   315  LEU315     -0.2864
     83  CB       -32.9940   -7.9620   16.3430 C.3   315  LEU315      0.0297
     84  CG       -34.3430   -7.3660   16.7460 C.3   315  LEU315      0.0022
     85  CD1      -35.1350   -8.3410   17.5970 C.3   315  LEU315      0.0001
     86  CD2      -34.1300   -6.0620   17.4880 C.3   315  LEU315      0.0001
@<TRIPOS>BOND
     1    58    57    1
     2    56    57   ar
     3    56    54   ar
     4    57    55   ar
     5    82    81    2
     6    81    80    1
     7    54    52   ar
     8    55    53   ar
     9    28    26    1
    10    27    26    1
    11    52    53   ar
    12    52    51    1
    13    26    23    1
    14     9     8    2
    15    80    79    1
    16    80    83    1
    17    79    77   am
    18     8     7    1
    19    76    77    1
    20    76    75    1
    21    51    48    1
    22    77    78    2
    23     6     7    1
    24    83    84    1
    25    41    42    1
    26    23    24    1
    27    23    22    1
    28    32    31    2
    29    84    86    1
    30    84    85    1
    31     4     3    2
    32    31    30    1
    33    25    24    2
    34     7    10    1
    35     3     2    1
    36    24    29   am
    37    42    43    1
    38    42    45    1
    39    44    43    2
    40    70    69    2
    41    75    69   am
    42    43    47   am
    43    47    48    1
    44    22    19   am
    45     1     2    1
    46    48    49    1
    47    29    30    1
    48    69    68    1
    49     2     5    1
    50    30    33    1
    51    19    20    2
    52    19    18    1
    53    67    68    1
    54    49    50    2
    55    49    59   am
    56    10    11    1
    57    17    18    1
    58    45    46    1
    59    68    71    1
    60    18    21    1
    61    59    60    1
    62    62    61    2
    63    61    60    1
    64    33    34    1
    65    11    12   ar
    66    11    13   ar
    67    60    63    1
    68    12    14   ar
    69    35    34   ar
    70    35    37   ar
    71    34    36   ar
    72    71    73    1
    73    71    72    1
    74    37    39   ar
    75    13    15   ar
    76    14    16   ar
    77    36    38   ar
    78    39    38   ar
    79    39    40    1
    80    63    65    1
    81    63    64    1
    82    72    74    1
    83    15    16   ar
    84    64    66    1
