@<TRIPOS>MOLECULE
tmp/5onzA00.pdb
 202 202 0 0 0
SMALL
GASTEIGER

@<TRIPOS>ATOM
      1  N         38.7560   13.1070   32.2700 N.3    30  ALA30      -0.1245
      2  CA        38.2270   13.6130   33.5310 C.3    30  ALA30       0.1562
      3  C         37.0490   12.7740   34.0300 C.2    30  ALA30       0.2260
      4  O         36.8250   12.6890   35.2540 O.2    30  ALA30      -0.2867
      5  CB        37.8260   15.0780   33.3780 C.3    30  ALA30       0.0290
      6  N         33.0790   13.9530   30.2390 N.3    35  TYR35      -0.1241
      7  CA        34.2990   14.7250   30.0110 C.3    35  TYR35       0.1605
      8  C         35.3640   13.7990   29.4270 C.2    35  TYR35       0.2264
      9  O         36.3290   13.4520   30.1110 O.2    35  TYR35      -0.2867
     10  CB        34.7960   15.3550   31.3190 C.3    35  TYR35       0.0534
     11  CG        33.7860   16.2040   32.0960 C.ar   35  TYR35      -0.0201
     12  CD1       33.1610   17.2920   31.5150 C.ar   35  TYR35      -0.0009
     13  CD2       33.5000   15.9280   33.4440 C.ar   35  TYR35      -0.0009
     14  CE1       32.2640   18.0910   32.2420 C.ar   35  TYR35       0.0417
     15  CE2       32.5800   16.7080   34.1720 C.ar   35  TYR35       0.0417
     16  CZ        31.9950   17.7920   33.5840 C.ar   35  TYR35       0.1957
     17  OH        31.1070   18.5670   34.3120 O.3    35  TYR35      -0.2866
     18  N         41.3270   17.4720   30.9960 N.3    39  TRP39      -0.1241
     19  CA        41.1570   18.8480   31.4670 C.3    39  TRP39       0.1605
     20  C         42.3630   19.2270   32.3190 C.2    39  TRP39       0.2264
     21  O         42.9590   18.3780   32.9800 O.2    39  TRP39      -0.2867
     22  CB        39.8660   19.0200   32.2870 C.3    39  TRP39       0.0550
     23  CG        38.6410   19.4630   31.4970 C.ar   39  TRP39       0.0003
     24  CD1       38.0390   20.6970   31.5370 C.ar   39  TRP39       0.0946
     25  CD2       37.8680   18.6690   30.5810 C.ar   39  TRP39       0.0152
     26  NE1       36.9450   20.7160   30.7020 N.ar   39  TRP39      -0.2442
     27  CE2       36.8260   19.4900   30.0930 C.ar   39  TRP39       0.0810
     28  CE3       37.9760   17.3530   30.1020 C.ar   39  TRP39       0.0012
     29  CZ2       35.8800   19.0350   29.1720 C.ar   39  TRP39       0.0191
     30  CZ3       37.0240   16.8990   29.1870 C.ar   39  TRP39       0.0001
     31  CH2       35.9980   17.7380   28.7310 C.ar   39  TRP39       0.0015
     32  N         43.0840   21.3890   35.1700 N.3    41  TRP41      -0.1227
     33  CA        43.3130   21.1620   36.5900 C.3    41  TRP41       0.1737
     34  C         42.8940   19.7650   37.0210 C.2    41  TRP41       0.2595
     35  O         43.4910   19.2560   37.9610 O.2    41  TRP41      -0.2718
     36  CB        42.7280   22.2720   37.5110 C.3    41  TRP41       0.0564
     37  CG        41.2560   22.4970   37.6750 C.ar   41  TRP41       0.0003
     38  CD1       40.2560   22.1860   36.7790 C.ar   41  TRP41       0.0946
     39  CD2       40.5970   23.1730   38.7910 C.ar   41  TRP41       0.0152
     40  NE1       39.0260   22.6000   37.2790 N.ar   41  TRP41      -0.2442
     41  CE2       39.2130   23.2100   38.5020 C.ar   41  TRP41       0.0810
     42  CE3       41.0420   23.7250   39.9970 C.ar   41  TRP41       0.0012
     43  CZ2       38.2770   23.7620   39.3880 C.ar   41  TRP41       0.0191
     44  CZ3       40.1070   24.2800   40.8760 C.ar   41  TRP41       0.0001
     45  CH2       38.7470   24.3020   40.5630 C.ar   41  TRP41       0.0015
     46  N         42.0000   19.0770   36.2900 N.am   42  ASP42      -0.1974
     47  CA        41.7800   17.6540   36.5800 C.3    42  ASP42       0.1709
     48  C         43.0620   16.8660   36.4060 C.2    42  ASP42       0.2293
     49  O         43.3590   15.9680   37.2020 O.2    42  ASP42      -0.2864
     50  CB        40.6920   17.0410   35.6890 C.3    42  ASP42       0.1436
     51  CG        39.3670   17.7800   35.7800 C.2    42  ASP42       0.3671
     52  OD1       39.3530   19.0030   35.5060 O.co2  42  ASP42      -0.2456
     53  OD2       38.3400   17.1320   36.1030 O.co2  42  ASP42      -0.2456
     54  N         42.7320   24.6780   28.8740 N.3    77  HIS77      -0.1241
     55  CA        41.9870   23.9230   29.8770 C.3    77  HIS77       0.1621
     56  C         41.5190   22.5720   29.3660 C.2    77  HIS77       0.2264
     57  O         41.2030   21.7090   30.1960 O.2    77  HIS77      -0.2867
     58  CB        40.8110   24.7430   30.4310 C.3    77  HIS77       0.0745
     59  CG        39.5250   24.6300   29.6740 C.ar   77  HIS77       0.0817
     60  ND1       39.4110   24.9350   28.3360 N.ar   77  HIS77      -0.2268
     61  CD2       38.2680   24.3440   30.1010 C.ar   77  HIS77       0.1154
     62  CE1       38.1510   24.7940   27.9580 C.ar   77  HIS77       0.1986
     63  NE2       37.4400   24.4260   29.0080 N.ar   77  HIS77      -0.2212
     64  N         32.0230   15.6090   23.6590 N.3    87  TYR87      -0.1241
     65  CA        32.0120   16.8280   24.4450 C.3    87  TYR87       0.1605
     66  C         31.8030   18.0100   23.5000 C.2    87  TYR87       0.2264
     67  O         32.3910   18.0580   22.4150 O.2    87  TYR87      -0.2867
     68  CB        33.2990   17.0010   25.2420 C.3    87  TYR87       0.0534
     69  CG        33.2710   18.2540   26.0760 C.ar   87  TYR87      -0.0201
     70  CD1       32.6440   18.2760   27.3150 C.ar   87  TYR87      -0.0009
     71  CD2       33.8050   19.4300   25.5900 C.ar   87  TYR87      -0.0009
     72  CE1       32.5830   19.4410   28.0570 C.ar   87  TYR87       0.0417
     73  CE2       33.7600   20.5910   26.3230 C.ar   87  TYR87       0.0417
     74  CZ        33.1460   20.5980   27.5450 C.ar   87  TYR87       0.1957
     75  OH        33.1150   21.7800   28.2520 O.3    87  TYR87      -0.2866
     76  N         42.9490   27.5850   32.9010 N.3   114  GLN114     -0.1245
     77  CA        42.3030   27.0500   34.1090 C.3   114  GLN114      0.1566
     78  C         43.2820   27.1810   35.2870 C.2   114  GLN114      0.2260
     79  O         44.4640   27.4770   35.0830 O.2   114  GLN114     -0.2867
     80  CB        41.8680   25.5790   33.9010 C.3   114  GLN114      0.0367
     81  CG        40.3290   25.3280   33.8520 C.3   114  GLN114      0.0905
     82  CD        39.9720   23.8140   33.8760 C.2   114  GLN114      0.2608
     83  OE1       40.8510   22.9550   33.8410 O.2   114  GLN114     -0.2717
     84  NE2       38.6740   23.5030   33.9540 N.am  114  GLN114     -0.0878
     85  N         34.5410   29.7190   32.3940 N.3   176  TRP176     -0.1241
     86  CA        35.1080   28.3690   32.4070 C.3   176  TRP176      0.1605
     87  C         36.5360   28.3690   32.9530 C.2   176  TRP176      0.2264
     88  O         36.9890   27.3680   33.5190 O.2   176  TRP176     -0.2867
     89  CB        35.0850   27.7690   31.0030 C.3   176  TRP176      0.0550
     90  CG        33.7600   27.1500   30.6110 C.ar  176  TRP176      0.0003
     91  CD1       32.7850   26.6730   31.4510 C.ar  176  TRP176      0.0946
     92  CD2       33.2840   26.9400   29.2840 C.ar  176  TRP176      0.0152
     93  NE1       31.7330   26.1790   30.7210 N.ar  176  TRP176     -0.2442
     94  CE2       32.0130   26.3290   29.3860 C.ar  176  TRP176      0.0810
     95  CE3       33.8100   27.2050   28.0110 C.ar  176  TRP176      0.0012
     96  CZ2       31.2530   25.9830   28.2540 C.ar  176  TRP176      0.0191
     97  CZ3       33.0510   26.8720   26.8890 C.ar  176  TRP176      0.0001
     98  CH2       31.7890   26.2660   27.0210 C.ar  176  TRP176      0.0015
     99  N         37.1710   27.4040   36.5470 N.3   179  GLY179     -0.1225
    100  CA        36.8260   26.0560   36.9610 C.3   179  GLY179      0.1811
    101  C         35.4060   25.9010   37.4620 C.2   179  GLY179      0.2280
    102  O         34.9840   24.7640   37.7260 O.2   179  GLY179     -0.2866
    103  N         31.8580   26.9080   36.1910 N.3   181  ALA181     -0.1245
    104  CA        31.1400   27.4860   35.0480 C.3   181  ALA181      0.1562
    105  C         29.9840   28.3860   35.4680 C.2   181  ALA181      0.2260
    106  O         29.8300   29.5030   34.9510 O.2   181  ALA181     -0.2867
    107  CB        30.6200   26.3680   34.1240 C.3   181  ALA181      0.0290
    108  N         22.7480   20.7880   35.7230 N.3   215  ARG215     -0.1245
    109  CA        23.6380   21.4270   34.7590 C.3   215  ARG215      0.1563
    110  C         23.1660   22.8450   34.4740 C.2   215  ARG215      0.2260
    111  O         22.0180   23.1980   34.7730 O.2   215  ARG215     -0.2867
    112  CB        23.6910   20.6490   33.4280 C.3   215  ARG215      0.0307
    113  CG        24.1490   19.1640   33.5340 C.3   215  ARG215      0.0489
    114  CD        25.6650   19.0000   33.6300 C.3   215  ARG215      0.2205
    115  NE        26.4210   19.7310   32.6010 N.pl3 215  ARG215     -0.0865
    116  CZ        27.7400   19.9230   32.6500 C.cat 215  ARG215      0.5346
    117  NH1       28.4300   19.4240   33.6700 N.pl3 215  ARG215      0.1354
    118  NH2       28.3700   20.6360   31.7020 N.pl3 215  ARG215      0.1354
    119  N         24.5370   28.5880   28.4640 N.3   221  TYR221     -0.1241
    120  CA        25.3740   28.0510   27.3850 C.3   221  TYR221      0.1605
    121  C         25.4790   29.0130   26.2020 C.2   221  TYR221      0.2264
    122  O         26.5420   29.1150   25.5810 O.2   221  TYR221     -0.2867
    123  CB        24.8690   26.6750   26.9200 C.3   221  TYR221      0.0534
    124  CG        25.7120   25.5800   27.5510 C.ar  221  TYR221     -0.0201
    125  CD1       25.4780   25.1810   28.8510 C.ar  221  TYR221     -0.0009
    126  CD2       26.7640   24.9910   26.8710 C.ar  221  TYR221     -0.0009
    127  CE1       26.2540   24.2110   29.4650 C.ar  221  TYR221      0.0417
    128  CE2       27.5560   24.0030   27.4890 C.ar  221  TYR221      0.0417
    129  CZ        27.2840   23.6260   28.7820 C.ar  221  TYR221      0.1957
    130  OH        28.0590   22.6740   29.4170 O.3   221  TYR221     -0.2866
    131  N         25.1020   22.1060   40.0330 N.3   374  TYR374     -0.1227
    132  CA        26.4890   22.2950   39.5980 C.3   374  TYR374      0.1736
    133  C         27.2970   23.1140   40.6220 C.2   374  TYR374      0.2595
    134  O         27.6020   22.6040   41.7100 O.2   374  TYR374     -0.2718
    135  CB        26.4700   22.9410   38.1900 C.3   374  TYR374      0.0548
    136  CG        27.6240   22.5990   37.2620 C.ar  374  TYR374     -0.0200
    137  CD1       28.3060   21.3960   37.3670 C.ar  374  TYR374     -0.0009
    138  CD2       28.0310   23.4980   36.2750 C.ar  374  TYR374     -0.0009
    139  CE1       29.3490   21.0900   36.5010 C.ar  374  TYR374      0.0417
    140  CE2       29.0780   23.2150   35.4310 C.ar  374  TYR374      0.0417
    141  CZ        29.7240   22.0110   35.5430 C.ar  374  TYR374      0.1957
    142  OH        30.7480   21.7160   34.6940 O.3   374  TYR374     -0.2866
    143  N         27.6450   24.3760   40.3370 N.am  375  TRP375     -0.1976
    144  CA        28.4500   25.1620   41.2880 C.3   375  TRP375      0.1640
    145  C         27.5980   26.0830   42.1690 C.2   375  TRP375      0.2290
    146  O         28.1400   26.8800   42.9550 O.2   375  TRP375     -0.2864
    147  CB        29.5250   25.9760   40.5430 C.3   375  TRP375      0.0576
    148  CG        30.6630   25.0950   40.0460 C.ar  375  TRP375      0.0006
    149  CD1       30.8000   24.5490   38.7970 C.ar  375  TRP375      0.0946
    150  CD2       31.7650   24.6120   40.8160 C.ar  375  TRP375      0.0152
    151  NE1       31.9340   23.7820   38.7380 N.ar  375  TRP375     -0.2442
    152  CE2       32.5460   23.7980   39.9660 C.ar  375  TRP375      0.0810
    153  CE3       32.1710   24.7980   42.1440 C.ar  375  TRP375      0.0012
    154  CZ2       33.7210   23.1740   40.3940 C.ar  375  TRP375      0.0191
    155  CZ3       33.3380   24.1720   42.5770 C.ar  375  TRP375      0.0001
    156  CH2       34.1000   23.3670   41.6990 C.ar  375  TRP375      0.0015
    157  N         31.6360   19.6980   46.4550 N.3   380  TRP380     -0.1241
    158  CA        32.5530   19.1280   45.4640 C.3   380  TRP380      0.1605
    159  C         33.7380   18.4640   46.1500 C.2   380  TRP380      0.2264
    160  O         34.5300   19.1710   46.7990 O.2   380  TRP380     -0.2867
    161  CB        33.0560   20.2140   44.5230 C.3   380  TRP380      0.0550
    162  CG        32.0240   20.6920   43.5270 C.ar  380  TRP380      0.0003
    163  CD1       30.8870   21.4160   43.8020 C.ar  380  TRP380      0.0946
    164  CD2       32.0500   20.4970   42.1060 C.ar  380  TRP380      0.0152
    165  NE1       30.1960   21.6730   42.6210 N.ar  380  TRP380     -0.2442
    166  CE2       30.9060   21.1340   41.5700 C.ar  380  TRP380      0.0810
    167  CE3       32.9360   19.8440   41.2310 C.ar  380  TRP380      0.0012
    168  CZ2       30.6150   21.1250   40.1960 C.ar  380  TRP380      0.0191
    169  CZ3       32.6460   19.8440   39.8630 C.ar  380  TRP380      0.0001
    170  CH2       31.5040   20.4960   39.3610 C.ar  380  TRP380      0.0015
    171  N         30.9960   13.4600   40.7810 N.3   418  GLU418     -0.1245
    172  CA        31.5390   14.7900   40.5150 C.3   418  GLU418      0.1567
    173  C         31.2020   15.7700   41.6470 C.2   418  GLU418      0.2260
    174  O         32.0580   16.5420   42.0920 O.2   418  GLU418     -0.2867
    175  CB        30.9770   15.2780   39.1700 C.3   418  GLU418      0.0388
    176  CG        31.6920   16.4890   38.5250 C.3   418  GLU418      0.1160
    177  CD        30.9610   16.9690   37.2580 C.2   418  GLU418      0.3649
    178  OE1       29.9880   16.3010   36.8070 O.co2 418  GLU418     -0.2457
    179  OE2       31.3600   18.0190   36.7100 O.co2 418  GLU418     -0.2457
    180  N         34.1300   10.1250   38.4210 N.3   433  GLN433     -0.1245
    181  CA        34.9020   11.3320   38.1230 C.3   433  GLN433      0.1566
    182  C         36.3490   11.1670   38.6040 C.2   433  GLN433      0.2260
    183  O         36.5920   10.8730   39.7790 O.2   433  GLN433     -0.2867
    184  CB        34.2240   12.5230   38.8090 C.3   433  GLN433      0.0367
    185  CG        34.8440   13.8970   38.5330 C.3   433  GLN433      0.0905
    186  CD        34.4720   14.4400   37.1740 C.2   433  GLN433      0.2608
    187  OE1       33.5400   13.9490   36.5330 O.2   433  GLN433     -0.2717
    188  NE2       35.1950   15.4730   36.7280 N.am  433  GLN433     -0.0878
    189  N         38.9620   13.1030   39.2790 N.3   435  TRP435     -0.1241
    190  CA        39.5820   13.8090   40.3990 C.3   435  TRP435      0.1605
    191  C         38.9410   13.4820   41.7460 C.2   435  TRP435      0.2264
    192  O         39.5860   13.6890   42.7770 O.2   435  TRP435     -0.2867
    193  CB        39.6220   15.3370   40.1840 C.3   435  TRP435      0.0550
    194  CG        38.3550   16.1380   40.0690 C.ar  435  TRP435      0.0003
    195  CD1       37.0670   15.7560   40.3700 C.ar  435  TRP435      0.0946
    196  CD2       38.2750   17.4900   39.5900 C.ar  435  TRP435      0.0152
    197  NE1       36.1890   16.8070   40.1070 N.ar  435  TRP435     -0.2442
    198  CE2       36.9070   17.8720   39.6160 C.ar  435  TRP435      0.0810
    199  CE3       39.2330   18.4240   39.1620 C.ar  435  TRP435      0.0012
    200  CZ2       36.4710   19.1510   39.2120 C.ar  435  TRP435      0.0191
    201  CZ3       38.7850   19.7210   38.7490 C.ar  435  TRP435      0.0001
    202  CH2       37.4220   20.0500   38.7710 C.ar  435  TRP435      0.0015
@<TRIPOS>BOND
     1    67    66    2
     2    66    65    1
     3    64    65    1
     4    65    68    1
     5    68    69    1
     6   122   121    2
     7    71    69   ar
     8    71    73   ar
     9    69    70   ar
    10   121   120    1
    11    73    74   ar
    12   126   128   ar
    13   126   124   ar
    14    97    98   ar
    15    97    95   ar
    16   123   120    1
    17   123   124    1
    18    98    96   ar
    19    70    72   ar
    20   120   119    1
    21   128   129   ar
    22    74    72   ar
    23    74    75    1
    24   124   125   ar
    25    62    60   ar
    26    62    63   ar
    27    95    92   ar
    28    96    94   ar
    29    60    59   ar
    30    31    29   ar
    31    31    30   ar
    32   129   130    1
    33   129   127   ar
    34   125   127   ar
    35    54    55    1
    36    63    61   ar
    37    29    27   ar
    38    30    28   ar
    39    92    94   ar
    40    92    90   ar
    41    56    55    1
    42    56    57    2
    43    94    93   ar
    44     8     7    1
    45     8     9    2
    46    59    61   ar
    47    59    58    1
    48    55    58    1
    49     7     6    1
    50     7    10    1
    51    27    25   ar
    52    27    26   ar
    53    28    25   ar
    54    25    23   ar
    55    90    89    1
    56    90    91   ar
    57    26    24   ar
    58    93    91   ar
    59    18    19    1
    60    89    86    1
    61    10    11    1
    62    19    22    1
    63    19    20    1
    64    23    24   ar
    65    23    22    1
    66    12    11   ar
    67    12    14   ar
    68   118   116    1
    69    11    13   ar
    70    14    16   ar
    71     1     2    1
    72    20    21    2
    73    85    86    1
    74    86    87    1
    75   115   116    2
    76   115   114    1
    77   116   117    1
    78    76    77    1
    79    87    88    2
    80     5     2    1
    81   112   113    1
    82   112   109    1
    83    13    15   ar
    84     2     3    1
    85   113   114    1
    86    16    15   ar
    87    16    17    1
    88    83    82    2
    89    81    82    1
    90    81    80    1
    91    82    84   am
    92    80    77    1
    93     3     4    2
    94    77    78    1
    95   107   104    1
    96   110   109    1
    97   110   111    2
    98   142   141    1
    99   109   108    1
   100   106   105    2
   101   104   105    1
   102   104   103    1
   103    79    78    2
   104    32    33    1
   105   140   141   ar
   106   140   138   ar
   107    52    51   ar
   108   141   139   ar
   109    50    51    1
   110    50    47    1
   111    51    53   ar
   112   138   136   ar
   113    46    47    1
   114    46    34   am
   115    48    47    1
   116    48    49    2
   117   139   137   ar
   118   187   186    2
   119    99   100    1
   120    33    34    1
   121    33    36    1
   122   179   177   ar
   123   188   186   am
   124    38    40   ar
   125    38    37   ar
   126   178   177   ar
   127   100   101    1
   128    34    35    2
   129   186   185    1
   130   177   176    1
   131   136   137   ar
   132   136   135    1
   133    40    41   ar
   134   101   102    2
   135    36    37    1
   136    37    39   ar
   137   181   180    1
   138   181   182    1
   139   181   184    1
   140   135   132    1
   141    41    39   ar
   142    41    43   ar
   143   176   175    1
   144   185   184    1
   145   182   183    2
   146   151   149   ar
   147   151   152   ar
   148   201   202   ar
   149   201   199   ar
   150   202   200   ar
   151    39    42   ar
   152   149   148   ar
   153   199   196   ar
   154   175   172    1
   155   200   198   ar
   156   189   190    1
   157   170   169   ar
   158   170   168   ar
   159    43    45   ar
   160   196   198   ar
   161   196   194   ar
   162   132   131    1
   163   132   133    1
   164   198   197   ar
   165   169   167   ar
   166   152   154   ar
   167   152   150   ar
   168    42    44   ar
   169   148   147    1
   170   148   150   ar
   171   194   193    1
   172   194   195   ar
   173   197   195   ar
   174   193   190    1
   175   168   166   ar
   176   143   133   am
   177   143   144    1
   178   154   156   ar
   179   190   191    1
   180   172   171    1
   181   172   173    1
   182   147   144    1
   183    45    44   ar
   184   133   134    2
   185   150   153   ar
   186   167   164   ar
   187   144   145    1
   188   166   164   ar
   189   166   165   ar
   190   173   174    2
   191   156   155   ar
   192   191   192    2
   193   164   162   ar
   194   153   155   ar
   195   145   146    2
   196   165   163   ar
   197   162   163   ar
   198   162   161    1
   199   161   158    1
   200   158   159    1
   201   158   157    1
   202   159   160    2
