@<TRIPOS>MOLECULE
tmp/5oo0A00.pdb
 105 106 0 0 0
SMALL
GASTEIGER

@<TRIPOS>ATOM
      1  N          3.5740   -8.4880    0.8300 N.3   164  GLU164     -0.1245
      2  CA         4.9440   -8.1180    0.5050 C.3   164  GLU164      0.1567
      3  C          5.9700   -8.7020    1.4960 C.2   164  GLU164      0.2260
      4  O          7.0800   -9.0400    1.0650 O.2   164  GLU164     -0.2867
      5  CB         5.1010   -6.6050    0.4300 C.3   164  GLU164      0.0388
      6  CG         4.6880   -5.7680    1.6510 C.3   164  GLU164      0.1160
      7  CD         3.2440   -5.3660    1.7480 C.2   164  GLU164      0.3649
      8  OE1        2.3730   -6.1680    1.2350 O.co2 164  GLU164     -0.2457
      9  OE2        2.9990   -4.2620    2.3580 O.co2 164  GLU164     -0.2457
     10  N         10.0000   -9.2900    0.5230 N.3   169  CYS169     -0.1221
     11  CA        10.4640   -7.9490    0.5080 C.3   169  CYS169      0.1808
     12  C         10.8780   -7.5020    1.9250 C.2   169  CYS169      0.2601
     13  O         10.1340   -7.6610    2.8820 O.2   169  CYS169     -0.2717
     14  CB         9.4050   -7.0150   -0.1440 C.3   169  CYS169      0.0970
     15  SG         9.8630   -5.3360   -0.3220 S.3   169  CYS169     -0.0800
     16  N         12.0950   -6.9390    2.0030 N.am  170  LYS170     -0.1965
     17  CA        12.5520   -6.5050    3.2760 C.3   170  LYS170      0.1728
     18  C         12.3360   -5.0310    3.5270 C.2   170  LYS170      0.2616
     19  O         12.7080   -4.5380    4.5820 O.2   170  LYS170     -0.2715
     20  CB        14.0410   -6.8770    3.4750 C.3   170  LYS170      0.0311
     21  CG        14.3060   -8.3980    3.5070 C.3   170  LYS170      0.0038
     22  CD        13.5730   -9.1770    4.6060 C.3   170  LYS170      0.0206
     23  CE        14.1000  -10.6300    4.6200 C.3   170  LYS170      0.1093
     24  NZ        13.1720  -11.5410    5.3620 N.3   170  LYS170     -0.1314
     25  N         11.6380   -4.3380    2.6310 N.am  171  TYR171     -0.1974
     26  CA        11.2980   -2.9210    2.8860 C.3   171  TYR171      0.1639
     27  C          9.8720   -2.9250    3.3710 C.2   171  TYR171      0.2290
     28  O          8.9590   -3.3630    2.6880 O.2   171  TYR171     -0.2864
     29  CB        11.3210   -2.0540    1.5860 C.3   171  TYR171      0.0560
     30  CG        10.8620   -0.6620    1.9130 C.ar  171  TYR171     -0.0198
     31  CD1        9.6200   -0.1610    1.5060 C.ar  171  TYR171     -0.0009
     32  CD2       11.6930    0.1180    2.7160 C.ar  171  TYR171     -0.0009
     33  CE1        9.2090    1.1120    1.8860 C.ar  171  TYR171      0.0417
     34  CE2       11.3320    1.3830    3.0820 C.ar  171  TYR171      0.0417
     35  CZ        10.1010    1.8620    2.6890 C.ar  171  TYR171      0.1957
     36  OH         9.7400    3.1180    3.0690 O.3   171  TYR171     -0.2866
     37  N         -0.4240   -5.5870   -9.3790 N.3   219  TRP219     -0.1228
     38  CA         0.6580   -5.2940   -8.5080 C.3   219  TRP219      0.1722
     39  C          1.9460   -5.2220   -9.3390 C.2   219  TRP219      0.2437
     40  O          2.7400   -6.1560   -9.4000 O.2   219  TRP219     -0.2733
     41  CB         0.8050   -6.4280   -7.4830 C.3   219  TRP219      0.0563
     42  CG         1.8140   -6.0900   -6.3580 C.ar  219  TRP219      0.0003
     43  CD1        2.6680   -5.0910   -6.3220 C.ar  219  TRP219      0.0946
     44  CD2        2.0540   -6.8990   -5.2040 C.ar  219  TRP219      0.0152
     45  NE1        3.4540   -5.1640   -5.1650 N.ar  219  TRP219     -0.2442
     46  CE2        3.0780   -6.2740   -4.4600 C.ar  219  TRP219      0.0810
     47  CE3        1.4720   -8.0620   -4.7280 C.ar  219  TRP219      0.0012
     48  CZ2        3.5390   -6.7790   -3.1810 C.ar  219  TRP219      0.0191
     49  CZ3        1.9310   -8.5930   -3.4760 C.ar  219  TRP219      0.0001
     50  CH2        2.9700   -7.9240   -2.7370 C.ar  219  TRP219      0.0015
     51  N          2.2160   -4.0800   -9.9400 N.am  220  PRO220     -0.2718
     52  CA         3.4290   -3.9360  -10.7410 C.3   220  PRO220      0.1535
     53  C          4.6310   -4.1810   -9.8960 C.2   220  PRO220      0.2599
     54  O          4.7000   -3.6790   -8.7570 O.2   220  PRO220     -0.2715
     55  CB         3.4160   -2.4300  -11.1380 C.3   220  PRO220      0.0310
     56  CG         1.9010   -2.1940  -11.2180 C.3   220  PRO220      0.0237
     57  CD         1.2900   -2.8900   -9.9740 C.3   220  PRO220      0.0939
     58  N          5.4900   -5.0890  -10.3410 N.am  221  GLY221     -0.1955
     59  CA         6.6680   -5.4100   -9.5720 C.3   221  GLY221      0.1869
     60  C          6.5560   -6.7640   -8.8780 C.2   221  GLY221      0.2309
     61  O          7.5740   -7.2520   -8.3390 O.2   221  GLY221     -0.2863
     62  N          8.9210   -9.6560   -9.4420 N.3   224  SER224     -0.1202
     63  CA        10.2970   -9.4370   -9.0150 C.3   224  SER224      0.2020
     64  C         10.5770   -9.6950   -7.5550 C.2   224  SER224      0.2619
     65  O         11.7530   -9.6980   -7.1720 O.2   224  SER224     -0.2717
     66  CB        10.7390   -8.0070   -9.3600 C.3   224  SER224      0.2103
     67  OG        10.8060   -7.8710  -10.7610 O.3   224  SER224     -0.2182
     68  N          9.5310   -9.9340   -6.7380 N.am  225  MET225     -0.1965
     69  CA         9.6810  -10.1380   -5.2750 C.3   225  MET225      0.1721
     70  C         10.6000  -11.2900   -5.0280 C.2   225  MET225      0.2458
     71  O         10.5860  -12.2160   -5.7990 O.2   225  MET225     -0.2730
     72  CB         8.2980  -10.3890   -4.5880 C.3   225  MET225      0.0427
     73  CG         7.4230   -9.1710   -4.5750 C.3   225  MET225      0.0599
     74  SD         7.9690   -7.9260   -3.4250 S.3   225  MET225     -0.1393
     75  CE         6.9670   -6.5980   -4.0820 C.3   225  MET225      0.0692
     76  N         11.4060  -11.2220   -3.9720 N.am  226  PRO226     -0.2727
     77  CA        12.4260  -12.3110   -3.7640 C.3   226  PRO226      0.1402
     78  C         11.8740  -13.7390   -3.8280 C.2   226  PRO226      0.2269
     79  O         12.4870  -14.6600   -4.3680 O.2   226  PRO226     -0.2865
     80  CB        13.0190  -11.9730   -2.4220 C.3   226  PRO226      0.0296
     81  CG        12.9780  -10.4920   -2.3880 C.3   226  PRO226      0.0237
     82  CD        11.5880  -10.1490   -2.9830 C.3   226  PRO226      0.0939
     83  N         -0.8730   -4.1760   -3.9790 N.3   262  ASP262     -0.1225
     84  CA         0.2880   -3.3000   -4.0920 C.3   262  ASP262      0.1791
     85  C          0.2800   -2.3470   -2.8800 C.2   262  ASP262      0.2444
     86  O         -0.7280   -1.6540   -2.6700 O.2   262  ASP262     -0.2733
     87  CB         0.0880   -2.4890   -5.3500 C.3   262  ASP262      0.1423
     88  CG         1.2820   -1.5630   -5.6250 C.2   262  ASP262      0.3668
     89  OD1        2.1420   -1.3930   -4.8080 O.co2 262  ASP262     -0.2456
     90  OD2        1.3220   -1.1560   -6.7870 O.co2 262  ASP262     -0.2456
     91  N          1.2980   -2.3690   -2.0490 N.am  263  PRO263     -0.2643
     92  CA         1.3310   -1.4110   -0.8770 C.3   263  PRO263      0.1762
     93  C          1.1670    0.0170   -1.3570 C.2   263  PRO263      0.2641
     94  O          0.5970    0.8580   -0.5980 O.2   263  PRO263     -0.2712
     95  CB         2.6730   -1.6740   -0.1820 C.2   263  PRO263     -0.0003
     96  CG         3.3610   -2.6930   -1.0230 C.2   263  PRO263     -0.0071
     97  CD         2.5420   -3.1900   -2.1520 C.3   263  PRO263      0.1204
     98  N          1.5820    0.3310   -2.5990 N.am  264  ASN264     -0.1970
     99  CA         1.4420    1.6680   -3.0250 C.3   264  ASN264      0.1688
    100  C          0.0380    2.0250   -3.3490 C.2   264  ASN264      0.2292
    101  O         -0.2790    3.2220   -3.3240 O.2   264  ASN264     -0.2864
    102  CB         2.2300    1.8530   -4.2900 C.3   264  ASN264      0.1181
    103  CG         3.7220    1.7450   -4.0470 C.2   264  ASN264      0.2629
    104  OD1        4.3370    2.6950   -3.6060 O.2   264  ASN264     -0.2716
    105  ND2        4.3040    0.5150   -4.2400 N.am  264  ASN264     -0.0877
@<TRIPOS>BOND
     1    56    55    1
     2    56    57    1
     3    55    52    1
     4    67    66    1
     5    52    51    1
     6    52    53    1
     7    58    53   am
     8    58    59    1
     9    57    51    1
    10    51    39   am
    11    53    54    2
    12    59    60    1
    13    62    63    1
    14    40    39    2
    15    37    38    1
    16    66    63    1
    17    39    38    1
    18    63    64    1
    19    60    61    2
    20    38    41    1
    21    64    65    2
    22    64    68   am
    23    41    42    1
    24    90    88   ar
    25    68    69    1
    26    42    43   ar
    27    42    44   ar
    28    43    45   ar
    29    71    70    2
    30    88    87    1
    31    88    89   ar
    32    87    84    1
    33    69    70    1
    34    69    72    1
    35    44    47   ar
    36    44    46   ar
    37    45    46   ar
    38    70    76   am
    39    47    49   ar
    40    72    73    1
    41    73    74    1
    42    46    48   ar
    43    79    78    2
    44   102   103    1
    45   102    99    1
    46   105   103   am
    47    84    83    1
    48    84    85    1
    49    75    74    1
    50   103   104    2
    51    76    77    1
    52    76    82    1
    53    78    77    1
    54    77    80    1
    55    49    50   ar
    56   100   101    2
    57   100    99    1
    58    48    50   ar
    59    99    98    1
    60    82    81    1
    61    85    86    2
    62    85    91   am
    63    98    93   am
    64    80    81    1
    65    97    91    1
    66    97    96    1
    67    91    92    1
    68    93    92    1
    69    93    94    2
    70    96    95    2
    71    92    95    1
    72    15    14    1
    73    14    11    1
    74     5     2    1
    75     5     6    1
    76     2     1    1
    77     2     3    1
    78    11    10    1
    79    11    12    1
    80     4     3    2
    81     8     7   ar
    82    31    33   ar
    83    31    30   ar
    84    29    30    1
    85    29    26    1
    86     6     7    1
    87     7     9   ar
    88    33    35   ar
    89    30    32   ar
    90    12    16   am
    91    12    13    2
    92    16    17    1
    93    25    26    1
    94    25    18   am
    95    28    27    2
    96    35    36    1
    97    35    34   ar
    98    32    34   ar
    99    26    27    1
   100    17    20    1
   101    17    18    1
   102    20    21    1
   103    21    22    1
   104    18    19    2
   105    22    23    1
   106    23    24    1
