@<TRIPOS>MOLECULE
tmp/5oo1A00.pdb
 158 150 0 0 0
SMALL
GASTEIGER

@<TRIPOS>ATOM
      1  N          0.2640  -14.3410   33.0670 N.3     7  ILE7       -0.1231
      2  CA        -0.7220  -13.9480   32.1000 C.3     7  ILE7        0.1692
      3  C         -0.3510  -14.3960   30.6890 C.2     7  ILE7        0.2592
      4  O         -1.1550  -14.2230   29.7670 O.2     7  ILE7       -0.2718
      5  CB        -1.0120  -12.4220   32.1580 C.3     7  ILE7        0.0266
      6  CG1        0.2770  -11.6230   32.0370 C.3     7  ILE7        0.0019
      7  CG2       -1.7060  -12.0950   33.4680 C.3     7  ILE7        0.0020
      8  CD1        0.1870  -10.1460   32.4240 C.3     7  ILE7        0.0001
      9  N          0.8600  -14.9290   30.5120 N.am    8  GLY8       -0.1957
     10  CA         1.2740  -15.4230   29.1820 C.3     8  GLY8        0.1869
     11  C          2.5260  -16.2620   29.1970 C.2     8  GLY8        0.2309
     12  O          3.3920  -16.0260   30.0130 O.2     8  GLY8       -0.2863
     13  N          5.1160  -13.8790   30.7130 N.3    15  VAL15      -0.1245
     14  CA         4.6520  -12.5710   31.1820 C.3    15  VAL15       0.1561
     15  C          3.8940  -12.7760   32.5010 C.2    15  VAL15       0.2260
     16  O          3.0760  -13.7090   32.6210 O.2    15  VAL15      -0.2867
     17  CB         3.7580  -11.8750   30.1150 C.3    15  VAL15       0.0252
     18  CG1        3.4230  -10.4510   30.5570 C.3    15  VAL15       0.0019
     19  CG2        4.4050  -11.9030   28.7100 C.3    15  VAL15       0.0019
     20  N          3.1260   -5.1400   34.0810 N.3    28  ALA28      -0.1245
     21  CA         3.3220   -6.3780   33.3600 C.3    28  ALA28       0.1562
     22  C          4.8430   -6.5210   33.2630 C.2    28  ALA28       0.2260
     23  O          5.5650   -5.5320   32.9380 O.2    28  ALA28      -0.2867
     24  CB         2.6900   -6.2760   31.9910 C.3    28  ALA28       0.0290
     25  N          7.6870   -8.9620   31.5140 N.3    30  LYS30      -0.1245
     26  CA         7.8950   -9.9800   30.5230 C.3    30  LYS30       0.1561
     27  C          9.3450  -10.3960   30.6890 C.2    30  LYS30       0.2260
     28  O         10.2650   -9.5610   30.7200 O.2    30  LYS30      -0.2867
     29  CB         7.5260   -9.4250   29.1580 C.3    30  LYS30       0.0271
     30  CG         7.7080  -10.3550   27.9830 C.3    30  LYS30       0.0035
     31  CD         7.2000   -9.7370   26.6770 C.3    30  LYS30       0.0206
     32  CE         6.8190  -10.8030   25.6390 C.3    30  LYS30       0.1093
     33  NZ         6.7940  -10.3330   24.2240 N.3    30  LYS30      -0.1314
     34  N          0.9540    0.9780   24.8940 N.3    61  VAL61      -0.1245
     35  CA         1.2680    0.4600   26.2210 C.3    61  VAL61       0.1561
     36  C          2.7080    0.8970   26.5460 C.2    61  VAL61       0.2260
     37  O          3.6340    0.5910   25.8030 O.2    61  VAL61      -0.2867
     38  CB         1.1590   -1.0980   26.2640 C.3    61  VAL61       0.0252
     39  CG1        1.6900   -1.6770   27.5990 C.3    61  VAL61       0.0019
     40  CG2       -0.3210   -1.4790   26.1330 C.3    61  VAL61       0.0019
     41  N          6.3530    1.2130   27.7510 N.3    63  LEU63      -0.1245
     42  CA         7.5200    0.4600   28.1810 C.3    63  LEU63       0.1561
     43  C          8.1510    1.2590   29.3140 C.2    63  LEU63       0.2260
     44  O          8.6710    2.3580   29.0800 O.2    63  LEU63      -0.2867
     45  CB         8.4980    0.2290   27.0420 C.3    63  LEU63       0.0270
     46  CG         9.7480   -0.6410   27.3250 C.3    63  LEU63       0.0019
     47  CD1        9.3510   -1.9740   27.9510 C.3    63  LEU63       0.0001
     48  CD2       10.5650   -0.8980   26.0240 C.3    63  LEU63       0.0001
     49  N         11.2350   -6.9950   30.5890 N.3    75  LEU75      -0.1245
     50  CA        10.6050   -5.7770   30.1730 C.3    75  LEU75       0.1561
     51  C          9.5160   -5.5140   31.1390 C.2    75  LEU75       0.2260
     52  O          8.6990   -6.4140   31.4420 O.2    75  LEU75      -0.2867
     53  CB        10.0880   -5.8650   28.6980 C.3    75  LEU75       0.0270
     54  CG        11.1180   -6.1880   27.5900 C.3    75  LEU75       0.0019
     55  CD1       10.4670   -6.1140   26.2060 C.3    75  LEU75       0.0001
     56  CD2       12.3050   -5.2110   27.6600 C.3    75  LEU75       0.0001
     57  N          6.2600   -3.2110   31.6220 N.3    77  CYS77      -0.1221
     58  CA         5.2580   -2.4330   30.8890 C.3    77  CYS77       0.1808
     59  C          4.0710   -2.1420   31.8010 C.2    77  CYS77       0.2601
     60  O          3.8110   -2.8630   32.7710 O.2    77  CYS77      -0.2717
     61  CB         4.7410   -3.1880   29.6480 C.3    77  CYS77       0.0970
     62  SG         6.0020   -3.4390   28.4600 S.3    77  CYS77      -0.0800
     63  N          3.3250   -1.1040   31.4500 N.am   78  GLU78      -0.1965
     64  CA         2.0480   -0.7950   32.0190 C.3    78  GLU78       0.1733
     65  C          1.1200   -1.9990   31.8370 C.2    78  GLU78       0.2616
     66  O          1.2010   -2.6850   30.8470 O.2    78  GLU78      -0.2715
     67  CB         1.5410    0.5210   31.3970 C.3    78  GLU78       0.0429
     68  CG         0.1670    0.5400   30.7890 C.3    78  GLU78       0.1163
     69  CD        -0.1710    1.8600   30.0310 C.2    78  GLU78       0.3649
     70  OE1        0.6430    2.4210   29.2530 O.co2  78  GLU78      -0.2457
     71  OE2       -1.3160    2.3100   30.1730 O.co2  78  GLU78      -0.2457
     72  N          0.2750   -2.2590   32.8080 N.am   79  PHE79      -0.1960
     73  CA        -0.5830   -3.4590   32.7710 C.3    79  PHE79       0.1771
     74  C         -2.0280   -3.0930   32.4030 C.2    79  PHE79       0.2619
     75  O         -2.6100   -2.1270   32.9270 O.2    79  PHE79      -0.2715
     76  CB        -0.5830   -4.0480   34.1910 C.3    79  PHE79       0.0574
     77  CG        -1.5500   -5.1720   34.3730 C.ar   79  PHE79      -0.0200
     78  CD1       -2.8330   -4.9230   34.8300 C.ar   79  PHE79      -0.0042
     79  CD2       -1.1740   -6.4710   34.0590 C.ar   79  PHE79      -0.0042
     80  CE1       -3.7550   -5.9450   34.9930 C.ar   79  PHE79      -0.0003
     81  CE2       -2.0990   -7.5140   34.1850 C.ar   79  PHE79      -0.0003
     82  CZ        -3.4040   -7.2520   34.6560 C.ar   79  PHE79      -0.0000
     83  N         -2.6460   -3.8650   31.5310 N.am   80  LEU80      -0.1963
     84  CA        -4.0830   -3.7330   31.3030 C.3    80  LEU80       0.1728
     85  C         -4.6440   -5.1470   31.4400 C.2    80  LEU80       0.2616
     86  O         -3.9030   -6.1260   31.2530 O.2    80  LEU80      -0.2715
     87  CB        -4.3780   -3.1630   29.9130 C.3    80  LEU80       0.0311
     88  CG        -4.1990   -1.6320   29.7360 C.3    80  LEU80       0.0022
     89  CD1       -2.7520   -1.4290   29.3100 C.3    80  LEU80       0.0001
     90  CD2       -5.0870   -1.2530   28.5610 C.3    80  LEU80       0.0001
     91  N         -5.9300   -5.2300   31.7660 N.am   81  HIS81      -0.1959
     92  CA        -6.5140   -6.4780   32.2420 C.3    81  HIS81       0.1787
     93  C         -6.8090   -7.5260   31.2070 C.2    81  HIS81       0.2620
     94  O         -6.8740   -8.6800   31.5690 O.2    81  HIS81      -0.2715
     95  CB        -7.7610   -6.2270   33.0980 C.3    81  HIS81       0.0785
     96  CG        -7.4420   -5.6670   34.4420 C.ar   81  HIS81       0.0821
     97  ND1       -7.2690   -6.4590   35.5680 N.ar   81  HIS81      -0.2267
     98  CD2       -7.2440   -4.3890   34.8370 C.ar   81  HIS81       0.1154
     99  CE1       -6.9860   -5.6790   36.6000 C.ar   81  HIS81       0.1986
    100  NE2       -6.9500   -4.4240   36.1770 N.ar   81  HIS81      -0.2212
    101  N         -7.0080   -7.1560   29.9370 N.am   82  GLN82      -0.1963
    102  CA        -7.4540   -8.1720   28.9660 C.3    82  GLN82       0.1733
    103  C         -6.8360   -7.8660   27.6470 C.2    82  GLN82       0.2616
    104  O         -6.4480   -6.7020   27.3810 O.2    82  GLN82      -0.2715
    105  CB        -9.0200   -8.2400   28.8430 C.3    82  GLN82       0.0408
    106  CG        -9.4730   -9.5100   28.0950 C.3    82  GLN82       0.0908
    107  CD       -10.7810  -10.0560   28.5640 C.2    82  GLN82       0.2608
    108  OE1      -11.8150   -9.8230   27.9340 O.2    82  GLN82      -0.2717
    109  NE2      -10.7600  -10.7830   29.6870 N.am   82  GLN82      -0.0878
    110  N         -6.7050   -8.9040   26.8250 N.am   83  ASP83      -0.1971
    111  CA        -6.3230   -8.6950   25.4170 C.3    83  ASP83       0.1709
    112  C         -7.5040   -8.8830   24.4520 C.2    83  ASP83       0.2293
    113  O         -8.4750   -9.5600   24.7890 O.2    83  ASP83      -0.2864
    114  CB        -5.1100   -9.4970   25.0770 C.3    83  ASP83       0.1436
    115  CG        -5.3920  -10.9890   25.0160 C.2    83  ASP83       0.3671
    116  OD1       -6.2250  -11.4440   24.2140 O.co2  83  ASP83      -0.2456
    117  OD2       -4.7550  -11.6990   25.7650 O.co2  83  ASP83      -0.2456
    118  N         -3.7030  -10.6040   20.1510 N.3   128  GLN128     -0.1245
    119  CA        -3.0510  -10.8790   21.4380 C.3   128  GLN128      0.1566
    120  C         -2.1480   -9.7380   21.9330 C.2   128  GLN128      0.2260
    121  O         -1.8840   -9.6870   23.1060 O.2   128  GLN128     -0.2867
    122  CB        -2.2380  -12.1860   21.4150 C.3   128  GLN128      0.0367
    123  CG        -1.6240  -12.4490   22.8180 C.3   128  GLN128      0.0905
    124  CD        -0.7900  -13.7130   22.8630 C.2   128  GLN128      0.2608
    125  OE1       -1.3250  -14.8050   22.6990 O.2   128  GLN128     -0.2717
    126  NE2        0.5130  -13.5390   22.9360 N.am  128  GLN128     -0.0878
    127  N         -4.3230   -4.5270   23.9290 N.3   131  LEU131     -0.1245
    128  CA        -4.8710   -4.6290   25.3070 C.3   131  LEU131      0.1561
    129  C         -6.0180   -3.6880   25.5370 C.2   131  LEU131      0.2260
    130  O         -5.9970   -2.5350   25.0080 O.2   131  LEU131     -0.2867
    131  CB        -3.7380   -4.4210   26.3450 C.3   131  LEU131      0.0270
    132  CG        -2.4380   -5.2380   26.1350 C.3   131  LEU131      0.0019
    133  CD1       -1.4870   -4.9030   27.3010 C.3   131  LEU131      0.0001
    134  CD2       -2.6310   -6.7830   25.9780 C.3   131  LEU131      0.0001
    135  N          0.5360   -3.1010   22.2710 N.3   141  ALA141     -0.1231
    136  CA         1.5760   -3.6060   23.1540 C.3   141  ALA141      0.1694
    137  C          2.6140   -4.4110   22.3910 C.2   141  ALA141      0.2592
    138  O          2.3930   -4.7910   21.1920 O.2   141  ALA141     -0.2718
    139  CB         0.9410   -4.4600   24.2500 C.3   141  ALA141      0.0304
    140  N          3.7500   -4.6820   23.0420 N.am  142  ASP142     -0.1960
    141  CA         4.7200   -5.6780   22.4800 C.3   142  ASP142      0.1840
    142  C          5.4160   -5.3080   21.1670 C.2   142  ASP142      0.2622
    143  O          5.5060   -6.1280   20.2680 O.2   142  ASP142     -0.2715
    144  CB         4.0010   -7.0320   22.2880 C.3   142  ASP142      0.1450
    145  CG         4.3720   -8.0190   23.3140 C.2   142  ASP142      0.3671
    146  OD1        4.9260   -7.5920   24.3300 O.co2 142  ASP142     -0.2456
    147  OD2        4.1560   -9.2260   23.0970 O.co2 142  ASP142     -0.2456
    148  N          5.8760   -4.0720   21.0410 N.am  143  PHE143     -0.1974
    149  CA         6.5950   -3.6050   19.8510 C.3   143  PHE143      0.1639
    150  C          7.9290   -4.2930   19.5250 C.2   143  PHE143      0.2290
    151  O          8.4780   -5.0520   20.3120 O.2   143  PHE143     -0.2864
    152  CB         6.9020   -2.1520   20.0610 C.3   143  PHE143      0.0560
    153  CG         5.7680   -1.2600   19.7710 C.ar  143  PHE143     -0.0200
    154  CD1        5.7390   -0.5740   18.5510 C.ar  143  PHE143     -0.0042
    155  CD2        4.7580   -1.0380   20.7070 C.ar  143  PHE143     -0.0042
    156  CE1        4.7220    0.2850   18.2230 C.ar  143  PHE143     -0.0003
    157  CE2        3.7310   -0.1660   20.3880 C.ar  143  PHE143     -0.0003
    158  CZ         3.7060    0.4930   19.1440 C.ar  143  PHE143     -0.0000
@<TRIPOS>BOND
     1   156   154   ar
     2   156   158   ar
     3   154   153   ar
     4   158   157   ar
     5   150   149    1
     6   150   151    2
     7   153   152    1
     8   153   155   ar
     9   149   152    1
    10   149   148    1
    11   118   119    1
    12   143   142    2
    13   157   155   ar
    14   148   142   am
    15   142   141    1
    16   138   137    2
    17   122   119    1
    18   122   123    1
    19   119   120    1
    20   120   121    2
    21   135   136    1
    22   144   141    1
    23   144   145    1
    24   137   140   am
    25   137   136    1
    26   141   140    1
    27   125   124    2
    28   123   124    1
    29   124   126   am
    30   147   145   ar
    31   136   139    1
    32   145   146   ar
    33   127   128    1
    34   116   115   ar
    35    33    32    1
    36   112   113    2
    37   112   111    1
    38    34    35    1
    39   130   129    2
    40   115   114    1
    41   115   117   ar
    42   114   111    1
    43   128   129    1
    44   128   131    1
    45   111   110    1
    46    32    31    1
    47    37    36    2
    48   134   132    1
    49    48    46    1
    50    40    38    1
    51   132   131    1
    52   132   133    1
    53    55    54    1
    54    35    38    1
    55    35    36    1
    56    38    39    1
    57    31    30    1
    58   110   103   am
    59    45    46    1
    60    45    42    1
    61    46    47    1
    62   104   103    2
    63    54    56    1
    64    54    53    1
    65   103   102    1
    66    41    42    1
    67   108   107    2
    68    30    29    1
    69   106   107    1
    70   106   105    1
    71    42    43    1
    72    62    61    1
    73    90    88    1
    74   107   109   am
    75    53    50    1
    76    19    17    1
    77   105   102    1
    78   102   101    1
    79    44    43    2
    80    29    26    1
    81    10    11    1
    82    10     9    1
    83    11    12    2
    84    70    69   ar
    85    89    88    1
    86    61    58    1
    87    88    87    1
    88     4     3    2
    89    87    84    1
    90   101    93   am
    91    69    71   ar
    92    69    68    1
    93    17    18    1
    94    17    14    1
    95    50    49    1
    96    50    51    1
    97     9     3   am
    98    26    27    1
    99    26    25    1
   100    27    28    2
   101     3     2    1
   102    13    14    1
   103    68    67    1
   104    66    65    2
   105    58    57    1
   106    58    59    1
   107    51    52    2
   108    14    15    1
   109    93    94    2
   110    93    92    1
   111    86    85    2
   112    84    85    1
   113    84    83    1
   114    67    64    1
   115    85    91   am
   116    63    59   am
   117    63    64    1
   118    83    74   am
   119    91    92    1
   120    59    60    2
   121    65    64    1
   122    65    72   am
   123    24    21    1
   124     6     5    1
   125     6     8    1
   126     2     5    1
   127     2     1    1
   128     5     7    1
   129    92    95    1
   130    74    73    1
   131    74    75    2
   132    15    16    2
   133    73    72    1
   134    73    76    1
   135    23    22    2
   136    95    96    1
   137    22    21    1
   138    21    20    1
   139    79    81   ar
   140    79    77   ar
   141    81    82   ar
   142    76    77    1
   143    77    78   ar
   144    96    98   ar
   145    96    97   ar
   146    82    80   ar
   147    78    80   ar
   148    98   100   ar
   149    97    99   ar
   150   100    99   ar
