@<TRIPOS>MOLECULE
tmp/5oo3A00.pdb
 135 122 0 0 0
SMALL
GASTEIGER

@<TRIPOS>ATOM
      1  N         -0.1470  -12.5880  -33.7990 N.3     9  ILE9       -0.1231
      2  CA         1.0250  -12.2360  -32.9850 C.3     9  ILE9        0.1696
      3  C          0.8620  -12.5860  -31.5170 C.2     9  ILE9        0.2632
      4  O          1.8290  -12.5030  -30.7630 O.2     9  ILE9       -0.2714
      5  CB         1.4770  -10.7430  -33.1730 C.3     9  ILE9        0.0266
      6  CG1        0.3510   -9.7880  -32.8110 C.3     9  ILE9        0.0019
      7  CG2        1.9220  -10.5180  -34.6220 C.3     9  ILE9        0.0020
      8  CD1        0.7020   -8.3010  -32.9450 C.3     9  ILE9        0.0001
      9  N         -0.3460  -12.9960  -31.0880 N.am   10  GLY10      -0.1718
     10  CA        -0.4980  -13.3230  -29.6690 C.2    10  GLY10       0.1480
     11  C         -1.8970  -13.6680  -29.2330 C.2    10  GLY10       0.2820
     12  O         -2.8440  -13.5860  -30.0070 O.2    10  GLY10      -0.2669
     13  N         -1.9980  -14.0880  -27.9850 N.am   11  GLU11      -0.1943
     14  CA        -3.2460  -14.4690  -27.3500 C.3    11  GLU11       0.1605
     15  C         -3.2070  -13.9340  -25.9490 C.2    11  GLU11       0.2287
     16  O         -2.2380  -14.1800  -25.2000 O.2    11  GLU11      -0.2864
     17  CB        -3.4240  -15.9670  -27.3410 C.3    11  GLU11       0.0415
     18  CG        -3.3310  -16.6080  -28.7300 C.3    11  GLU11       0.1163
     19  CD        -3.6590  -18.0890  -28.7190 C.2    11  GLU11       0.3649
     20  OE1       -3.9620  -18.6170  -27.6230 O.co2  11  GLU11      -0.2457
     21  OE2       -3.6360  -18.7290  -29.8040 O.co2  11  GLU11      -0.2457
     22  N         -4.6840  -11.5630  -30.9390 N.3    17  VAL17      -0.1245
     23  CA        -4.1000  -10.3340  -31.4950 C.3    17  VAL17       0.1561
     24  C         -3.4250  -10.6640  -32.8190 C.2    17  VAL17       0.2260
     25  O         -2.6550  -11.6300  -32.8880 O.2    17  VAL17      -0.2867
     26  CB        -3.0520   -9.7390  -30.5090 C.3    17  VAL17       0.0252
     27  CG1       -2.5050   -8.3870  -31.0090 C.3    17  VAL17       0.0019
     28  CG2       -3.7060   -9.5470  -29.1330 C.3    17  VAL17       0.0019
     29  N         -1.7140   -3.4250  -34.3260 N.3    30  ALA30      -0.1245
     30  CA        -2.0130   -4.7030  -33.6440 C.3    30  ALA30       0.1562
     31  C         -3.4930   -4.6560  -33.3900 C.2    30  ALA30       0.2260
     32  O         -3.9900   -3.7070  -32.7340 O.2    30  ALA30      -0.2867
     33  CB        -1.2280   -4.8010  -32.3280 C.3    30  ALA30       0.0290
     34  N         -6.7050   -6.5420  -31.8200 N.3    32  LYS32      -0.1245
     35  CA        -7.1440   -7.5450  -30.8530 C.3    32  LYS32       0.1561
     36  C         -8.6260   -7.7730  -31.1220 C.2    32  LYS32       0.2260
     37  O         -9.3830   -6.8330  -31.1840 O.2    32  LYS32      -0.2867
     38  CB        -6.9020   -7.0870  -29.3900 C.3    32  LYS32       0.0271
     39  CG        -7.5610   -8.0170  -28.3450 C.3    32  LYS32       0.0035
     40  CD        -7.2260   -7.6310  -26.9190 C.3    32  LYS32       0.0206
     41  CE        -5.7720   -8.0140  -26.6800 C.3    32  LYS32       0.1093
     42  NZ        -5.4710   -7.6930  -25.3060 N.3    32  LYS32      -0.1314
     43  N          0.3610    1.6190  -24.1110 N.3    56  VAL56      -0.1245
     44  CA         0.2080    1.2000  -25.5140 C.3    56  VAL56       0.1561
     45  C         -0.8850    2.0860  -26.1580 C.2    56  VAL56       0.2260
     46  O         -1.9950    2.2040  -25.6280 O.2    56  VAL56      -0.2867
     47  CB        -0.1410   -0.2990  -25.6360 C.3    56  VAL56       0.0252
     48  CG1       -0.5830   -0.6460  -27.0590 C.3    56  VAL56       0.0019
     49  CG2        1.1040   -1.1120  -25.2470 C.3    56  VAL56       0.0019
     50  N         -9.9970   -4.0510  -30.6790 N.3    70  LEU70      -0.1245
     51  CA        -9.1940   -2.9470  -30.1950 C.3    70  LEU70       0.1561
     52  C         -8.0600   -2.7850  -31.1810 C.2    70  LEU70       0.2260
     53  O         -7.3800   -3.7510  -31.4870 O.2    70  LEU70      -0.2867
     54  CB        -8.6900   -3.1760  -28.7240 C.3    70  LEU70       0.0270
     55  CG        -9.7180   -3.5380  -27.6040 C.3    70  LEU70       0.0019
     56  CD1       -9.0360   -3.3850  -26.2490 C.3    70  LEU70       0.0001
     57  CD2      -10.8780   -2.5980  -27.5930 C.3    70  LEU70       0.0001
     58  N         -4.5100   -1.1610  -31.8190 N.3    72  CYS72      -0.1221
     59  CA        -3.3950   -0.5880  -31.0310 C.3    72  CYS72       0.1808
     60  C         -2.2390   -0.2710  -31.9310 C.2    72  CYS72       0.2601
     61  O         -2.1220   -0.8630  -32.9710 O.2    72  CYS72      -0.2717
     62  CB        -2.8730   -1.6060  -29.9700 C.3    72  CYS72       0.0970
     63  SG        -4.1020   -2.0960  -28.7840 S.3    72  CYS72      -0.0800
     64  N         -1.2890    0.5550  -31.4600 N.am   73  GLU73      -0.1979
     65  CA        -0.0420    0.6620  -32.1900 C.3    73  GLU73       0.1602
     66  C          0.6170   -0.7090  -32.1850 C.2    73  GLU73       0.2287
     67  O          0.4180   -1.5160  -31.2730 O.2    73  GLU73      -0.2864
     68  CB         0.8820    1.6950  -31.5240 C.3    73  GLU73       0.0415
     69  CG         1.2090    1.3220  -30.1100 C.3    73  GLU73       0.1163
     70  CD         2.2080    2.2910  -29.4580 C.2    73  GLU73       0.3649
     71  OE1        3.2390    2.6520  -30.0370 O.co2  73  GLU73      -0.2457
     72  OE2        1.9250    2.7130  -28.3590 O.co2  73  GLU73      -0.2457
     73  N          3.6490   -3.0670  -31.5690 N.3    75  LEU75      -0.1245
     74  CA         4.8950   -3.1950  -30.8400 C.3    75  LEU75       0.1561
     75  C          5.4380   -4.6140  -31.0660 C.2    75  LEU75       0.2260
     76  O          4.6650   -5.5300  -31.2080 O.2    75  LEU75      -0.2867
     77  CB         4.6730   -2.8940  -29.3410 C.3    75  LEU75       0.0270
     78  CG         4.3830   -1.3840  -29.1430 C.3    75  LEU75       0.0019
     79  CD1        3.5590   -1.0160  -27.9470 C.3    75  LEU75       0.0001
     80  CD2        5.7400   -0.6640  -29.0980 C.3    75  LEU75       0.0001
     81  N          6.8740   -8.9220  -26.2910 N.3    78  ASP78      -0.1239
     82  CA         6.5080   -8.7180  -24.8690 C.3    78  ASP78       0.1674
     83  C          7.7040   -8.9650  -23.9280 C.2    78  ASP78       0.2266
     84  O          8.7100   -9.5340  -24.3310 O.2    78  ASP78      -0.2867
     85  CB         5.2580   -9.4690  -24.4920 C.3    78  ASP78       0.1410
     86  CG         5.4420  -10.9830  -24.5040 C.2    78  ASP78       0.3668
     87  OD1        6.0290  -11.5660  -23.5900 O.co2  78  ASP78      -0.2456
     88  OD2        4.9940  -11.5820  -25.4720 O.co2  78  ASP78      -0.2456
     89  N          8.7520  -12.7240  -23.3100 N.3    81  LYS81      -0.1245
     90  CA         9.6350  -13.2690  -24.3640 C.3    81  LYS81       0.1561
     91  C         11.0210  -12.7200  -24.2750 C.2    81  LYS81       0.2260
     92  O         11.9810  -13.4590  -24.4100 O.2    81  LYS81      -0.2867
     93  CB         9.1120  -13.0020  -25.7700 C.3    81  LYS81       0.0271
     94  CG         7.7760  -13.6210  -26.0750 C.3    81  LYS81       0.0035
     95  CD         7.5480  -13.5240  -27.5950 C.3    81  LYS81       0.0206
     96  CE         6.3070  -14.2670  -28.0790 C.3    81  LYS81       0.1093
     97  NZ         5.1600  -13.8110  -27.2670 N.3    81  LYS81      -0.1314
     98  N          3.6650  -10.6080  -19.7920 N.3   123  GLN123     -0.1231
     99  CA         3.0420  -10.7480  -21.1100 C.3   123  GLN123      0.1698
    100  C          2.3310   -9.4940  -21.6030 C.2   123  GLN123      0.2592
    101  O          2.0230   -9.4110  -22.7740 O.2   123  GLN123     -0.2718
    102  CB         1.9460  -11.7850  -21.0590 C.3   123  GLN123      0.0381
    103  CG         2.3080  -13.1350  -21.5880 C.3   123  GLN123      0.0905
    104  CD         1.0390  -14.0060  -21.7750 C.2   123  GLN123      0.2608
    105  OE1        0.0830  -13.9970  -20.9510 O.2   123  GLN123     -0.2717
    106  NE2        1.0320  -14.7720  -22.8560 N.am  123  GLN123     -0.0878
    107  N          1.9430   -8.5740  -20.7210 N.am  124  ASN124     -0.1974
    108  CA         1.3100   -7.3680  -21.2110 C.3   124  ASN124      0.1688
    109  C          2.1300   -6.0890  -21.1530 C.2   124  ASN124      0.2292
    110  O          1.5980   -4.9840  -21.2240 O.2   124  ASN124     -0.2864
    111  CB        -0.1330   -7.2990  -20.7440 C.3   124  ASN124      0.1181
    112  CG        -0.2740   -7.1890  -19.2270 C.2   124  ASN124      0.2629
    113  OD1       -1.2870   -7.6630  -18.6870 O.2   124  ASN124     -0.2716
    114  ND2        0.7520   -6.6480  -18.5290 N.am  124  ASN124     -0.0877
    115  N          5.0400   -4.3300  -23.3390 N.3   126  LEU126     -0.1245
    116  CA         5.5410   -4.5330  -24.7130 C.3   126  LEU126      0.1561
    117  C          6.6780   -3.5750  -24.9320 C.2   126  LEU126      0.2260
    118  O          6.6220   -2.4130  -24.4880 O.2   126  LEU126     -0.2867
    119  CB         4.4140   -4.2200  -25.7580 C.3   126  LEU126      0.0270
    120  CG         3.1590   -5.0800  -25.5470 C.3   126  LEU126      0.0019
    121  CD1        2.0940   -4.7000  -26.5160 C.3   126  LEU126      0.0001
    122  CD2        3.5110   -6.5470  -25.7350 C.3   126  LEU126      0.0001
    123  N          0.1900   -2.6200  -21.7700 N.3   136  ALA136     -0.1231
    124  CA        -0.9750   -3.0070  -22.6020 C.3   136  ALA136      0.1694
    125  C         -2.1320   -3.4910  -21.7380 C.2   136  ALA136      0.2592
    126  O         -1.9250   -3.8340  -20.5890 O.2   136  ALA136     -0.2718
    127  CB        -0.5670   -4.1000  -23.5860 C.3   136  ALA136      0.0304
    128  N         -3.3350   -3.4950  -22.3080 N.am  137  ASP137     -0.1974
    129  CA        -4.5440   -4.0490  -21.6940 C.3   137  ASP137      0.1709
    130  C         -5.0560   -3.2690  -20.4750 C.2   137  ASP137      0.2293
    131  O         -5.8380   -3.8090  -19.6800 O.2   137  ASP137     -0.2864
    132  CB        -4.3370   -5.5430  -21.3340 C.3   137  ASP137      0.1436
    133  CG        -4.1600   -6.4320  -22.5700 C.2   137  ASP137      0.3671
    134  OD1       -3.7800   -7.5970  -22.3640 O.co2 137  ASP137     -0.2456
    135  OD2       -4.4190   -5.9870  -23.7260 O.co2 137  ASP137     -0.2456
@<TRIPOS>BOND
     1     7     5    1
     2    29    30    1
     3     1     2    1
     4    30    31    1
     5    30    33    1
     6    31    32    2
     7     5     2    1
     8     5     6    1
     9     2     3    1
    10    61    60    2
    11     8     6    1
    12    25    24    2
    13    24    23    1
    14    65    66    1
    15    65    68    1
    16    65    64    1
    17    66    67    2
    18    60    64   am
    19    60    59    1
    20    34    35    1
    21    58    59    1
    22    73    74    1
    23    68    69    1
    24     3     9    1
    25     3     4    2
    26    23    22    1
    27    23    26    1
    28    53    52    2
    29    76    75    2
    30    37    36    2
    31    52    51    1
    32    36    35    1
    33     9    10    2
    34    75    74    1
    35    59    62    1
    36    27    26    1
    37    35    38    1
    38    74    77    1
    39    50    51    1
    40    26    28    1
    41    51    54    1
    42    69    70    1
    43    71    70   ar
    44    12    11    2
    45    62    63    1
    46    21    19   ar
    47    10    11    1
    48    70    72   ar
    49    38    39    1
    50    77    78    1
    51    11    13   am
    52    78    80    1
    53    78    79    1
    54    18    19    1
    55    18    17    1
    56    54    55    1
    57    19    20   ar
    58    39    40    1
    59    96    95    1
    60    96    97    1
    61    13    14    1
    62    55    57    1
    63    55    56    1
    64    95    94    1
    65    14    17    1
    66    14    15    1
    67    48    47    1
    68    40    41    1
    69    41    42    1
    70   121   120    1
    71    81    82    1
    72    45    46    2
    73    45    44    1
    74    94    93    1
    75    15    16    2
    76    93    90    1
    77   119   120    1
    78   119   116    1
    79   122   120    1
    80    47    44    1
    81    47    49    1
    82    44    43    1
    83    88    86   ar
    84   117   116    1
    85   117   118    2
    86    82    85    1
    87    82    83    1
    88   116   115    1
    89    86    85    1
    90    86    87   ar
    91    92    91    2
    92    90    91    1
    93    90    89    1
    94    84    83    2
    95   135   133   ar
    96   127   124    1
    97   106   104   am
    98   101   100    2
    99   124   123    1
   100   124   125    1
   101   133   134   ar
   102   133   132    1
   103   128   125   am
   104   128   129    1
   105   104   103    1
   106   104   105    2
   107   125   126    2
   108   129   132    1
   109   129   130    1
   110   100    99    1
   111   100   107   am
   112   103   102    1
   113   110   109    2
   114   108   109    1
   115   108   111    1
   116   108   107    1
   117    99   102    1
   118    99    98    1
   119   111   112    1
   120   130   131    2
   121   112   113    2
   122   112   114   am
