@<TRIPOS>MOLECULE
tmp/5oo9A00.pdb
 174 164 0 0 0
SMALL
GASTEIGER

@<TRIPOS>ATOM
      1  N        -49.5260   67.1940   -5.7330 N.3    14  PHE14      -0.1241
      2  CA       -49.6530   68.6110   -6.0510 C.3    14  PHE14       0.1605
      3  C        -49.4760   69.4630   -4.8040 C.2    14  PHE14       0.2264
      4  O        -49.5480   68.9620   -3.6780 O.2    14  PHE14      -0.2867
      5  CB       -51.0190   68.8900   -6.6830 C.3    14  PHE14       0.0534
      6  CG       -52.1780   68.4460   -5.8390 C.ar   14  PHE14      -0.0203
      7  CD1      -52.6040   67.1280   -5.8620 C.ar   14  PHE14      -0.0042
      8  CD2      -52.8440   69.3460   -5.0260 C.ar   14  PHE14      -0.0042
      9  CE1      -53.6700   66.7150   -5.0860 C.ar   14  PHE14      -0.0003
     10  CE2      -53.9130   68.9400   -4.2460 C.ar   14  PHE14      -0.0003
     11  CZ       -54.3260   67.6230   -4.2760 C.ar   14  PHE14      -0.0000
     12  N        -50.7590   72.6270   -2.4590 N.3    16  LYS16      -0.1231
     13  CA       -51.9590   73.3570   -2.0670 C.3    16  LYS16       0.1693
     14  C        -51.6350   74.2620   -0.8770 C.2    16  LYS16       0.2592
     15  O        -51.3240   73.7820    0.2050 O.2    16  LYS16      -0.2718
     16  CB       -53.0890   72.3890   -1.7100 C.3    16  LYS16       0.0285
     17  CG       -54.4410   73.0650   -1.5440 C.3    16  LYS16       0.0035
     18  CD       -55.5570   72.0400   -1.4530 C.3    16  LYS16       0.0206
     19  CE       -56.9020   72.7010   -1.1970 C.3    16  LYS16       0.1093
     20  NZ       -58.0000   71.7010   -1.1770 N.3    16  LYS16      -0.1314
     21  N        -51.6860   75.5740   -1.0990 N.am   17  HIS17      -0.1976
     22  CA       -51.4330   76.5660   -0.0470 C.3    17  HIS17       0.1656
     23  C        -50.1160   76.3670    0.7030 C.2    17  HIS17       0.2291
     24  O        -49.9980   76.7590    1.8640 O.2    17  HIS17      -0.2864
     25  CB       -52.5890   76.5940    0.9630 C.3    17  HIS17       0.0771
     26  CG       -53.9340   76.7990    0.3390 C.ar   17  HIS17       0.0820
     27  ND1      -54.2320   77.8920   -0.4470 N.ar   17  HIS17      -0.2267
     28  CD2      -55.0690   76.0660    0.4100 C.ar   17  HIS17       0.1154
     29  CE1      -55.4850   77.8090   -0.8530 C.ar   17  HIS17       0.1986
     30  NE2      -56.0160   76.7130   -0.3460 N.ar   17  HIS17      -0.2212
     31  N        -48.4660   73.2720    1.0780 N.3    19  ILE19      -0.1245
     32  CA       -48.1920   71.8710    1.4060 C.3    19  ILE19       0.1561
     33  C        -48.1300   71.0370    0.1400 C.2    19  ILE19       0.2260
     34  O        -48.7620   71.3680   -0.8640 O.2    19  ILE19      -0.2867
     35  CB       -49.2150   71.2540    2.3980 C.3    19  ILE19       0.0252
     36  CG1      -50.5850   70.9950    1.7440 C.3    19  ILE19       0.0019
     37  CG2      -49.3480   72.1370    3.6340 C.3    19  ILE19       0.0019
     38  CD1      -51.5180   70.1620    2.5990 C.3    19  ILE19       0.0001
     39  N        -49.2310   67.5850   -1.1930 N.3    21  LEU21      -0.1245
     40  CA       -50.1630   66.4920   -0.9530 C.3    21  LEU21       0.1561
     41  C        -49.8880   65.3060   -1.8620 C.2    21  LEU21       0.2260
     42  O        -49.5460   65.4750   -3.0310 O.2    21  LEU21      -0.2867
     43  CB       -51.6000   66.9600   -1.1990 C.3    21  LEU21       0.0270
     44  CG       -52.2930   67.6700   -0.0430 C.3    21  LEU21       0.0019
     45  CD1      -53.3940   68.5900   -0.5500 C.3    21  LEU21       0.0001
     46  CD2      -52.8470   66.6510    0.9400 C.3    21  LEU21       0.0001
     47  N        -52.2350   62.2640   -2.9940 N.3    23  VAL23      -0.1245
     48  CA       -53.5680   61.6800   -3.0080 C.3    23  VAL23       0.1561
     49  C        -53.4950   60.3610   -3.7790 C.2    23  VAL23       0.2260
     50  O        -53.2540   60.3470   -4.9850 O.2    23  VAL23      -0.2867
     51  CB       -54.5700   62.6610   -3.6550 C.3    23  VAL23       0.0252
     52  CG1      -55.9570   62.0430   -3.7600 C.3    23  VAL23       0.0019
     53  CG2      -54.6200   63.9560   -2.8540 C.3    23  VAL23       0.0019
     54  N        -60.6260   59.2110    4.0480 N.3    32  THR32      -0.1218
     55  CA       -59.5820   59.5370    3.0950 C.3    32  THR32       0.1862
     56  C        -58.2660   59.6280    3.8490 C.2    32  THR32       0.2287
     57  O        -58.1650   60.3710    4.8230 O.2    32  THR32      -0.2866
     58  CB       -59.8380   60.9240    2.4760 C.3    32  THR32       0.1770
     59  OG1      -61.0560   60.9060    1.7360 O.3    32  THR32      -0.2211
     60  CG2      -58.6870   61.3480    1.5750 C.3    32  THR32       0.0375
     61  N        -54.2390   60.5490    3.1930 N.3    34  VAL34      -0.1245
     62  CA       -53.2780   61.1630    2.2740 C.3    34  VAL34       0.1561
     63  C        -51.9530   61.4230    2.9860 C.2    34  VAL34       0.2260
     64  O        -51.8890   61.4010    4.2240 O.2    34  VAL34      -0.2867
     65  CB       -53.8170   62.4970    1.6970 C.3    34  VAL34       0.0252
     66  CG1      -55.1000   62.2580    0.9220 C.3    34  VAL34       0.0019
     67  CG2      -54.0420   63.5370    2.7890 C.3    34  VAL34       0.0019
     68  N        -48.9470   64.2350    3.6440 N.3    36  VAL36      -0.1245
     69  CA       -48.6680   65.6640    3.6060 C.3    36  VAL36       0.1561
     70  C        -47.1990   65.9060    3.9110 C.2    36  VAL36       0.2260
     71  O        -46.6810   65.4210    4.9150 O.2    36  VAL36      -0.2867
     72  CB       -49.5240   66.4380    4.6280 C.3    36  VAL36       0.0252
     73  CG1      -49.1310   67.9110    4.6600 C.3    36  VAL36       0.0019
     74  CG2      -50.9970   66.2870    4.2910 C.3    36  VAL36       0.0019
     75  N        -49.0760   75.6360    5.8830 N.3    42  HIS42      -0.1241
     76  CA       -50.2960   75.6690    5.1040 C.3    42  HIS42       0.1621
     77  C        -50.8790   77.0590    5.3070 C.2    42  HIS42       0.2264
     78  O        -51.4680   77.3400    6.3520 O.2    42  HIS42      -0.2867
     79  CB       -51.2590   74.5980    5.6040 C.3    42  HIS42       0.0745
     80  CG       -52.4970   74.4780    4.7810 C.ar   42  HIS42       0.0817
     81  ND1      -53.5580   75.3490    4.9010 N.ar   42  HIS42      -0.2268
     82  CD2      -52.8400   73.5990    3.8130 C.ar   42  HIS42       0.1154
     83  CE1      -54.5040   75.0060    4.0470 C.ar   42  HIS42       0.1986
     84  NE2      -54.0920   73.9490    3.3730 N.ar   42  HIS42      -0.2212
     85  N        -53.2780   79.0500    4.5440 N.3    44  GLN44      -0.1245
     86  CA       -54.6770   79.3350    4.3450 C.3    44  GLN44       0.1566
     87  C        -55.3840   78.6920    5.5210 C.2    44  GLN44       0.2260
     88  O        -54.9840   77.6110    5.9780 O.2    44  GLN44      -0.2867
     89  CB       -55.1540   78.7650    3.0100 C.3    44  GLN44       0.0367
     90  CG       -56.6150   79.0490    2.6700 C.3    44  GLN44       0.0905
     91  CD       -57.5230   77.8380    2.7990 C.2    44  GLN44       0.2608
     92  OE1      -57.0900   76.7620    3.1940 O.2    44  GLN44      -0.2717
     93  NE2      -58.7860   78.0020    2.4390 N.am   44  GLN44      -0.0878
     94  N        -59.0080   77.3130    6.9500 N.3    46  PHE46      -0.1241
     95  CA       -60.2610   76.7760    6.4690 C.3    46  PHE46       0.1605
     96  C        -60.8960   75.9760    7.5930 C.2    46  PHE46       0.2264
     97  O        -60.2670   75.7180    8.6170 O.2    46  PHE46      -0.2867
     98  CB       -60.0130   75.8550    5.2650 C.3    46  PHE46       0.0534
     99  CG       -59.3010   74.5800    5.6220 C.ar   46  PHE46      -0.0203
    100  CD1      -57.9280   74.5700    5.8640 C.ar   46  PHE46      -0.0042
    101  CD2      -60.0070   73.3870    5.7670 C.ar   46  PHE46      -0.0042
    102  CE1      -57.2720   73.4040    6.2280 C.ar   46  PHE46      -0.0003
    103  CE2      -59.3520   72.2210    6.1130 C.ar   46  PHE46      -0.0003
    104  CZ       -57.9870   72.2220    6.3480 C.ar   46  PHE46      -0.0000
    105  N        -60.2090   65.9870   10.8790 N.3    53  TYR53      -0.1241
    106  CA       -58.8560   65.9460   10.3370 C.3    53  TYR53       0.1605
    107  C        -57.9320   65.4010   11.4090 C.2    53  TYR53       0.2264
    108  O        -57.8000   65.9970   12.4840 O.2    53  TYR53      -0.2867
    109  CB       -58.3990   67.3540    9.9710 C.3    53  TYR53       0.0534
    110  CG       -58.6690   67.7440    8.5530 C.ar   53  TYR53      -0.0201
    111  CD1      -59.9670   67.8870    8.0730 C.ar   53  TYR53      -0.0009
    112  CD2      -57.6100   68.0060    7.6890 C.ar   53  TYR53      -0.0009
    113  CE1      -60.2040   68.2690    6.7540 C.ar   53  TYR53       0.0417
    114  CE2      -57.8340   68.3750    6.3870 C.ar   53  TYR53       0.0417
    115  CZ       -59.1170   68.5100    5.9220 C.ar   53  TYR53       0.1957
    116  OH       -59.2860   68.8740    4.6060 O.3    53  TYR53      -0.2866
    117  N        -54.0230   64.2760   12.0050 N.3    55  PHE55      -0.1241
    118  CA       -52.6500   64.3010   11.5120 C.3    55  PHE55       0.1605
    119  C        -51.7570   63.4460   12.3980 C.2    55  PHE55       0.2264
    120  O        -51.7010   63.6570   13.6120 O.2    55  PHE55      -0.2867
    121  CB       -52.0850   65.7330   11.5290 C.3    55  PHE55       0.0534
    122  CG       -52.8260   66.7210   10.6640 C.ar   55  PHE55      -0.0203
    123  CD1      -53.9570   67.3840   11.1380 C.ar   55  PHE55      -0.0042
    124  CD2      -52.3440   67.0510    9.3970 C.ar   55  PHE55      -0.0042
    125  CE1      -54.6150   68.3120   10.3400 C.ar   55  PHE55      -0.0003
    126  CE2      -53.0000   67.9770    8.6020 C.ar   55  PHE55      -0.0003
    127  CZ       -54.1350   68.6100    9.0760 C.ar   55  PHE55      -0.0000
    128  N        -51.6580   75.7940    9.7580 N.3    89  TYR89      -0.1241
    129  CA       -50.4830   75.3290   10.4750 C.3    89  TYR89       0.1605
    130  C        -49.1780   75.7590    9.8400 C.2    89  TYR89       0.2264
    131  O        -49.1140   76.0840    8.6540 O.2    89  TYR89      -0.2867
    132  CB       -50.5090   73.8010   10.6580 C.3    89  TYR89       0.0534
    133  CG       -50.7600   72.9610    9.4160 C.ar   89  TYR89      -0.0201
    134  CD1      -52.0580   72.6140    9.0300 C.ar   89  TYR89      -0.0009
    135  CD2      -49.7080   72.4770    8.6540 C.ar   89  TYR89      -0.0009
    136  CE1      -52.2870   71.8150    7.9150 C.ar   89  TYR89       0.0417
    137  CE2      -49.9290   71.6860    7.5400 C.ar   89  TYR89       0.0417
    138  CZ       -51.2090   71.3530    7.1710 C.ar   89  TYR89       0.1957
    139  OH       -51.4030   70.5530    6.0550 O.3    89  TYR89      -0.2866
    140  N        -52.3210   62.0560    6.9850 N.3    97  LEU97      -0.1245
    141  CA       -53.5530   62.7540    7.3340 C.3    97  LEU97       0.1561
    142  C        -54.7660   61.9090    6.9900 C.2    97  LEU97       0.2260
    143  O        -54.8980   61.4490    5.8580 O.2    97  LEU97      -0.2867
    144  CB       -53.6390   64.0840    6.5770 C.3    97  LEU97       0.0270
    145  CG       -54.9930   64.8010    6.5390 C.3    97  LEU97       0.0019
    146  CD1      -55.4880   65.1660    7.9320 C.3    97  LEU97       0.0001
    147  CD2      -54.9240   66.0440    5.6640 C.3    97  LEU97       0.0001
    148  N        -58.8830   62.1480    6.8000 N.3    99  VAL99      -0.1245
    149  CA       -60.0960   62.9490    6.7810 C.3    99  VAL99       0.1561
    150  C        -61.2690   61.9720    6.8160 C.2    99  VAL99       0.2260
    151  O        -61.3800   61.1150    5.9470 O.2    99  VAL99      -0.2867
    152  CB       -60.1530   63.8330    5.5270 C.3    99  VAL99       0.0252
    153  CG1      -61.4460   64.6360    5.4900 C.3    99  VAL99       0.0019
    154  CG2      -58.9430   64.7620    5.4810 C.3    99  VAL99       0.0019
    155  N        -62.9860   62.8710    2.3610 N.3   103  PHE103     -0.1241
    156  CA       -62.7890   64.2560    1.9550 C.3   103  PHE103      0.1605
    157  C        -63.6940   64.6340    0.7910 C.2   103  PHE103      0.2264
    158  O        -63.7640   63.9240   -0.2090 O.2   103  PHE103     -0.2867
    159  CB       -61.3350   64.4720    1.5420 C.3   103  PHE103      0.0534
    160  CG       -61.0570   65.8440    0.9930 C.ar  103  PHE103     -0.0203
    161  CD1      -60.8490   66.9160    1.8480 C.ar  103  PHE103     -0.0042
    162  CD2      -61.0000   66.0640   -0.3770 C.ar  103  PHE103     -0.0042
    163  CE1      -60.5970   68.1820    1.3430 C.ar  103  PHE103     -0.0003
    164  CE2      -60.7510   67.3290   -0.8870 C.ar  103  PHE103     -0.0003
    165  CZ       -60.5390   68.3860   -0.0240 C.ar  103  PHE103     -0.0000
    166  N        -65.6580   72.1520    2.6850 N.3   108  GLU108     -0.1245
    167  CA       -64.6870   73.0670    3.2550 C.3   108  GLU108      0.1567
    168  C        -65.0300   74.5140    2.9470 C.2   108  GLU108      0.2260
    169  O        -65.6140   74.8250    1.9120 O.2   108  GLU108     -0.2867
    170  CB       -63.2750   72.6940    2.8020 C.3   108  GLU108      0.0388
    171  CG       -63.0200   71.2070    3.0280 C.3   108  GLU108      0.1160
    172  CD       -61.5840   70.8480    3.3480 C.2   108  GLU108      0.3649
    173  OE1      -60.6620   71.4810    2.7960 O.co2 108  GLU108     -0.2457
    174  OE2      -61.3850   69.8840    4.1350 O.co2 108  GLU108     -0.2457
@<TRIPOS>BOND
     1     5     2    1
     2     5     6    1
     3     2     1    1
     4     2     3    1
     5     7     6   ar
     6     7     9   ar
     7     6     8   ar
     8     9    11   ar
     9     8    10   ar
    10    50    49    2
    11     3     4    2
    12    11    10   ar
    13    49    48    1
    14    52    51    1
    15    51    48    1
    16    51    53    1
    17    42    41    2
    18    48    47    1
    19    12    13    1
    20    13    16    1
    21    13    14    1
    22    41    40    1
    23    16    17    1
    24    17    18    1
    25    18    19    1
    26    43    40    1
    27    43    44    1
    28    19    20    1
    29    39    40    1
    30    21    14   am
    31    21    22    1
    32   164   162   ar
    33   164   165   ar
    34    14    15    2
    35    34    33    2
    36    29    27   ar
    37    29    30   ar
    38    45    44    1
    39    27    26   ar
    40   162   160   ar
    41    30    28   ar
    42   158   157    2
    43    22    23    1
    44    22    25    1
    45    44    46    1
    46   165   163   ar
    47    33    32    1
    48    26    28   ar
    49    26    25    1
    50    23    24    2
    51   157   156    1
    52    66    65    1
    53   160   159    1
    54   160   161   ar
    55    31    32    1
    56   163   161   ar
    57    32    35    1
    58   159   156    1
    59    60    58    1
    60    65    62    1
    61    65    67    1
    62    59    58    1
    63    36    35    1
    64    36    38    1
    65   169   168    2
    66   156   155    1
    67    62    63    1
    68    62    61    1
    69    35    37    1
    70    93    91   am
    71    58    55    1
    72    90    91    1
    73    90    89    1
    74   166   167    1
    75   173   172   ar
    76    91    92    2
    77   170   171    1
    78   170   167    1
    79   168   167    1
    80    63    64    2
    81    89    86    1
    82   171   172    1
    83    55    56    1
    84    55    54    1
    85   172   174   ar
    86    84    82   ar
    87    84    83   ar
    88    69    68    1
    89    69    70    1
    90    69    72    1
    91    82    80   ar
    92    56    57    2
    93    70    71    2
    94    83    81   ar
    95    74    72    1
    96    86    85    1
    97    86    87    1
    98   116   115    1
    99    72    73    1
   100    80    81   ar
   101    80    79    1
   102    76    77    1
   103    76    79    1
   104    76    75    1
   105    98    99    1
   106    98    95    1
   107    77    78    2
   108   154   152    1
   109   153   152    1
   110    87    88    2
   111   152   149    1
   112    99   101   ar
   113    99   100   ar
   114   147   145    1
   115   101   103   ar
   116   143   142    2
   117   100   102   ar
   118   115   114   ar
   119   115   113   ar
   120   151   150    2
   121   139   138    1
   122   103   104   ar
   123   102   104   ar
   124   114   112   ar
   125    95    94    1
   126    95    96    1
   127   145   144    1
   128   145   146    1
   129   144   141    1
   130   113   111   ar
   131   149   148    1
   132   149   150    1
   133   140   141    1
   134   142   141    1
   135   138   137   ar
   136   138   136   ar
   137   137   135   ar
   138    96    97    2
   139   112   110   ar
   140   136   134   ar
   141   111   110   ar
   142   110   109    1
   143   126   127   ar
   144   126   124   ar
   145   135   133   ar
   146   131   130    2
   147   134   133   ar
   148   127   125   ar
   149   124   122   ar
   150   133   132    1
   151   128   129    1
   152   130   129    1
   153   109   106    1
   154   106   105    1
   155   106   107    1
   156   125   123   ar
   157   129   132    1
   158   122   123   ar
   159   122   121    1
   160   107   108    2
   161   118   121    1
   162   118   117    1
   163   118   119    1
   164   119   120    2
