@<TRIPOS>MOLECULE
tmp/5oobB00.pdb
 168 164 0 0 0
SMALL
GASTEIGER

@<TRIPOS>ATOM
      1  N        -43.0180   -0.3070  -84.2210 N.3    17  TYR17      -0.1241
      2  CA       -42.6190   -0.1760  -85.6260 C.3    17  TYR17       0.1605
      3  C        -41.5480   -1.1640  -86.1010 C.2    17  TYR17       0.2264
      4  O        -40.5760   -1.4390  -85.3850 O.2    17  TYR17      -0.2867
      5  CB       -42.1150    1.2470  -85.8740 C.3    17  TYR17       0.0534
      6  CG       -41.7170    1.5310  -87.2990 C.ar   17  TYR17      -0.0201
      7  CD1      -40.4130    1.3030  -87.7430 C.ar   17  TYR17      -0.0009
      8  CD2      -42.6400    2.0350  -88.2060 C.ar   17  TYR17      -0.0009
      9  CE1      -40.0540    1.5580  -89.0590 C.ar   17  TYR17       0.0417
     10  CE2      -42.2900    2.3020  -89.5160 C.ar   17  TYR17       0.0417
     11  CZ       -41.0000    2.0570  -89.9400 C.ar   17  TYR17       0.1957
     12  OH       -40.6460    2.3170  -91.2300 O.3    17  TYR17      -0.2866
     13  N        -39.5040   -1.8250  -90.1630 N.3    19  ASP19      -0.1239
     14  CA       -39.3350   -1.4180  -91.5560 C.3    19  ASP19       0.1674
     15  C        -39.8020   -2.5730  -92.4300 C.2    19  ASP19       0.2266
     16  O        -39.2470   -3.6740  -92.3690 O.2    19  ASP19      -0.2867
     17  CB       -37.8620   -1.0780  -91.8490 C.3    19  ASP19       0.1410
     18  CG       -37.6460   -0.5220  -93.2460 C.2    19  ASP19       0.3668
     19  OD1      -38.4330    0.3470  -93.6470 O.co2  19  ASP19      -0.2456
     20  OD2      -36.6920   -0.9310  -93.9420 O.co2  19  ASP19      -0.2456
     21  N        -31.4170   -3.2060  -84.3490 N.3    33  LEU33      -0.1245
     22  CA       -32.0200   -2.1340  -83.5340 C.3    33  LEU33       0.1561
     23  C        -31.4370   -2.0340  -82.1190 C.2    33  LEU33       0.2260
     24  O        -31.3050   -0.9410  -81.5760 O.2    33  LEU33      -0.2867
     25  CB       -33.5380   -2.3270  -83.4330 C.3    33  LEU33       0.0270
     26  CG       -34.3880   -2.0030  -84.6700 C.3    33  LEU33       0.0019
     27  CD1      -35.7560   -2.6570  -84.5380 C.3    33  LEU33       0.0001
     28  CD2      -34.5350   -0.4930  -84.8930 C.3    33  LEU33       0.0001
     29  N        -34.6060    7.2640  -85.9850 N.3    40  TYR40      -0.1241
     30  CA       -35.6720    7.9450  -86.7310 C.3    40  TYR40       0.1605
     31  C        -36.2080    9.0570  -85.8450 C.2    40  TYR40       0.2264
     32  O        -36.3350    8.8630  -84.6490 O.2    40  TYR40      -0.2867
     33  CB       -36.8100    6.9710  -87.1040 C.3    40  TYR40       0.0534
     34  CG       -38.1160    7.6380  -87.5240 C.ar   40  TYR40      -0.0201
     35  CD1      -38.3000    8.1110  -88.8250 C.ar   40  TYR40      -0.0009
     36  CD2      -39.1570    7.8040  -86.6150 C.ar   40  TYR40      -0.0009
     37  CE1      -39.4840    8.7260  -89.2070 C.ar   40  TYR40       0.0417
     38  CE2      -40.3430    8.4200  -86.9870 C.ar   40  TYR40       0.0417
     39  CZ       -40.5140    8.8780  -88.2850 C.ar   40  TYR40       0.1957
     40  OH       -41.7130    9.4890  -88.6220 O.3    40  TYR40      -0.2866
     41  N        -39.5820   14.1720  -91.4180 N.3    80  PHE80      -0.1241
     42  CA       -38.7960   13.2760  -90.5730 C.3    80  PHE80       0.1605
     43  C        -37.3180   13.4650  -90.8620 C.2    80  PHE80       0.2264
     44  O        -36.9420   14.2840  -91.7100 O.2    80  PHE80      -0.2867
     45  CB       -39.2280   11.8180  -90.7240 C.3    80  PHE80       0.0534
     46  CG       -38.8340   11.1900  -92.0290 C.ar   80  PHE80      -0.0203
     47  CD1      -39.5410   11.4660  -93.1900 C.ar   80  PHE80      -0.0042
     48  CD2      -37.7780   10.2860  -92.0900 C.ar   80  PHE80      -0.0042
     49  CE1      -39.1900   10.8760  -94.3950 C.ar   80  PHE80      -0.0003
     50  CE2      -37.4140    9.6900  -93.2900 C.ar   80  PHE80      -0.0003
     51  CZ       -38.1210    9.9860  -94.4440 C.ar   80  PHE80      -0.0000
     52  N        -33.1740   11.2250  -89.9240 N.3    82  PHE82      -0.1241
     53  CA       -32.3660   10.2640  -89.1700 C.3    82  PHE82       0.1605
     54  C        -31.1980   10.9990  -88.5170 C.2    82  PHE82       0.2264
     55  O        -30.6690   11.9540  -89.0840 O.2    82  PHE82      -0.2867
     56  CB       -31.8400    9.1480  -90.0670 C.3    82  PHE82       0.0534
     57  CG       -32.9160    8.3170  -90.7020 C.ar   82  PHE82      -0.0203
     58  CD1      -33.5240    7.2930  -89.9970 C.ar   82  PHE82      -0.0042
     59  CD2      -33.3010    8.5380  -92.0060 C.ar   82  PHE82      -0.0042
     60  CE1      -34.5080    6.5090  -90.5840 C.ar   82  PHE82      -0.0003
     61  CE2      -34.2820    7.7650  -92.5960 C.ar   82  PHE82      -0.0003
     62  CZ       -34.8840    6.7400  -91.8850 C.ar   82  PHE82      -0.0000
     63  N        -40.8160   12.9030  -81.8390 N.3   109  ARG109     -0.1245
     64  CA       -40.8950   11.5410  -81.3430 C.3   109  ARG109      0.1563
     65  C        -39.7620   10.7630  -81.9920 C.2   109  ARG109      0.2260
     66  O        -39.6560   10.7660  -83.2040 O.2   109  ARG109     -0.2867
     67  CB       -42.2620   10.9470  -81.7160 C.3   109  ARG109      0.0307
     68  CG       -42.5620    9.5660  -81.1270 C.3   109  ARG109      0.0489
     69  CD       -43.6440    8.7910  -81.8950 C.3   109  ARG109      0.2205
     70  NE       -43.3420    7.3460  -81.9460 N.pl3 109  ARG109     -0.0865
     71  CZ       -42.5430    6.7360  -82.8360 C.cat 109  ARG109      0.5346
     72  NH1      -41.9320    7.4130  -83.8110 N.pl3 109  ARG109      0.1354
     73  NH2      -42.3520    5.4200  -82.7570 N.pl3 109  ARG109      0.1354
     74  N        -37.3560    7.1160  -82.4480 N.3   111  ASP111     -0.1225
     75  CA       -37.3370    5.6420  -82.3970 C.3   111  ASP111      0.1805
     76  C        -36.0050    5.1320  -82.9290 C.2   111  ASP111      0.2598
     77  O        -35.3820    5.7770  -83.7700 O.2   111  ASP111     -0.2718
     78  CB       -38.4850    5.0340  -83.2270 C.3   111  ASP111      0.1424
     79  CG       -38.5050    3.4810  -83.2010 C.2   111  ASP111      0.3668
     80  OD1      -38.1920    2.8820  -82.1430 O.co2 111  ASP111     -0.2456
     81  OD2      -38.8330    2.8500  -84.2400 O.co2 111  ASP111     -0.2456
     82  N        -35.5760    3.9770  -82.4250 N.am  112  TRP112     -0.1962
     83  CA       -34.4080    3.2690  -82.9400 C.3   112  TRP112      0.1771
     84  C        -34.6400    2.9080  -84.3910 C.2   112  TRP112      0.2619
     85  O        -35.7240    2.4710  -84.7430 O.2   112  TRP112     -0.2715
     86  CB       -34.1380    1.9780  -82.1520 C.3   112  TRP112      0.0590
     87  CG       -33.6740    2.2170  -80.7620 C.ar  112  TRP112      0.0006
     88  CD1      -34.3350    1.9060  -79.6200 C.ar  112  TRP112      0.0946
     89  CD2      -32.4560    2.8430  -80.3670 C.ar  112  TRP112      0.0152
     90  NE1      -33.6080    2.2950  -78.5340 N.ar  112  TRP112     -0.2442
     91  CE2      -32.4480    2.8800  -78.9620 C.ar  112  TRP112      0.0810
     92  CE3      -31.3690    3.3780  -81.0650 C.ar  112  TRP112      0.0012
     93  CZ2      -31.3900    3.4260  -78.2340 C.ar  112  TRP112      0.0191
     94  CZ3      -30.3210    3.9190  -80.3490 C.ar  112  TRP112      0.0001
     95  CH2      -30.3390    3.9400  -78.9440 C.ar  112  TRP112      0.0015
     96  N        -33.6210    3.1050  -85.2210 N.am  113  ASP113     -0.1971
     97  CA       -33.6410    2.6810  -86.6190 C.3   113  ASP113      0.1709
     98  C        -32.6110    1.5860  -86.8450 C.2   113  ASP113      0.2293
     99  O        -31.5990    1.5360  -86.1540 O.2   113  ASP113     -0.2864
    100  CB       -33.3540    3.8630  -87.5410 C.3   113  ASP113      0.1436
    101  CG       -33.7110    3.5600  -88.9700 C.2   113  ASP113      0.3671
    102  OD1      -34.9130    3.3100  -89.2150 O.co2 113  ASP113     -0.2456
    103  OD2      -32.8070    3.5510  -89.8400 O.co2 113  ASP113     -0.2456
    104  N        -34.1060    5.1680  -98.1550 N.3   120  ARG120     -0.1245
    105  CA       -34.8090    5.3150  -96.8810 C.3   120  ARG120      0.1563
    106  C        -35.0720    6.7500  -96.4530 C.2   120  ARG120      0.2260
    107  O        -35.9130    6.9840  -95.5890 O.2   120  ARG120     -0.2867
    108  CB       -34.0410    4.5990  -95.7950 C.3   120  ARG120      0.0307
    109  CG       -34.0200    3.0900  -96.0220 C.3   120  ARG120      0.0489
    110  CD       -34.0730    2.3260  -94.7190 C.3   120  ARG120      0.2205
    111  NE       -35.1080    2.8740  -93.8490 N.pl3 120  ARG120     -0.0865
    112  CZ       -35.2030    2.6720  -92.5430 C.cat 120  ARG120      0.5346
    113  NH1      -34.3320    1.8950  -91.8950 N.pl3 120  ARG120      0.1354
    114  NH2      -36.1880    3.2620  -91.8830 N.pl3 120  ARG120      0.1354
    115  N        -36.6110    8.8140  -98.2840 N.3   122  TYR122     -0.1227
    116  CA       -37.7630    9.2650  -99.0590 C.3   122  TYR122      0.1736
    117  C        -39.0700    8.7840  -98.4420 C.2   122  TYR122      0.2596
    118  O        -39.1930    7.6060  -98.0530 O.2   122  TYR122     -0.2718
    119  CB       -37.6500    8.8010 -100.5280 C.3   122  TYR122      0.0548
    120  CG       -36.4440    9.3730 -101.2520 C.ar  122  TYR122     -0.0200
    121  CD1      -36.2880   10.7490 -101.4030 C.ar  122  TYR122     -0.0009
    122  CD2      -35.4500    8.5370 -101.7760 C.ar  122  TYR122     -0.0009
    123  CE1      -35.1750   11.2830 -102.0530 C.ar  122  TYR122      0.0417
    124  CE2      -34.3350    9.0580 -102.4230 C.ar  122  TYR122      0.0417
    125  CZ       -34.2040   10.4300 -102.5600 C.ar  122  TYR122      0.1957
    126  OH       -33.1130   10.9670 -103.1990 O.3   122  TYR122     -0.2866
    127  N        -40.0290    9.7090  -98.3550 N.am  123  GLY123     -0.1942
    128  CA       -41.3790    9.4010  -97.8940 C.3   123  GLY123      0.2014
    129  C        -42.0160    8.3230  -98.7500 C.2   123  GLY123      0.2638
    130  O        -41.9260    8.3660  -99.9710 O.2   123  GLY123     -0.2714
    131  N        -42.6540    7.3550  -98.1020 N.am  124  ARG124     -0.1977
    132  CA       -43.2130    6.1810  -98.7710 C.3   124  ARG124      0.1597
    133  C        -44.7080    6.2780  -99.1000 C.2   124  ARG124      0.2287
    134  O        -45.3100    5.3010  -99.5460 O.2   124  ARG124     -0.2864
    135  CB       -42.9430    4.9480  -97.9180 C.3   124  ARG124      0.0334
    136  CG       -41.4630    4.6980  -97.7240 C.3   124  ARG124      0.0492
    137  CD       -41.2540    3.5260  -96.8030 C.3   124  ARG124      0.2205
    138  NE       -39.8630    3.1030  -96.7720 N.pl3 124  ARG124     -0.0865
    139  CZ       -39.4060    2.0930  -96.0360 C.cat 124  ARG124      0.5346
    140  NH1      -40.2340    1.3970  -95.2580 N.pl3 124  ARG124      0.1354
    141  NH2      -38.1150    1.7730  -96.0740 N.pl3 124  ARG124      0.1354
    142  N        -44.7120   11.5630  -96.3430 N.3   130  GLN130     -0.1231
    143  CA       -44.8440   10.4290  -95.4240 C.3   130  GLN130      0.1698
    144  C        -46.2250    9.7980  -95.5090 C.2   130  GLN130      0.2592
    145  O        -47.2060   10.4840  -95.7790 O.2   130  GLN130     -0.2718
    146  CB       -44.5720   10.8600  -93.9770 C.3   130  GLN130      0.0381
    147  CG       -43.1150   11.1870  -93.6340 C.3   130  GLN130      0.0905
    148  CD       -42.8020   10.9080  -92.1840 C.2   130  GLN130      0.2608
    149  OE1      -42.8180   11.8130  -91.3450 O.2   130  GLN130     -0.2717
    150  NE2      -42.5430    9.6310  -91.8770 N.am  130  GLN130     -0.0878
    151  N        -46.2940    8.5000  -95.2360 N.am  131  VAL131     -0.1966
    152  CA       -47.5670    7.7520  -95.1900 C.3   131  VAL131      0.1727
    153  C        -48.5520    8.3830  -94.2070 C.2   131  VAL131      0.2616
    154  O        -49.7230    8.5500  -94.5050 O.2   131  VAL131     -0.2715
    155  CB       -47.3250    6.2760  -94.7930 C.3   131  VAL131      0.0290
    156  CG1      -48.6350    5.5590  -94.4700 C.3   131  VAL131      0.0023
    157  CG2      -46.5580    5.5380  -95.8830 C.3   131  VAL131      0.0023
    158  N        -48.0610    8.7210  -93.0220 N.am  132  ARG132     -0.1977
    159  CA       -48.8540    9.3970  -91.9900 C.3   132  ARG132      0.1597
    160  C        -49.5410   10.6920  -92.4850 C.2   132  ARG132      0.2287
    161  O        -50.6310   11.0270  -92.0130 O.2   132  ARG132     -0.2864
    162  CB       -47.9820    9.6930  -90.7600 C.3   132  ARG132      0.0334
    163  CG       -47.4400    8.4630  -90.0080 C.3   132  ARG132      0.0492
    164  CD       -46.2570    8.7870  -89.0850 C.3   132  ARG132      0.2205
    165  NE       -46.3800   10.1110  -88.4450 N.pl3 132  ARG132     -0.0865
    166  CZ       -45.3750   10.8560  -87.9650 C.cat 132  ARG132      0.5346
    167  NH1      -44.1090   10.4370  -88.0090 N.pl3 132  ARG132      0.1354
    168  NH2      -45.6570   12.0530  -87.4560 N.pl3 132  ARG132      0.1354
@<TRIPOS>BOND
     1   126   125    1
     2   125   124   ar
     3   125   123   ar
     4   124   122   ar
     5   123   121   ar
     6   122   120   ar
     7   121   120   ar
     8   120   119    1
     9   119   116    1
    10   130   129    2
    11   134   133    2
    12   133   132    1
    13   116   117    1
    14   116   115    1
    15   132   131    1
    16   132   135    1
    17   129   131   am
    18   129   128    1
    19   117   127   am
    20   117   118    2
    21   127   128    1
    22   104   105    1
    23   135   136    1
    24   136   137    1
    25   105   106    1
    26   105   108    1
    27   137   138    1
    28   138   139    2
    29   106   107    2
    30   142   143    1
    31   141   139    1
    32   139   140    1
    33   109   108    1
    34   109   110    1
    35   157   155    1
    36   145   144    2
    37   144   143    1
    38   144   151   am
    39   143   146    1
    40   151   152    1
    41   152   155    1
    42   152   153    1
    43   155   156    1
    44   110   111    1
    45   154   153    2
    46    51    49   ar
    47    51    50   ar
    48    49    47   ar
    49   153   158   am
    50   146   147    1
    51    20    18   ar
    52   111   112    2
    53    19    18   ar
    54   147   148    1
    55    50    48   ar
    56    18    17    1
    57    47    46   ar
    58   158   159    1
    59    61    59   ar
    60    61    62   ar
    61   112   113    1
    62   112   114    1
    63   160   161    2
    64   160   159    1
    65    15    16    2
    66    15    14    1
    67   148   150   am
    68   148   149    2
    69    48    46   ar
    70    46    45    1
    71    59    57   ar
    72   159   162    1
    73    62    60   ar
    74    17    14    1
    75    44    43    2
    76    14    13    1
    77    41    42    1
    78    12    11    1
    79    43    42    1
    80   162   163    1
    81    45    42    1
    82    57    56    1
    83    57    58   ar
    84    60    58   ar
    85    56    53    1
    86   163   164    1
    87    11    10   ar
    88    11     9   ar
    89    52    53    1
    90   103   101   ar
    91    10     8   ar
    92   102   101   ar
    93    37    35   ar
    94    37    39   ar
    95    53    54    1
    96   164   165    1
    97    55    54    2
    98     9     7   ar
    99   101   100    1
   100    35    34   ar
   101    40    39    1
   102   165   166    2
   103    39    38   ar
   104     8     6   ar
   105   167   166    1
   106   166   168    1
   107     7     6   ar
   108   100    97    1
   109    34    33    1
   110    34    36   ar
   111     6     5    1
   112    33    30    1
   113    38    36   ar
   114    98    97    1
   115    98    99    2
   116    30    29    1
   117    30    31    1
   118    97    96    1
   119     3     2    1
   120     3     4    2
   121     5     2    1
   122    31    32    2
   123     2     1    1
   124    96    84   am
   125    28    26    1
   126    85    84    2
   127    26    27    1
   128    26    25    1
   129    84    83    1
   130    21    22    1
   131    81    79   ar
   132    72    71    1
   133    77    76    2
   134    22    25    1
   135    22    23    1
   136    78    79    1
   137    78    75    1
   138    66    65    2
   139    79    80   ar
   140    83    82    1
   141    83    86    1
   142    76    82   am
   143    76    75    1
   144    71    73    1
   145    71    70    2
   146    74    75    1
   147    86    87    1
   148    23    24    2
   149    65    64    1
   150    70    69    1
   151    69    68    1
   152    63    64    1
   153    67    64    1
   154    67    68    1
   155    92    89   ar
   156    92    94   ar
   157    87    89   ar
   158    87    88   ar
   159    89    91   ar
   160    94    95   ar
   161    88    90   ar
   162    91    90   ar
   163    91    93   ar
   164    95    93   ar
