@<TRIPOS>MOLECULE
tmp/5oocC00.pdb
 87 80 0 0 0
SMALL
GASTEIGER

@<TRIPOS>ATOM
      1  N        154.4000  135.8260  151.5640 N.3    68  GLU68      -0.1245
      2  CA       153.1570  136.5670  151.6810 C.3    68  GLU68       0.1567
      3  C        152.9250  136.9950  153.1030 C.2    68  GLU68       0.2260
      4  O        152.6950  136.1620  153.9730 O.2    68  GLU68      -0.2867
      5  CB       151.9810  135.7260  151.2360 C.3    68  GLU68       0.0388
      6  CG       150.6450  136.4110  151.4480 C.3    68  GLU68       0.1160
      7  CD       149.4720  135.5610  151.0570 C.2    68  GLU68       0.3649
      8  OE1      149.6750  134.5430  150.4420 O.co2  68  GLU68      -0.2457
      9  OE2      148.3680  135.9250  151.3860 O.co2  68  GLU68      -0.2457
     10  N        154.9730  135.1880  155.5650 N.3    70  ILE70      -0.1231
     11  CA       154.8960  133.7430  155.5130 C.3    70  ILE70       0.1692
     12  C        155.4700  133.1690  154.2500 C.2    70  ILE70       0.2592
     13  O        155.1600  133.6200  153.1550 O.2    70  ILE70      -0.2718
     14  CB       153.4510  133.3010  155.6400 C.3    70  ILE70       0.0266
     15  CG1      152.9310  133.7060  157.0040 C.3    70  ILE70       0.0019
     16  CG2      153.3150  131.8100  155.4060 C.3    70  ILE70       0.0020
     17  CD1      151.4510  133.5330  157.1420 C.3    70  ILE70       0.0001
     18  N        156.2990  132.1540  154.3780 N.am   71  ILE71      -0.1966
     19  CA       156.8340  131.5380  153.1850 C.3    71  ILE71       0.1727
     20  C        155.8320  130.5650  152.6430 C.2    71  ILE71       0.2616
     21  O        155.5300  129.5510  153.2690 O.2    71  ILE71      -0.2715
     22  CB       158.1360  130.8190  153.4450 C.3    71  ILE71       0.0290
     23  CG1      159.1780  131.8030  153.9470 C.3    71  ILE71       0.0022
     24  CG2      158.5910  130.1630  152.1570 C.3    71  ILE71       0.0023
     25  CD1      160.4160  131.1410  154.4900 C.3    71  ILE71       0.0001
     26  N        155.2970  130.8900  151.4860 N.am   72  THR72      -0.1951
     27  CA       154.2640  130.0940  150.8710 C.3    72  THR72       0.1897
     28  C        154.8330  129.1880  149.8100 C.2    72  THR72       0.2313
     29  O        154.4680  128.0160  149.7210 O.2    72  THR72      -0.2863
     30  CB       153.2220  130.9920  150.2210 C.3    72  THR72       0.1794
     31  OG1      153.8430  131.7250  149.1590 O.3    72  THR72      -0.2208
     32  CG2      152.6690  131.9690  151.2400 C.3    72  THR72       0.0378
     33  N        155.2600  136.6030  165.7200 N.3   105  LEU105     -0.1245
     34  CA       153.9280  136.0460  165.5610 C.3   105  LEU105      0.1561
     35  C        153.7230  135.3130  164.2420 C.2   105  LEU105      0.2260
     36  O        152.5920  135.1750  163.7820 O.2   105  LEU105     -0.2867
     37  CB       152.8830  137.1520  165.7040 C.3   105  LEU105      0.0270
     38  CG       153.0130  137.9940  166.9750 C.3   105  LEU105      0.0019
     39  CD1      151.9240  139.0510  167.0010 C.3   105  LEU105      0.0001
     40  CD2      152.9250  137.0830  168.1810 C.3   105  LEU105      0.0001
     41  N        153.6090  131.8580  161.9870 N.3   107  PRO107     -0.2116
     42  CA       153.2440  130.4870  162.1930 C.3   107  PRO107      0.1372
     43  C        154.5110  129.7160  162.4220 C.2   107  PRO107      0.2244
     44  O        155.4940  129.9160  161.7090 O.2   107  PRO107     -0.2868
     45  CB       152.5180  130.1140  160.9140 C.3   107  PRO107      0.0268
     46  CG       151.8600  131.3850  160.5010 C.3   107  PRO107      0.0207
     47  CD       152.7760  132.4860  160.9570 C.3   107  PRO107      0.0892
     48  N        155.5000  126.8580  161.7730 N.3   109  ALA109     -0.1231
     49  CA       155.9430  126.0990  160.6240 C.3   109  ALA109      0.1694
     50  C        156.9740  126.8310  159.7800 C.2   109  ALA109      0.2592
     51  O        157.7770  126.1890  159.1090 O.2   109  ALA109     -0.2718
     52  CB       154.7530  125.7490  159.7620 C.3   109  ALA109      0.0304
     53  N        156.9600  128.1610  159.7880 N.am  110  ASN110     -0.1974
     54  CA       157.9250  128.9010  158.9970 C.3   110  ASN110      0.1688
     55  C        159.3000  128.7340  159.5600 C.2   110  ASN110      0.2292
     56  O        160.2130  128.2880  158.8710 O.2   110  ASN110     -0.2864
     57  CB       157.5850  130.3660  158.9480 C.3   110  ASN110      0.1181
     58  CG       156.4710  130.6670  158.0190 C.2   110  ASN110      0.2629
     59  OD1      156.6850  130.7480  156.8040 O.2   110  ASN110     -0.2716
     60  ND2      155.2940  130.8260  158.5600 N.am  110  ASN110     -0.0877
     61  N        151.1100  143.1950  165.5430 N.3   172  ARG172     -0.1245
     62  CA       151.3740  142.9360  164.1360 C.3   172  ARG172      0.1563
     63  C        150.2210  143.3300  163.2420 C.2   172  ARG172      0.2260
     64  O        149.0690  143.0030  163.5180 O.2   172  ARG172     -0.2867
     65  CB       151.6690  141.4780  163.9330 C.3   172  ARG172      0.0307
     66  CG       151.9140  141.0520  162.5040 C.3   172  ARG172      0.0489
     67  CD       152.2800  139.6240  162.4670 C.3   172  ARG172      0.2205
     68  NE       152.4470  139.1120  161.1240 N.pl3 172  ARG172     -0.0865
     69  CZ       153.2180  138.0480  160.8460 C.cat 172  ARG172      0.5346
     70  NH1      153.8690  137.4510  161.8080 N.pl3 172  ARG172      0.1354
     71  NH2      153.3700  137.5660  159.6270 N.pl3 172  ARG172      0.1354
     72  N        148.7920  143.5380  159.0860 N.3   174  ASP174     -0.1239
     73  CA       148.9680  143.1130  157.7080 C.3   174  ASP174      0.1674
     74  C        149.1720  144.3100  156.7910 C.2   174  ASP174      0.2266
     75  O        149.6600  144.1590  155.6750 O.2   174  ASP174     -0.2867
     76  CB       147.7790  142.2900  157.2240 C.3   174  ASP174      0.1410
     77  CG       147.7110  140.8960  157.8370 C.2   174  ASP174      0.3668
     78  OD1      148.7210  140.3910  158.2690 O.co2 174  ASP174     -0.2456
     79  OD2      146.6420  140.3350  157.8530 O.co2 174  ASP174     -0.2456
     80  N        140.9700  148.4620  155.6600 N.3   264  MET264     -0.1245
     81  CA       141.7140  147.8640  156.7360 C.3   264  MET264      0.1570
     82  C        141.1630  148.3850  158.0230 C.2   264  MET264      0.2261
     83  O        141.6370  149.3830  158.5620 O.2   264  MET264     -0.2867
     84  CB       143.1980  148.1620  156.6030 C.3   264  MET264      0.0387
     85  CG       144.0670  147.5480  157.6840 C.3   264  MET264      0.0595
     86  SD       144.1500  145.7530  157.5690 S.3   264  MET264     -0.1393
     87  CE       145.2130  145.5760  156.1380 C.3   264  MET264      0.0692
@<TRIPOS>BOND
     1    31    30    1
     2    29    28    2
     3    28    27    1
     4    30    27    1
     5    30    32    1
     6     8     7   ar
     7    27    26    1
     8     7     9   ar
     9     7     6    1
    10     5     6    1
    11     5     2    1
    12    26    20   am
    13     1     2    1
    14     2     3    1
    15    24    22    1
    16    20    19    1
    17    20    21    2
    18     3     4    2
    19    13    12    2
    20    19    22    1
    21    19    18    1
    22    22    23    1
    23    23    25    1
    24    12    18   am
    25    12    11    1
    26    16    14    1
    27    11    10    1
    28    11    14    1
    29    14    15    1
    30    80    81    1
    31    75    74    2
    32    87    86    1
    33    84    81    1
    34    84    85    1
    35    81    82    1
    36    74    73    1
    37    59    58    2
    38    15    17    1
    39    76    73    1
    40    76    77    1
    41    86    85    1
    42    73    72    1
    43    77    79   ar
    44    77    78   ar
    45    58    60   am
    46    58    57    1
    47    82    83    2
    48    56    55    2
    49    57    54    1
    50    54    55    1
    51    54    53    1
    52    51    50    2
    53    71    69    1
    54    52    49    1
    55    50    53   am
    56    50    49    1
    57    46    45    1
    58    46    47    1
    59    49    48    1
    60    69    68    2
    61    69    70    1
    62    45    42    1
    63    47    41    1
    64    68    67    1
    65    44    43    2
    66    41    42    1
    67    42    43    1
    68    67    66    1
    69    66    65    1
    70    63    64    2
    71    63    62    1
    72    36    35    2
    73    65    62    1
    74    62    61    1
    75    35    34    1
    76    34    37    1
    77    34    33    1
    78    37    38    1
    79    38    39    1
    80    38    40    1
