@<TRIPOS>MOLECULE
tmp/5oocC02.pdb
 122 117 0 0 0
SMALL
GASTEIGER

@<TRIPOS>ATOM
      1  N        144.7230  154.7850  138.5500 N.3   189  THR189     -0.1218
      2  CA       143.6140  154.5350  137.6550 C.3   189  THR189      0.1862
      3  C        142.7190  155.7540  137.4510 C.2   189  THR189      0.2287
      4  O        142.1490  155.9230  136.3770 O.2   189  THR189     -0.2866
      5  CB       142.7600  153.3850  138.1660 C.3   189  THR189      0.1770
      6  OG1      143.5560  152.1970  138.2670 O.3   189  THR189     -0.2211
      7  CG2      141.6230  153.1440  137.2100 C.3   189  THR189      0.0375
      8  N        143.5120  158.6850  136.9000 N.3   191  ARG191     -0.1231
      9  CA       144.0980  159.4950  135.8490 C.3   191  ARG191      0.1694
     10  C        144.3630  158.7200  134.5730 C.2   191  ARG191      0.2593
     11  O        145.0570  159.2180  133.6890 O.2   191  ARG191     -0.2718
     12  CB       145.4190  160.0770  136.2880 C.3   191  ARG191      0.0321
     13  CG       145.3940  161.1600  137.3420 C.3   191  ARG191      0.0489
     14  CD       146.7860  161.5860  137.6380 C.3   191  ARG191      0.2205
     15  NE       146.8650  162.6130  138.6520 N.pl3 191  ARG191     -0.0865
     16  CZ       146.9010  163.9370  138.4080 C.cat 191  ARG191      0.5346
     17  NH1      146.8650  164.3930  137.1770 N.pl3 191  ARG191      0.1354
     18  NH2      146.9850  164.7730  139.4210 N.pl3 191  ARG191      0.1354
     19  N        143.8430  157.5040  134.4650 N.am  192  GLY192     -0.1942
     20  CA       144.0610  156.7310  133.2570 C.3   192  GLY192      0.2014
     21  C        145.2820  155.8460  133.2980 C.2   192  GLY192      0.2639
     22  O        145.5910  155.1610  132.3230 O.2   192  GLY192     -0.2714
     23  N        145.9950  155.8310  134.4040 N.am  193  TYR193     -0.1959
     24  CA       147.2260  155.0860  134.4000 C.3   193  TYR193      0.1771
     25  C        146.9880  153.6880  134.9000 C.2   193  TYR193      0.2620
     26  O        147.1800  153.3920  136.0760 O.2   193  TYR193     -0.2715
     27  CB       148.2600  155.7990  135.2320 C.3   193  TYR193      0.0574
     28  CG       148.5760  157.1770  134.7280 C.ar  193  TYR193     -0.0198
     29  CD1      148.4000  158.2660  135.5500 C.ar  193  TYR193     -0.0009
     30  CD2      149.0330  157.3530  133.4440 C.ar  193  TYR193     -0.0009
     31  CE1      148.7000  159.5290  135.0920 C.ar  193  TYR193      0.0417
     32  CE2      149.3360  158.6150  132.9820 C.ar  193  TYR193      0.0417
     33  CZ       149.1760  159.7010  133.8060 C.ar  193  TYR193      0.1957
     34  OH       149.4980  160.9640  133.3680 O.3   193  TYR193     -0.2866
     35  N        146.5470  152.8330  133.9970 N.am  194  SER194     -0.1936
     36  CA       146.2350  151.4640  134.3530 C.3   194  SER194      0.2055
     37  C        147.4580  150.5830  134.4360 C.2   194  SER194      0.2643
     38  O        148.2360  150.4930  133.4930 O.2   194  SER194     -0.2714
     39  CB       145.2860  150.8770  133.3540 C.3   194  SER194      0.2130
     40  OG       145.0640  149.5220  133.6230 O.3   194  SER194     -0.2179
     41  N        147.6010  149.9040  135.5580 N.am  195  PHE195     -0.1959
     42  CA       148.6730  148.9420  135.7650 C.3   195  PHE195      0.1771
     43  C        148.0700  147.6510  136.2690 C.2   195  PHE195      0.2619
     44  O        147.3110  147.6720  137.2360 O.2   195  PHE195     -0.2715
     45  CB       149.6820  149.4620  136.7780 C.3   195  PHE195      0.0574
     46  CG       150.4250  150.6930  136.3620 C.ar  195  PHE195     -0.0200
     47  CD1      149.9900  151.9360  136.7660 C.ar  195  PHE195     -0.0042
     48  CD2      151.5640  150.6190  135.5820 C.ar  195  PHE195     -0.0042
     49  CE1      150.6760  153.0730  136.4050 C.ar  195  PHE195     -0.0003
     50  CE2      152.2510  151.7500  135.2200 C.ar  195  PHE195     -0.0003
     51  CZ       151.8060  152.9790  135.6330 C.ar  195  PHE195     -0.0000
     52  N        148.3590  146.5320  135.6130 N.am  196  VAL196     -0.1963
     53  CA       147.7470  145.2770  136.0260 C.3   196  VAL196      0.1727
     54  C        148.6990  144.0850  136.1200 C.2   196  VAL196      0.2616
     55  O        148.4320  143.1550  136.8810 O.2   196  VAL196     -0.2715
     56  CB       146.6060  144.9050  135.0650 C.3   196  VAL196      0.0290
     57  CG1      145.5210  145.9740  135.0780 C.3   196  VAL196      0.0023
     58  CG2      147.1490  144.7260  133.6640 C.3   196  VAL196      0.0023
     59  N        149.7870  144.0790  135.3540 N.am  197  THR197     -0.1951
     60  CA       150.6690  142.9120  135.3700 C.3   197  THR197      0.1897
     61  C        151.6610  143.0120  136.4860 C.2   197  THR197      0.2313
     62  O        151.8020  144.0680  137.0920 O.2   197  THR197     -0.2863
     63  CB       151.4480  142.7420  134.0600 C.3   197  THR197      0.1794
     64  OG1      152.3940  143.8100  133.9080 O.3   197  THR197     -0.2208
     65  CG2      150.4960  142.7460  132.8820 C.3   197  THR197      0.0378
     66  N        154.1080  145.5360  135.7150 N.3   200  GLU200     -0.1245
     67  CA       153.5430  146.8320  135.9730 C.3   200  GLU200      0.1567
     68  C        153.5020  147.1570  137.4580 C.2   200  GLU200      0.2260
     69  O        153.7620  148.2970  137.8370 O.2   200  GLU200     -0.2867
     70  CB       152.1760  146.8950  135.3230 C.3   200  GLU200      0.0388
     71  CG       152.2770  147.0190  133.8090 C.3   200  GLU200      0.1160
     72  CD       150.9750  146.9230  133.0690 C.2   200  GLU200      0.3649
     73  OE1      150.0800  146.2620  133.5320 O.co2 200  GLU200     -0.2457
     74  OE2      150.8800  147.5090  132.0180 O.co2 200  GLU200     -0.2457
     75  N        156.7550  148.5270  138.3960 N.3   203  ILE203     -0.1245
     76  CA       156.8980  149.9150  138.0030 C.3   203  ILE203      0.1561
     77  C        156.2570  150.8460  138.9960 C.2   203  ILE203      0.2260
     78  O        156.8400  151.8700  139.3500 O.2   203  ILE203     -0.2867
     79  CB       156.2950  150.1670  136.6390 C.3   203  ILE203      0.0252
     80  CG1      157.1250  149.4510  135.5900 C.3   203  ILE203      0.0019
     81  CG2      156.2340  151.6600  136.3760 C.3   203  ILE203      0.0019
     82  CD1      156.4620  149.3970  134.2470 C.3   203  ILE203      0.0001
     83  N        158.3890  156.6650  132.2610 N.3   237  LEU237     -0.1245
     84  CA       158.2800  155.2270  132.1510 C.3   237  LEU237      0.1561
     85  C        159.4230  154.6200  131.3770 C.2   237  LEU237      0.2260
     86  O        160.1640  155.3250  130.6990 O.2   237  LEU237     -0.2867
     87  CB       156.9660  154.8800  131.4700 C.3   237  LEU237      0.0270
     88  CG       155.7290  155.1750  132.2950 C.3   237  LEU237      0.0019
     89  CD1      154.4880  155.0150  131.4360 C.3   237  LEU237      0.0001
     90  CD2      155.7090  154.1960  133.4530 C.3   237  LEU237      0.0001
     91  N        159.3750  153.0120  128.6670 N.3   239  ASP239     -0.1239
     92  CA       159.2950  153.2300  127.2360 C.3   239  ASP239      0.1674
     93  C        159.3000  154.6970  126.8620 C.2   239  ASP239      0.2266
     94  O        158.9770  155.0350  125.7270 O.2   239  ASP239     -0.2867
     95  CB       158.0450  152.6340  126.6510 C.3   239  ASP239      0.1410
     96  CG       156.8310  153.4150  127.0810 C.2   239  ASP239      0.3668
     97  OD1      156.9870  154.3570  127.8200 O.co2 239  ASP239     -0.2456
     98  OD2      155.7510  153.0670  126.6750 O.co2 239  ASP239     -0.2456
     99  N        157.3490  157.1600  127.9060 N.3   241  GLN241     -0.1231
    100  CA       156.1370  157.9240  128.1280 C.3   241  GLN241      0.1698
    101  C        156.1710  158.5860  129.4790 C.2   241  GLN241      0.2592
    102  O        156.8110  158.1010  130.4050 O.2   241  GLN241     -0.2718
    103  CB       154.9060  157.0510  128.0140 C.3   241  GLN241      0.0381
    104  CG       154.6290  156.5600  126.6190 C.3   241  GLN241      0.0905
    105  CD       153.3000  155.8570  126.5370 C.2   241  GLN241      0.2608
    106  OE1      152.2490  156.5030  126.5030 O.2   241  GLN241     -0.2717
    107  NE2      153.3300  154.5340  126.5070 N.am  241  GLN241     -0.0878
    108  N        155.4900  159.7100  129.5990 N.am  242  VAL242     -0.1966
    109  CA       155.5270  160.4390  130.8470 C.3   242  VAL242      0.1727
    110  C        154.1980  160.4790  131.5640 C.2   242  VAL242      0.2616
    111  O        153.1530  160.7470  130.9740 O.2   242  VAL242     -0.2715
    112  CB       156.0230  161.8550  130.6120 C.3   242  VAL242      0.0290
    113  CG1      155.9690  162.6400  131.9050 C.3   242  VAL242      0.0023
    114  CG2      157.4470  161.7930  130.0960 C.3   242  VAL242      0.0023
    115  N        154.2700  160.2040  132.8500 N.am  243  ILE243     -0.1977
    116  CA       153.1560  160.1990  133.7640 C.3   243  ILE243      0.1596
    117  C        153.1410  161.4310  134.6320 C.2   243  ILE243      0.2287
    118  O        154.1820  161.8500  135.1260 O.2   243  ILE243     -0.2864
    119  CB       153.2300  158.9670  134.6580 C.3   243  ILE243      0.0276
    120  CG1      152.9810  157.7160  133.8540 C.3   243  ILE243      0.0022
    121  CG2      152.2930  159.0650  135.8220 C.3   243  ILE243      0.0022
    122  CD1      153.1410  156.4790  134.6820 C.3   243  ILE243      0.0001
@<TRIPOS>BOND
     1    94    93    2
     2   106   105    2
     3   107   105   am
     4   105   104    1
     5   104   103    1
     6    95    96    1
     7    95    92    1
     8    98    96   ar
     9    93    92    1
    10    96    97   ar
    11    92    91    1
    12    99   100    1
    13   103   100    1
    14   100   101    1
    15   101   108   am
    16   101   102    2
    17   108   109    1
    18   114   112    1
    19   112   109    1
    20   112   113    1
    21    86    85    2
    22   109   110    1
    23   111   110    2
    24    85    84    1
    25    89    88    1
    26    87    84    1
    27    87    88    1
    28   110   115   am
    29    74    72   ar
    30    84    83    1
    31    88    90    1
    32    22    21    2
    33   115   116    1
    34    65    63    1
    35    32    30   ar
    36    32    33   ar
    37    72    73   ar
    38    72    71    1
    39    20    21    1
    40    20    19    1
    41    21    23   am
    42    39    40    1
    43    39    36    1
    44    34    33    1
    45    30    28   ar
    46    38    37    2
    47    58    56    1
    48    11    10    2
    49   116   117    1
    50   116   119    1
    51    33    31   ar
    52    71    70    1
    53   120   119    1
    54   120   122    1
    55    64    63    1
    56    35    36    1
    57    35    25   am
    58    63    60    1
    59    82    80    1
    60    36    37    1
    61    24    23    1
    62    24    25    1
    63    24    27    1
    64    37    41   am
    65    19    10   am
    66    10     9    1
    67   117   118    2
    68   119   121    1
    69    28    27    1
    70    28    29   ar
    71    25    26    2
    72    56    57    1
    73    56    53    1
    74    31    29   ar
    75    50    48   ar
    76    50    51   ar
    77    70    67    1
    78    59    60    1
    79    59    54   am
    80    60    61    1
    81    41    42    1
    82    48    46   ar
    83    80    79    1
    84    52    53    1
    85    52    43   am
    86    51    49   ar
    87    66    67    1
    88    42    43    1
    89    42    45    1
    90     9    12    1
    91     9     8    1
    92    67    68    1
    93    53    54    1
    94    54    55    2
    95    43    44    2
    96    12    13    1
    97    46    47   ar
    98    46    45    1
    99    81    79    1
   100     4     3    2
   101    49    47   ar
   102    61    62    2
   103    79    76    1
   104    17    16    1
   105     7     5    1
   106    13    14    1
   107     3     2    1
   108    68    69    2
   109    14    15    1
   110     2     5    1
   111     2     1    1
   112    76    75    1
   113    76    77    1
   114     5     6    1
   115    16    15    2
   116    16    18    1
   117    77    78    2
