@<TRIPOS>MOLECULE
tmp/5oogA00.pdb
 157 154 0 0 0
SMALL
GASTEIGER

@<TRIPOS>ATOM
      1  N         24.9280   -1.9340    4.3990 N.3    13  GLN13      -0.1245
      2  CA        24.0240   -1.7150    3.2850 C.3    13  GLN13       0.1566
      3  C         23.1100   -0.5280    3.5470 C.2    13  GLN13       0.2260
      4  O         22.9480    0.3760    2.7050 O.2    13  GLN13      -0.2867
      5  CB        23.2390   -3.0270    3.1200 C.3    13  GLN13       0.0367
      6  CG        21.9550   -2.9710    2.4930 C.3    13  GLN13       0.0905
      7  CD        21.3840   -4.3490    2.1890 C.2    13  GLN13       0.2608
      8  OE1       21.0950   -4.6230    1.0640 O.2    13  GLN13      -0.2717
      9  NE2       21.1700   -5.1930    3.2070 N.am   13  GLN13      -0.0878
     10  N         25.7660   -7.9410   11.1340 N.3    76  THR76      -0.1203
     11  CA        26.8360   -8.9300   11.0600 C.3    76  THR76       0.1994
     12  C         27.2730   -9.2450    9.6340 C.2    76  THR76       0.2617
     13  O         27.9290  -10.2660    9.4140 O.2    76  THR76      -0.2717
     14  CB        26.3670  -10.2070   11.7540 C.3    76  THR76       0.1784
     15  OG1       25.2520  -10.7310   11.0390 O.3    76  THR76      -0.2211
     16  CG2       25.9820   -9.9190   13.2070 C.3    76  THR76       0.0376
     17  N         26.8720   -8.4290    8.6570 N.am   77  ARG77      -0.1979
     18  CA        27.1510   -8.6870    7.2450 C.3    77  ARG77       0.1597
     19  C         26.6510  -10.0930    6.9300 C.2    77  ARG77       0.2287
     20  O         25.4720  -10.3850    7.1810 O.2    77  ARG77      -0.2864
     21  CB        28.5820   -8.3720    6.8780 C.3    77  ARG77       0.0334
     22  CG        28.8310   -6.8700    6.9120 C.3    77  ARG77       0.0492
     23  CD        30.1280   -6.5210    6.2570 C.3    77  ARG77       0.2205
     24  NE        30.3530   -5.0970    6.2450 N.pl3  77  ARG77      -0.0865
     25  CZ        29.8830   -4.2660    5.3220 C.cat  77  ARG77       0.5346
     26  NH1       30.1970   -3.0010    5.4080 N.pl3  77  ARG77       0.1354
     27  NH2       29.1220   -4.6990    4.3150 N.pl3  77  ARG77       0.1354
     28  N         26.1210  -15.4440   10.1290 N.3    80  LEU80      -0.1245
     29  CA        24.9240  -15.8610   10.8490 C.3    80  LEU80       0.1561
     30  C         25.2430  -16.6180   12.1250 C.2    80  LEU80       0.2260
     31  O         24.3390  -17.1910   12.7530 O.2    80  LEU80      -0.2867
     32  CB        24.0540  -16.7090    9.9320 C.3    80  LEU80       0.0270
     33  CG        23.6340  -16.0040    8.6320 C.3    80  LEU80       0.0019
     34  CD1       22.7860  -16.9410    7.8160 C.3    80  LEU80       0.0001
     35  CD2       22.8900  -14.6880    8.9060 C.3    80  LEU80       0.0001
     36  N         14.7170   -6.1470   13.5480 N.3   110  SER110     -0.1202
     37  CA        14.0610   -6.8140   12.4410 C.3   110  SER110      0.2020
     38  C         12.6100   -7.0850   12.7760 C.2   110  SER110      0.2619
     39  O         12.2200   -7.1500   13.9420 O.2   110  SER110     -0.2717
     40  CB        14.7460   -8.0940   12.0240 C.3   110  SER110      0.2103
     41  OG        14.0940   -9.2030   12.4810 O.3   110  SER110     -0.2182
     42  N         11.8290   -7.2690   11.7260 N.am  111  ALA111     -0.1965
     43  CA        10.4120   -7.6090   11.8500 C.3   111  ALA111      0.1728
     44  C         10.1830   -8.9340   12.5410 C.2   111  ALA111      0.2616
     45  O          9.0680   -9.1730   13.0170 O.2   111  ALA111     -0.2715
     46  CB         9.7400   -7.6330   10.4820 C.3   111  ALA111      0.0334
     47  N         11.1930   -9.8070   12.6180 N.am  112  PHE112     -0.1974
     48  CA        10.9930  -11.0430   13.3770 C.3   112  PHE112      0.1639
     49  C         10.6400  -10.7540   14.8270 C.2   112  PHE112      0.2290
     50  O         10.0160  -11.6060   15.4780 O.2   112  PHE112     -0.2864
     51  CB        12.2240  -11.9480   13.2710 C.3   112  PHE112      0.0560
     52  CG        12.4380  -12.5330   11.9010 C.ar  112  PHE112     -0.0200
     53  CD1       11.4330  -13.2040   11.2320 C.ar  112  PHE112     -0.0042
     54  CD2       13.6500  -12.4060   11.2700 C.ar  112  PHE112     -0.0042
     55  CE1       11.6590  -13.7400    9.9610 C.ar  112  PHE112     -0.0003
     56  CE2       13.8670  -12.9350   10.0130 C.ar  112  PHE112     -0.0003
     57  CZ        12.8590  -13.5880    9.3510 C.ar  112  PHE112     -0.0000
     58  N          6.7540  -10.4230   14.4490 N.3   115  TRP115     -0.1241
     59  CA         6.0210  -11.5280   13.8680 C.3   115  TRP115      0.1605
     60  C          6.0370  -12.7120   14.8360 C.2   115  TRP115      0.2264
     61  O          6.7370  -12.7150   15.8470 O.2   115  TRP115     -0.2867
     62  CB         6.6650  -11.8930   12.5360 C.3   115  TRP115      0.0550
     63  CG         6.5280  -10.8620   11.4380 C.ar  115  TRP115      0.0003
     64  CD1        5.5950   -9.8670   11.3240 C.ar  115  TRP115      0.0946
     65  CD2        7.3610  -10.7650   10.2790 C.ar  115  TRP115      0.0152
     66  NE1        5.8000   -9.1640   10.1490 N.ar  115  TRP115     -0.2442
     67  CE2        6.8840   -9.6910    9.4980 C.ar  115  TRP115      0.0810
     68  CE3        8.4690  -11.4740    9.8330 C.ar  115  TRP115      0.0012
     69  CZ2        7.4670   -9.3360    8.2950 C.ar  115  TRP115      0.0191
     70  CZ3        9.0610  -11.1100    8.6590 C.ar  115  TRP115      0.0001
     71  CH2        8.5570  -10.0500    7.8930 C.ar  115  TRP115      0.0015
     72  N         13.2960  -18.2330   10.4000 N.3   121  PRO121     -0.2116
     73  CA        14.0450  -19.2900    9.7190 C.3   121  PRO121      0.1372
     74  C         15.2100  -19.7440   10.5750 C.2   121  PRO121      0.2244
     75  O         15.9020  -18.9150   11.1670 O.2   121  PRO121     -0.2868
     76  CB        14.5310  -18.6000    8.4390 C.3   121  PRO121      0.0268
     77  CG        13.5380  -17.5380    8.2090 C.3   121  PRO121      0.0207
     78  CD        13.1740  -17.0300    9.5640 C.3   121  PRO121      0.0892
     79  N         18.2240  -20.5080   10.0590 N.3   123  ARG123     -0.1231
     80  CA        19.5250  -19.9020    9.7970 C.3   123  ARG123      0.1694
     81  C         19.6480  -18.4970   10.3830 C.2   123  ARG123      0.2591
     82  O         20.7660  -18.0250   10.5960 O.2   123  ARG123     -0.2718
     83  CB        19.8220  -19.8840    8.3030 C.3   123  ARG123      0.0321
     84  CG        18.9290  -19.0000    7.5070 C.3   123  ARG123      0.0489
     85  CD        19.0950  -19.2970    6.0280 C.3   123  ARG123      0.2205
     86  NE        18.8310  -18.1280    5.1960 N.pl3 123  ARG123     -0.0865
     87  CZ        19.7510  -17.2450    4.8200 C.cat 123  ARG123      0.5346
     88  NH1       19.3990  -16.2210    4.0610 N.pl3 123  ARG123      0.1354
     89  NH2       21.0150  -17.3770    5.1940 N.pl3 123  ARG123      0.1354
     90  N         18.5270  -17.8370   10.6660 N.am  124  LEU124     -0.1980
     91  CA        18.5310  -16.4880   11.2150 C.3   124  LEU124      0.1596
     92  C         18.2590  -16.4450   12.7130 C.2   124  LEU124      0.2287
     93  O         18.1850  -15.3500   13.2840 O.2   124  LEU124     -0.2864
     94  CB        17.4940  -15.6260   10.4800 C.3   124  LEU124      0.0297
     95  CG        17.7760  -15.4510    8.9900 C.3   124  LEU124      0.0022
     96  CD1       16.7060  -14.6770    8.3250 C.3   124  LEU124      0.0001
     97  CD2       19.0890  -14.7420    8.7720 C.3   124  LEU124      0.0001
     98  N         21.1710  -14.6620   14.9850 N.3   127  VAL127     -0.1245
     99  CA        21.1840  -13.2180   14.8530 C.3   127  VAL127      0.1561
    100  C         19.9390  -12.6180   15.5080 C.2   127  VAL127      0.2260
    101  O         20.0100  -11.5820   16.1850 O.2   127  VAL127     -0.2867
    102  CB        21.2990  -12.8420   13.3630 C.3   127  VAL127      0.0252
    103  CG1       20.9310  -11.3920   13.1420 C.3   127  VAL127      0.0019
    104  CG2       22.6910  -13.1500   12.8570 C.3   127  VAL127      0.0019
    105  N         19.4150   -9.6500   18.2700 N.3   131  HIS131     -0.1241
    106  CA        18.5260   -8.5070   18.1140 C.3   131  HIS131      0.1621
    107  C         17.5990   -8.3720   19.3100 C.2   131  HIS131      0.2264
    108  O         17.3480   -7.2580   19.7690 O.2   131  HIS131     -0.2867
    109  CB        17.6520   -8.6590   16.8660 C.3   131  HIS131      0.0745
    110  CG        18.3140   -8.3300   15.5660 C.ar  131  HIS131      0.0817
    111  ND1       18.0010   -9.0160   14.4180 N.ar  131  HIS131     -0.2268
    112  CD2       19.2320   -7.4040   15.2310 C.ar  131  HIS131      0.1154
    113  CE1       18.6970   -8.5130   13.4190 C.ar  131  HIS131      0.1986
    114  NE2       19.4620   -7.5470   13.8900 N.ar  131  HIS131     -0.2212
    115  N         12.4050   -3.7920   10.4970 N.3   150  PRO150     -0.2103
    116  CA        12.0570   -3.9130    9.0740 C.3   150  PRO150      0.1489
    117  C         11.9280   -5.3580    8.6330 C.2   150  PRO150      0.2418
    118  O         12.5740   -6.2630    9.1990 O.2   150  PRO150     -0.2734
    119  CB        13.2460   -3.2520    8.3730 C.3   150  PRO150      0.0282
    120  CG        14.3790   -3.4990    9.3100 C.3   150  PRO150      0.0208
    121  CD        13.7910   -3.3180   10.6790 C.3   150  PRO150      0.0893
    122  N         11.1710   -5.5860    7.5470 N.am  151  PRO151     -0.2718
    123  CA        11.2090   -6.8690    6.8430 C.3   151  PRO151      0.1535
    124  C         12.4250   -6.9400    5.9460 C.2   151  PRO151      0.2599
    125  O         13.4070   -6.2380    6.1790 O.2   151  PRO151     -0.2715
    126  CB         9.9000   -6.8320    6.0670 C.3   151  PRO151      0.0310
    127  CG         9.7730   -5.3700    5.6600 C.3   151  PRO151      0.0237
    128  CD        10.3390   -4.5900    6.8390 C.3   151  PRO151      0.0939
    129  N         12.3680   -7.7730    4.9110 N.am  152  HIS152     -0.1960
    130  CA        13.4940   -7.9060    4.0130 C.3   152  HIS152      0.1787
    131  C         13.9080   -6.5420    3.4710 C.2   152  HIS152      0.2620
    132  O         13.0650   -5.7590    3.0400 O.2   152  HIS152     -0.2715
    133  CB        13.1120   -8.7910    2.8420 C.3   152  HIS152      0.0785
    134  CG        14.2250   -8.9550    1.8680 C.ar  152  HIS152      0.0821
    135  ND1       15.4060   -9.5930    2.1850 N.ar  152  HIS152     -0.2267
    136  CD2       14.3650   -8.5090    0.5950 C.ar  152  HIS152      0.1154
    137  CE1       16.2040   -9.5770    1.1310 C.ar  152  HIS152      0.1986
    138  NE2       15.6020   -8.9200    0.1570 N.ar  152  HIS152     -0.2212
    139  N         15.2060   -6.2740    3.4950 N.am  153  ILE153     -0.1977
    140  CA        15.7650   -5.0170    3.0070 C.3   153  ILE153      0.1596
    141  C         16.1720   -5.2000    1.5490 C.2   153  ILE153      0.2287
    142  O         17.0440   -6.0200    1.2430 O.2   153  ILE153     -0.2864
    143  CB        16.9740   -4.5970    3.8540 C.3   153  ILE153      0.0276
    144  CG1       16.5440   -4.3390    5.3010 C.3   153  ILE153      0.0022
    145  CG2       17.6390   -3.3450    3.2600 C.3   153  ILE153      0.0022
    146  CD1       17.6970   -4.1070    6.2880 C.3   153  ILE153      0.0001
    147  N          6.1950   -7.2030    2.6270 N.3   173  ARG173     -0.1245
    148  CA         7.2890   -7.7360    3.4250 C.3   173  ARG173      0.1563
    149  C          8.6410   -7.3000    2.8580 C.2   173  ARG173      0.2260
    150  O          9.6320   -8.0180    2.9650 O.2   173  ARG173     -0.2867
    151  CB         7.2080   -9.2540    3.5810 C.3   173  ARG173      0.0307
    152  CG         5.9640   -9.6800    4.3560 C.3   173  ARG173      0.0489
    153  CD         6.0680  -11.0010    5.0850 C.3   173  ARG173      0.2205
    154  NE         5.0730  -11.0370    6.1710 N.pl3 173  ARG173     -0.0865
    155  CZ         5.0530  -11.9130    7.1780 C.cat 173  ARG173      0.5346
    156  NH1        4.1010  -11.8350    8.1090 N.pl3 173  ARG173      0.1354
    157  NH2        5.9790  -12.8620    7.2700 N.pl3 173  ARG173      0.1354
@<TRIPOS>BOND
     1   138   136   ar
     2   138   137   ar
     3   136   134   ar
     4     8     7    2
     5   137   135   ar
     6   142   141    2
     7   141   140    1
     8   134   135   ar
     9   134   133    1
    10     7     6    1
    11     7     9   am
    12     6     5    1
    13   147   148    1
    14     4     3    2
    15   133   130    1
    16   149   150    2
    17   149   148    1
    18   140   139    1
    19   140   143    1
    20   132   131    2
    21     5     2    1
    22   145   143    1
    23     2     3    1
    24     2     1    1
    25   148   151    1
    26   131   139   am
    27   131   130    1
    28   151   152    1
    29   143   144    1
    30   130   129    1
    31    88    87    1
    32    27    25    1
    33   152   153    1
    34    87    89    1
    35    87    86    2
    36   129   124   am
    37   153   154    1
    38    86    85    1
    39   144   146    1
    40    25    26    1
    41    25    24    2
    42   127   126    1
    43   127   128    1
    44   124   125    2
    45   124   123    1
    46    85    84    1
    47   126   123    1
    48   154   155    2
    49    24    23    1
    50    23    22    1
    51   128   122    1
    52   123   122    1
    53    21    22    1
    54    21    18    1
    55    19    20    2
    56    19    18    1
    57   155   157    1
    58   155   156    1
    59    18    17    1
    60    84    83    1
    61   122   117   am
    62    34    33    1
    63    71    69   ar
    64    71    70   ar
    65    77    76    1
    66    77    78    1
    67    69    67   ar
    68    83    80    1
    69    96    95    1
    70   119   116    1
    71   119   120    1
    72    76    73    1
    73    33    35    1
    74    33    32    1
    75   117   116    1
    76   117   118    2
    77    17    12   am
    78    70    68   ar
    79    97    95    1
    80    95    94    1
    81   116   115    1
    82   120   121    1
    83    57    55   ar
    84    57    56   ar
    85    13    12    2
    86    67    66   ar
    87    67    65   ar
    88    78    72    1
    89    12    11    1
    90    73    72    1
    91    73    74    1
    92    80    79    1
    93    80    81    1
    94    68    65   ar
    95    32    29    1
    96    55    53   ar
    97    56    54   ar
    98    28    29    1
    99    66    64   ar
   100    65    63   ar
   101    81    82    2
   102    81    90   am
   103    94    91    1
   104    46    43    1
   105   115   121    1
   106    74    75    2
   107    90    91    1
   108    29    30    1
   109    15    14    1
   110    11    10    1
   111    11    14    1
   112    91    92    1
   113    53    52   ar
   114    54    52   ar
   115    64    63   ar
   116    63    62    1
   117    42    43    1
   118    42    38   am
   119    14    16    1
   120    43    44    1
   121    52    51    1
   122    40    37    1
   123    40    41    1
   124    30    31    2
   125    37    38    1
   126    37    36    1
   127    62    59    1
   128    44    47   am
   129    44    45    2
   130    47    48    1
   131    92    93    2
   132    38    39    2
   133   104   102    1
   134   103   102    1
   135    51    48    1
   136   102    99    1
   137    48    49    1
   138   113   114   ar
   139   113   111   ar
   140    59    58    1
   141    59    60    1
   142   114   112   ar
   143   111   110   ar
   144    49    50    2
   145    60    61    2
   146    99    98    1
   147    99   100    1
   148   112   110   ar
   149   100   101    2
   150   110   109    1
   151   109   106    1
   152   106   105    1
   153   106   107    1
   154   107   108    2
