@<TRIPOS>MOLECULE
tmp/5oohA01.pdb
 149 145 0 0 0
SMALL
GASTEIGER

@<TRIPOS>ATOM
      1  N         38.9450   25.4090   22.5090 N.3    13  GLN13      -0.1245
      2  CA        38.7520   26.3180   23.6240 C.3    13  GLN13       0.1566
      3  C         37.5740   27.2590   23.3660 C.2    13  GLN13       0.2260
      4  O         36.6620   27.4130   24.1950 O.2    13  GLN13      -0.2867
      5  CB        40.0770   27.0940   23.7770 C.3    13  GLN13       0.0367
      6  CG        40.0280   28.4200   24.3590 C.3    13  GLN13       0.0905
      7  CD        41.3890   28.9730   24.6700 C.2    13  GLN13       0.2608
      8  OE1       41.6590   29.2160   25.8040 O.2    13  GLN13      -0.2717
      9  NE2       42.2250   29.2370   23.6580 N.am   13  GLN13      -0.0878
     10  N         41.6400   25.2020   14.6530 N.3    75  GLY75      -0.1210
     11  CA        42.9420   25.5750   15.1750 C.3    75  GLY75       0.1956
     12  C         43.7610   24.3330   15.3650 C.2    75  GLY75       0.2612
     13  O         43.3230   23.2290   15.0810 O.2    75  GLY75      -0.2717
     14  N         44.9460   24.5260   15.9000 N.am   76  THR76      -0.1952
     15  CA        45.9420   23.4640   15.9860 C.3    76  THR76       0.1897
     16  C         46.2450   23.0200   17.4230 C.2    76  THR76       0.2313
     17  O         47.2620   22.3480   17.6560 O.2    76  THR76      -0.2863
     18  CB        47.2210   23.9410   15.3120 C.3    76  THR76       0.1794
     19  OG1       47.7200   25.0500   16.0690 O.3    76  THR76      -0.2208
     20  CG2       46.9720   24.3120   13.8510 C.3    76  THR76       0.0378
     21  N         47.5520   24.5600   19.9630 N.3    78  ASN78      -0.1240
     22  CA        48.9010   24.9510   20.3840 C.3    78  ASN78       0.1653
     23  C         50.0420   24.1790   19.7120 C.2    78  ASN78       0.2266
     24  O         51.1900   24.3200   20.1380 O.2    78  ASN78      -0.2867
     25  CB        49.0790   24.8900   21.9070 C.3    78  ASN78       0.1155
     26  CG        48.1350   25.8190   22.6320 C.2    78  ASN78       0.2627
     27  OD1       47.6080   26.7630   22.0390 O.2    78  ASN78      -0.2716
     28  ND2       47.9070   25.5570   23.9140 N.am   78  ASN78      -0.0877
     29  N         52.4670   24.4820   16.9640 N.3    80  LEU80      -0.1245
     30  CA        52.9240   25.6590   16.2350 C.3    80  LEU80       0.1561
     31  C         53.6840   25.3010   14.9690 C.2    80  LEU80       0.2260
     32  O         54.2580   26.1790   14.3300 O.2    80  LEU80      -0.2867
     33  CB        53.7520   26.5620   17.1490 C.3    80  LEU80       0.0270
     34  CG        53.0050   27.0120   18.4150 C.3    80  LEU80       0.0019
     35  CD1       53.9160   27.8840   19.2840 C.3    80  LEU80       0.0001
     36  CD2       51.6710   27.7300   18.1170 C.3    80  LEU80       0.0001
     37  N         40.4610   33.9100   12.5620 N.3   109  THR109     -0.1203
     38  CA        41.9000   33.8240   12.3210 C.3   109  THR109      0.1994
     39  C         42.5690   34.4920   13.5130 C.2   109  THR109      0.2618
     40  O         42.4890   33.9300   14.6060 O.2   109  THR109     -0.2717
     41  CB        42.3130   34.3810   10.9630 C.3   109  THR109      0.1784
     42  OG1       41.8220   35.7070   10.7820 O.3   109  THR109     -0.2211
     43  CG2       41.8600   33.4750    9.8310 C.3   109  THR109      0.0376
     44  N         43.1830   35.6520   13.3600 N.am  110  SER110     -0.1951
     45  CA        43.8250   36.3060   14.4950 C.3   110  SER110      0.1924
     46  C         44.1000   37.7510   14.1390 C.2   110  SER110      0.2314
     47  O         44.2070   38.1260   12.9690 O.2   110  SER110     -0.2863
     48  CB        45.1290   35.6440   14.9180 C.3   110  SER110      0.2116
     49  OG        46.2160   36.2940   14.3790 O.3   110  SER110     -0.2180
     50  N         46.8120   39.1810   14.2710 N.3   112  PHE112     -0.1241
     51  CA        48.0460   39.3780   13.5170 C.3   112  PHE112      0.1605
     52  C         47.7640   39.7420   12.0720 C.2   112  PHE112      0.2264
     53  O         48.6460   40.3160   11.4190 O.2   112  PHE112     -0.2867
     54  CB        48.9570   38.1580   13.6560 C.3   112  PHE112      0.0534
     55  CG        49.5130   37.9910   15.0430 C.ar  112  PHE112     -0.0203
     56  CD1       50.3270   38.9680   15.6190 C.ar  112  PHE112     -0.0042
     57  CD2       49.2610   36.8470   15.7800 C.ar  112  PHE112     -0.0042
     58  CE1       50.8150   38.8110   16.8930 C.ar  112  PHE112     -0.0003
     59  CE2       49.7610   36.6920   17.0550 C.ar  112  PHE112     -0.0003
     60  CZ        50.5300   37.6740   17.6110 C.ar  112  PHE112     -0.0000
     61  N         47.3870   43.6270   12.5390 N.3   115  TRP115     -0.1241
     62  CA        48.5160   44.3370   13.1040 C.3   115  TRP115      0.1605
     63  C         49.6730   44.3240   12.1120 C.2   115  TRP115      0.2264
     64  O         49.6550   43.6010   11.1090 O.2   115  TRP115     -0.2867
     65  CB        48.9130   43.6700   14.4150 C.3   115  TRP115      0.0550
     66  CG        47.9040   43.7930   15.5150 C.ar  115  TRP115      0.0003
     67  CD1       46.9150   44.7430   15.6560 C.ar  115  TRP115      0.0946
     68  CD2       47.7940   42.9360   16.6570 C.ar  115  TRP115      0.0152
     69  NE1       46.2130   44.5260   16.8280 N.ar  115  TRP115     -0.2442
     70  CE2       46.7320   43.4160   17.4510 C.ar  115  TRP115      0.0810
     71  CE3       48.4820   41.8040   17.0770 C.ar  115  TRP115      0.0012
     72  CZ2       46.3740   42.8160   18.6450 C.ar  115  TRP115      0.0191
     73  CZ3       48.1120   41.1990   18.2620 C.ar  115  TRP115      0.0001
     74  CH2       47.0760   41.7100   19.0360 C.ar  115  TRP115      0.0015
     75  N         57.5010   32.3170   16.9460 N.3   123  ARG123     -0.1231
     76  CA        56.9060   31.0150   17.1870 C.3   123  ARG123      0.1694
     77  C         55.5050   30.8990   16.5870 C.2   123  ARG123      0.2591
     78  O         55.0410   29.7830   16.3670 O.2   123  ARG123     -0.2718
     79  CB        56.8690   30.6760   18.6870 C.3   123  ARG123      0.0321
     80  CG        55.8790   31.4610   19.5320 C.3   123  ARG123      0.0489
     81  CD        55.8760   30.9780   21.0150 C.3   123  ARG123      0.2205
     82  NE        54.9050   31.7110   21.8390 N.pl3 123  ARG123     -0.0865
     83  CZ        54.4260   31.2980   23.0120 C.cat 123  ARG123      0.5346
     84  NH1       53.5570   32.0540   23.6730 N.pl3 123  ARG123      0.1354
     85  NH2       54.8010   30.1370   23.5330 N.pl3 123  ARG123      0.1354
     86  N         54.8310   32.0150   16.3220 N.am  124  LEU124     -0.1980
     87  CA        53.4780   32.0050   15.7760 C.3   124  LEU124      0.1596
     88  C         53.4430   32.2360   14.2640 C.2   124  LEU124      0.2287
     89  O         52.3570   32.2930   13.6740 O.2   124  LEU124     -0.2864
     90  CB        52.6090   33.0480   16.4950 C.3   124  LEU124      0.0297
     91  CG        52.4300   32.8160   17.9970 C.3   124  LEU124      0.0022
     92  CD1       51.5740   33.8880   18.6200 C.3   124  LEU124      0.0001
     93  CD2       51.8270   31.4500   18.2700 C.3   124  LEU124      0.0001
     94  N         51.7150   29.2690   11.9900 N.3   127  VAL127     -0.1231
     95  CA        50.2660   29.2550   12.1080 C.3   127  VAL127      0.1692
     96  C         49.6620   30.4830   11.4450 C.2   127  VAL127      0.2592
     97  O         48.6400   30.3900   10.7580 O.2   127  VAL127     -0.2718
     98  CB        49.8600   29.1230   13.5860 C.3   127  VAL127      0.0266
     99  CG1       48.4060   29.4290   13.7770 C.3   127  VAL127      0.0020
    100  CG2       50.1990   27.7180   14.0750 C.3   127  VAL127      0.0020
    101  N         50.2850   31.6410   11.6260 N.am  128  THR128     -0.1953
    102  CA        49.8010   32.8620   11.0110 C.3   128  THR128      0.1897
    103  C         49.7930   32.7510    9.4890 C.2   128  THR128      0.2313
    104  O         48.8510   33.1960    8.8390 O.2   128  THR128     -0.2863
    105  CB        50.6190   34.0640   11.4950 C.3   128  THR128      0.1794
    106  OG1       50.4830   34.1960   12.9160 O.3   128  THR128     -0.2208
    107  CG2       50.1340   35.3180   10.8860 C.3   128  THR128      0.0378
    108  N         46.6820   30.9580    8.6990 N.3   131  HIS131     -0.1241
    109  CA        45.5460   31.8670    8.8420 C.3   131  HIS131      0.1621
    110  C         45.4120   32.7680    7.6340 C.2   131  HIS131      0.2264
    111  O         44.2940   33.0140    7.1660 O.2   131  HIS131     -0.2867
    112  CB        45.7200   32.7420   10.0750 C.3   131  HIS131      0.0745
    113  CG        45.4200   32.0800   11.3760 C.ar  131  HIS131      0.0817
    114  ND1       46.1100   32.4030   12.5210 N.ar  131  HIS131     -0.2268
    115  CD2       44.5080   31.1420   11.7110 C.ar  131  HIS131      0.1154
    116  CE1       45.6110   31.7010   13.5200 C.ar  131  HIS131      0.1986
    117  NE2       44.6470   30.9210   13.0560 N.ar  131  HIS131     -0.2212
    118  N         40.8210   37.9530   16.4210 N.3   150  PRO150     -0.2103
    119  CA        40.9430   38.3110   17.8360 C.3   150  PRO150      0.1489
    120  C         42.3900   38.4130   18.2830 C.2   150  PRO150      0.2418
    121  O         43.2900   37.7610   17.7070 O.2   150  PRO150     -0.2734
    122  CB        40.2680   37.1360   18.5550 C.3   150  PRO150      0.0282
    123  CG        40.4910   35.9760   17.6270 C.3   150  PRO150      0.0208
    124  CD        40.3630   36.5590   16.2510 C.3   150  PRO150      0.0893
    125  N         42.6200   39.1650   19.3520 N.am  151  PRO151     -0.2718
    126  CA        43.9010   39.1270   20.0710 C.3   151  PRO151      0.1535
    127  C         43.9500   37.8980   20.9590 C.2   151  PRO151      0.2599
    128  O         43.2150   36.9330   20.7410 O.2   151  PRO151     -0.2715
    129  CB        43.8480   40.4200   20.8610 C.3   151  PRO151      0.0310
    130  CG        42.4040   40.5040   21.2620 C.3   151  PRO151      0.0237
    131  CD        41.6270   39.9980   20.0580 C.3   151  PRO151      0.0939
    132  N         44.8130   37.9250   21.9690 N.am  152  HIS152     -0.1960
    133  CA        44.9440   36.7850   22.8510 C.3   152  HIS152      0.1787
    134  C         43.5870   36.3990   23.4160 C.2   152  HIS152      0.2620
    135  O         42.8190   37.2540   23.8550 O.2   152  HIS152     -0.2715
    136  CB        45.8920   37.1530   23.9780 C.3   152  HIS152      0.0785
    137  CG        46.2160   35.9990   24.8650 C.ar  152  HIS152      0.0821
    138  ND1       46.1390   36.0740   26.2330 N.ar  152  HIS152     -0.2267
    139  CD2       46.5450   34.7180   24.5710 C.ar  152  HIS152      0.1154
    140  CE1       46.4340   34.8940   26.7500 C.ar  152  HIS152      0.1986
    141  NE2       46.6920   34.0580   25.7620 N.ar  152  HIS152     -0.2212
    142  N         43.3070   35.1080   23.3980 N.am  153  ILE153     -0.1977
    143  CA        42.0550   34.5610   23.8950 C.3   153  ILE153      0.1596
    144  C         42.2390   34.1670   25.3520 C.2   153  ILE153      0.2287
    145  O         43.0640   33.3030   25.6730 O.2   153  ILE153     -0.2864
    146  CB        41.6140   33.3540   23.0560 C.3   153  ILE153      0.0276
    147  CG1       41.3660   33.7790   21.5930 C.3   153  ILE153      0.0022
    148  CG2       40.3820   32.6980   23.6920 C.3   153  ILE153      0.0022
    149  CD1       41.1150   32.6140   20.6170 C.3   153  ILE153      0.0001
@<TRIPOS>BOND
     1   111   110    2
     2   110   109    1
     3   108   109    1
     4   104   103    2
     5   109   112    1
     6   103   102    1
     7    43    41    1
     8   112   113    1
     9    97    96    2
    10    42    41    1
    11   107   105    1
    12    41    38    1
    13   102   105    1
    14   102   101    1
    15    64    63    2
    16   113   115   ar
    17   113   114   ar
    18    53    52    2
    19    96   101   am
    20    96    95    1
    21   105   106    1
    22   115   117   ar
    23    94    95    1
    24    52    51    1
    25    95    98    1
    26    63    62    1
    27    38    37    1
    28    38    39    1
    29   114   116   ar
    30    61    62    1
    31    47    46    2
    32   117   116   ar
    33    62    65    1
    34    44    39   am
    35    44    45    1
    36    39    40    2
    37    51    54    1
    38    51    50    1
    39    98    99    1
    40    98   100    1
    41    54    55    1
    42    89    88    2
    43    20    18    1
    44    46    45    1
    45    88    87    1
    46    32    31    2
    47    49    48    1
    48    65    66    1
    49    45    48    1
    50    10    11    1
    51    31    30    1
    52    55    56   ar
    53    55    57   ar
    54    13    12    2
    55    11    12    1
    56    18    15    1
    57    18    19    1
    58    12    14   am
    59    66    67   ar
    60    66    68   ar
    61    56    58   ar
    62    67    69   ar
    63    87    86    1
    64    87    90    1
    65    57    59   ar
    66    14    15    1
    67    15    16    1
    68    30    29    1
    69    30    33    1
    70   124   118    1
    71   124   123    1
    72    86    77   am
    73    78    77    2
    74   118   119    1
    75    90    91    1
    76    77    76    1
    77    68    71   ar
    78    68    70   ar
    79    69    70   ar
    80    58    60   ar
    81    75    76    1
    82    59    60   ar
    83    71    73   ar
    84    33    34    1
    85    76    79    1
    86    16    17    2
    87    70    72   ar
    88   123   122    1
    89   121   120    2
    90   119   120    1
    91   119   122    1
    92    91    93    1
    93    91    92    1
    94    36    34    1
    95    73    74   ar
    96   120   125   am
    97    34    35    1
    98    72    74   ar
    99    79    80    1
   100   125   131    1
   101   125   126    1
   102    80    81    1
   103    23    24    2
   104    23    22    1
   105    21    22    1
   106   131   130    1
   107   126   129    1
   108   126   127    1
   109    22    25    1
   110   149   147    1
   111   128   127    2
   112   129   130    1
   113   127   132   am
   114    81    82    1
   115   147   146    1
   116    82    83    2
   117    25    26    1
   118   132   133    1
   119    27    26    2
   120     1     2    1
   121    26    28   am
   122   133   134    1
   123   133   136    1
   124    83    85    1
   125    83    84    1
   126   146   148    1
   127   146   143    1
   128     3     2    1
   129     3     4    2
   130   142   134   am
   131   142   143    1
   132   134   135    2
   133     2     5    1
   134     9     7   am
   135     5     6    1
   136   143   144    1
   137   136   137    1
   138     6     7    1
   139   139   137   ar
   140   139   141   ar
   141     7     8    2
   142   137   138   ar
   143   144   145    2
   144   141   140   ar
   145   138   140   ar
