@<TRIPOS>MOLECULE
tmp/5ooiB00.pdb
 181 172 0 0 0
SMALL
GASTEIGER

@<TRIPOS>ATOM
      1  N        -28.3030  -35.4340   52.0350 N.3    38  ARG38      -0.1245
      2  CA       -29.5570  -34.8590   51.5650 C.3    38  ARG38       0.1563
      3  C        -29.2560  -33.9110   50.4140 C.2    38  ARG38       0.2260
      4  O        -28.3060  -33.1380   50.4830 O.2    38  ARG38      -0.2867
      5  CB       -30.2860  -34.1110   52.6940 C.3    38  ARG38       0.0307
      6  CG       -31.4890  -33.2850   52.2540 C.3    38  ARG38       0.0489
      7  CD       -32.4070  -32.9700   53.4400 C.3    38  ARG38       0.2205
      8  NE       -31.8680  -31.8970   54.2720 N.pl3  38  ARG38      -0.0865
      9  CZ       -32.3470  -30.6530   54.3090 C.cat  38  ARG38       0.5346
     10  NH1      -33.4010  -30.3180   53.5650 N.pl3  38  ARG38       0.1354
     11  NH2      -31.7750  -29.7380   55.0940 N.pl3  38  ARG38       0.1354
     12  N        -29.9120  -30.5510   48.5290 N.3    40  LEU40      -0.1231
     13  CA       -30.4600  -29.2660   48.9450 C.3    40  LEU40       0.1693
     14  C        -31.0490  -28.4630   47.7970 C.2    40  LEU40       0.2593
     15  O        -31.9620  -27.6470   48.0170 O.2    40  LEU40      -0.2718
     16  CB       -29.3870  -28.4330   49.6480 C.3    40  LEU40       0.0284
     17  CG       -28.8760  -29.0540   50.9490 C.3    40  LEU40       0.0019
     18  CD1      -27.6920  -28.2830   51.5050 C.3    40  LEU40       0.0001
     19  CD2      -30.0160  -29.1540   51.9910 C.3    40  LEU40       0.0001
     20  N        -30.5820  -28.6950   46.5900 N.am   41  GLY41      -0.1942
     21  CA       -30.9940  -27.8980   45.4650 C.3    41  GLY41       0.2014
     22  C        -29.9320  -27.9280   44.3880 C.2    41  GLY41       0.2639
     23  O        -29.0810  -28.8090   44.3620 O.2    41  GLY41      -0.2714
     24  N        -30.0180  -26.9440   43.4980 N.am   42  ARG42      -0.1963
     25  CA       -29.2000  -26.9140   42.3040 C.3    42  ARG42       0.1729
     26  C        -28.9020  -25.4670   41.9650 C.2    42  ARG42       0.2616
     27  O        -29.5580  -24.5420   42.4480 O.2    42  ARG42      -0.2715
     28  CB       -29.8930  -27.5910   41.1150 C.3    42  ARG42       0.0348
     29  CG       -30.1050  -29.0830   41.2750 C.3    42  ARG42       0.0492
     30  CD       -31.0590  -29.6600   40.2220 C.3    42  ARG42       0.2205
     31  NE       -31.3210  -31.0840   40.4560 N.pl3  42  ARG42      -0.0865
     32  CZ       -32.1950  -31.8190   39.7680 C.cat  42  ARG42       0.5346
     33  NH1      -32.9060  -31.2740   38.7900 N.pl3  42  ARG42       0.1354
     34  NH2      -32.3610  -33.1040   40.0610 N.pl3  42  ARG42       0.1354
     35  N        -27.8640  -25.2880   41.1530 N.am   43  GLY43      -0.1955
     36  CA       -27.6640  -24.0840   40.3860 C.3    43  GLY43       0.1869
     37  C        -27.6610  -24.4560   38.9150 C.2    43  GLY43       0.2309
     38  O        -27.9440  -25.5980   38.5340 O.2    43  GLY43      -0.2863
     39  N        -24.5570  -26.9740   38.7280 N.3    46  SER46      -0.1217
     40  CA       -24.1590  -27.7300   39.9140 C.3    46  SER46       0.1889
     41  C        -25.3370  -28.4660   40.5320 C.2    46  SER46       0.2288
     42  O        -26.5050  -28.1600   40.2770 O.2    46  SER46      -0.2866
     43  CB       -23.5080  -26.8340   40.9760 C.3    46  SER46       0.2089
     44  OG       -24.4260  -25.8890   41.4780 O.3    46  SER46      -0.2183
     45  N        -26.2240  -29.5660   44.5510 N.3    48  VAL48      -0.1245
     46  CA       -25.7680  -29.1490   45.8700 C.3    48  VAL48       0.1561
     47  C        -26.3460  -30.0730   46.9290 C.2    48  VAL48       0.2260
     48  O        -27.5650  -30.3000   46.9790 O.2    48  VAL48      -0.2867
     49  CB       -26.1260  -27.6820   46.1450 C.3    48  VAL48       0.0252
     50  CG1      -25.7010  -27.3120   47.5650 C.3    48  VAL48       0.0019
     51  CG2      -25.4000  -26.7700   45.1080 C.3    48  VAL48       0.0019
     52  N        -21.6320  -28.4530   53.2620 N.3    61  VAL61      -0.1245
     53  CA       -22.3850  -28.4110   52.0130 C.3    61  VAL61       0.1561
     54  C        -21.4280  -28.7430   50.8690 C.2    61  VAL61       0.2260
     55  O        -20.3340  -28.1610   50.7720 O.2    61  VAL61      -0.2867
     56  CB       -23.0610  -27.0440   51.7970 C.3    61  VAL61       0.0252
     57  CG1      -23.6070  -26.9330   50.3830 C.3    61  VAL61       0.0019
     58  CG2      -24.1690  -26.8470   52.8070 C.3    61  VAL61       0.0019
     59  N        -20.9340  -28.9080   46.7970 N.3    63  LYS63      -0.1245
     60  CA       -21.4120  -28.4160   45.5070 C.3    63  LYS63       0.1561
     61  C        -20.7090  -29.2260   44.4310 C.2    63  LYS63       0.2260
     62  O        -19.5050  -29.0630   44.2110 O.2    63  LYS63      -0.2867
     63  CB       -21.1220  -26.9210   45.3590 C.3    63  LYS63       0.0271
     64  CG       -21.5230  -26.2850   44.0390 C.3    63  LYS63       0.0035
     65  CD       -21.1050  -24.7920   44.0320 C.3    63  LYS63       0.0206
     66  CE       -21.5200  -24.0810   42.7200 C.3    63  LYS63       0.1093
     67  NZ       -21.3430  -22.5890   42.7790 N.3    63  LYS63      -0.1314
     68  N        -19.5440  -17.0630   52.1800 N.3    90  ILE90      -0.1245
     69  CA       -19.5680  -18.5050   52.4170 C.3    90  ILE90       0.1561
     70  C        -18.1300  -19.0040   52.4620 C.2    90  ILE90       0.2260
     71  O        -17.2810  -18.5690   51.6800 O.2    90  ILE90      -0.2867
     72  CB       -20.3960  -19.2460   51.3410 C.3    90  ILE90       0.0252
     73  CG1      -20.6970  -20.6790   51.7850 C.3    90  ILE90       0.0019
     74  CG2      -19.7130  -19.2380   49.9240 C.3    90  ILE90       0.0019
     75  CD1      -21.6690  -20.7520   52.9510 C.3    90  ILE90       0.0001
     76  N        -18.2760  -26.5710   51.4130 N.3   108  PHE108     -0.1227
     77  CA       -18.5230  -25.3240   52.1410 C.3   108  PHE108      0.1736
     78  C        -19.0210  -25.6070   53.5550 C.2   108  PHE108      0.2595
     79  O        -19.4890  -26.7090   53.8560 O.2   108  PHE108     -0.2718
     80  CB       -19.5730  -24.4610   51.4540 C.3   108  PHE108      0.0547
     81  CG       -19.2010  -24.0460   50.0760 C.ar  108  PHE108     -0.0202
     82  CD1      -18.4710  -22.8890   49.8660 C.ar  108  PHE108     -0.0042
     83  CD2      -19.5650  -24.8120   48.9860 C.ar  108  PHE108     -0.0042
     84  CE1      -18.1120  -22.4820   48.5810 C.ar  108  PHE108     -0.0003
     85  CE2      -19.2080  -24.4150   47.6800 C.ar  108  PHE108     -0.0003
     86  CZ       -18.4790  -23.2410   47.4900 C.ar  108  PHE108     -0.0000
     87  N        -18.9340  -24.5840   54.4180 N.am  109  GLU109     -0.1965
     88  CA       -19.6610  -24.6150   55.6860 C.3   109  GLU109      0.1733
     89  C        -21.1620  -24.7170   55.4340 C.2   109  GLU109      0.2616
     90  O        -21.6950  -24.1650   54.4660 O.2   109  GLU109     -0.2715
     91  CB       -19.3810  -23.3590   56.5070 C.3   109  GLU109      0.0429
     92  CG       -19.7850  -22.1010   55.7550 C.3   109  GLU109      0.1163
     93  CD       -19.4780  -20.8180   56.4970 C.2   109  GLU109      0.3649
     94  OE1      -19.2950  -20.8650   57.7370 O.co2 109  GLU109     -0.2457
     95  OE2      -19.3790  -19.7620   55.8290 O.co2 109  GLU109     -0.2457
     96  N        -21.8470  -25.4070   56.3380 N.am  110  TYR110     -0.1960
     97  CA       -23.2960  -25.5460   56.2680 C.3   110  TYR110      0.1771
     98  C        -23.9650  -24.3080   56.8580 C.2   110  TYR110      0.2619
     99  O        -23.5720  -23.8300   57.9260 O.2   110  TYR110     -0.2715
    100  CB       -23.7430  -26.8020   57.0370 C.3   110  TYR110      0.0574
    101  CG       -25.2540  -26.9560   57.1440 C.ar  110  TYR110     -0.0198
    102  CD1      -25.9900  -27.4780   56.0830 C.ar  110  TYR110     -0.0009
    103  CD2      -25.9440  -26.5840   58.2970 C.ar  110  TYR110     -0.0009
    104  CE1      -27.3820  -27.6180   56.1550 C.ar  110  TYR110      0.0417
    105  CE2      -27.3250  -26.7250   58.3810 C.ar  110  TYR110      0.0417
    106  CZ       -28.0400  -27.2380   57.2990 C.ar  110  TYR110      0.1957
    107  OH       -29.4180  -27.3810   57.3430 O.3   110  TYR110     -0.2866
    108  N        -24.9660  -23.7830   56.1580 N.am  111  ILE111     -0.1963
    109  CA       -25.8720  -22.7720   56.6930 C.3   111  ILE111      0.1727
    110  C        -27.2730  -23.3350   56.5790 C.2   111  ILE111      0.2616
    111  O        -27.6670  -23.8010   55.5040 O.2   111  ILE111     -0.2715
    112  CB       -25.7800  -21.4250   55.9450 C.3   111  ILE111      0.0290
    113  CG1      -24.3610  -20.9140   55.9710 C.3   111  ILE111      0.0022
    114  CG2      -26.6050  -20.3620   56.6640 C.3   111  ILE111      0.0023
    115  CD1      -23.9770  -20.5340   57.4030 C.3   111  ILE111      0.0001
    116  N        -28.0220  -23.2660   57.6780 N.am  112  ASN112     -0.1958
    117  CA       -29.3890  -23.7660   57.7650 C.3   112  ASN112      0.1819
    118  C        -30.3030  -22.6670   57.2280 C.2   112  ASN112      0.2621
    119  O        -30.8600  -21.8720   57.9830 O.2   112  ASN112     -0.2715
    120  CB       -29.7010  -24.1180   59.2190 C.3   112  ASN112      0.1195
    121  CG       -31.0060  -24.8430   59.4000 C.2   112  ASN112      0.2630
    122  OD1      -31.4680  -25.5500   58.5240 O.2   112  ASN112     -0.2716
    123  ND2      -31.6180  -24.6550   60.5580 N.am  112  ASN112     -0.0877
    124  N        -30.4130  -22.5960   55.8930 N.am  113  ASN113     -0.1972
    125  CA       -31.1610  -21.5260   55.2300 C.3   113  ASN113      0.1688
    126  C        -32.6720  -21.7240   55.3360 C.2   113  ASN113      0.2292
    127  O        -33.1910  -22.8310   55.1510 O.2   113  ASN113     -0.2864
    128  CB       -30.7850  -21.4380   53.7490 C.3   113  ASN113      0.1181
    129  CG       -31.5630  -20.3400   52.9880 C.2   113  ASN113      0.2629
    130  OD1      -31.4280  -19.1590   53.2700 O.2   113  ASN113     -0.2716
    131  ND2      -32.3450  -20.7430   52.0010 N.am  113  ASN113     -0.0877
    132  N        -35.7950  -20.8180   53.1630 N.3   115  ASP115     -0.1239
    133  CA       -36.1300  -20.4160   51.8000 C.3   115  ASP115      0.1674
    134  C        -36.7500  -19.0260   51.7790 C.2   115  ASP115      0.2266
    135  O        -37.6830  -18.7390   52.5420 O.2   115  ASP115     -0.2867
    136  CB       -37.1050  -21.4440   51.2220 C.3   115  ASP115      0.1410
    137  CG       -37.7480  -20.9890   49.9280 C.2   115  ASP115      0.3668
    138  OD1      -37.0160  -20.6560   48.9710 O.co2 115  ASP115     -0.2456
    139  OD2      -39.0050  -20.9840   49.8770 O.co2 115  ASP115     -0.2456
    140  N        -31.9090  -15.9410   46.1050 N.3   155  HIS155     -0.1226
    141  CA       -31.4400  -17.3240   46.1150 C.3   155  HIS155      0.1752
    142  C        -29.9730  -17.4400   46.5040 C.2   155  HIS155      0.2596
    143  O        -29.5290  -18.5380   46.8530 O.2   155  HIS155     -0.2718
    144  CB       -31.5880  -17.9790   44.7430 C.3   155  HIS155      0.0759
    145  CG       -32.9480  -17.8430   44.1460 C.ar  155  HIS155      0.0818
    146  ND1      -33.4010  -16.6670   43.5740 N.ar  155  HIS155     -0.2268
    147  CD2      -33.9650  -18.7350   44.0500 C.ar  155  HIS155      0.1154
    148  CE1      -34.6360  -16.8540   43.1410 C.ar  155  HIS155      0.1986
    149  NE2      -35.0020  -18.0970   43.4200 N.ar  155  HIS155     -0.2212
    150  N        -29.1870  -16.3720   46.3710 N.am  156  ASN156     -0.1974
    151  CA       -27.7550  -16.4600   46.6900 C.3   156  ASN156      0.1688
    152  C        -27.4050  -15.8690   48.0430 C.2   156  ASN156      0.2292
    153  O        -26.2140  -15.6720   48.3500 O.2   156  ASN156     -0.2864
    154  CB       -26.9320  -15.7930   45.5980 C.3   156  ASN156      0.1181
    155  CG       -26.8760  -16.6430   44.3790 C.2   156  ASN156      0.2629
    156  OD1      -27.0860  -17.8720   44.4610 O.2   156  ASN156     -0.2716
    157  ND2      -26.6260  -16.0210   43.2340 N.am  156  ASN156     -0.0877
    158  N        -27.8680  -16.9030   51.7910 N.3   158  MET158     -0.1245
    159  CA       -28.3500  -17.8860   52.7580 C.3   158  MET158      0.1570
    160  C        -28.5330  -17.2110   54.1020 C.2   158  MET158      0.2261
    161  O        -27.6650  -16.4510   54.5340 O.2   158  MET158     -0.2867
    162  CB       -27.4070  -19.0770   52.8940 C.3   158  MET158      0.0387
    163  CG       -27.1930  -19.9270   51.6070 C.3   158  MET158      0.0595
    164  SD       -28.6570  -20.8310   51.0120 S.3   158  MET158     -0.1393
    165  CE       -29.3300  -19.5740   49.8990 C.3   158  MET158      0.0692
    166  N        -23.4960  -16.6390   48.8090 N.3   169  ILE169     -0.1231
    167  CA       -23.0260  -17.8780   48.1890 C.3   169  ILE169      0.1692
    168  C        -22.9740  -17.7420   46.6660 C.2   169  ILE169      0.2592
    169  O        -23.2730  -16.6810   46.1120 O.2   169  ILE169     -0.2718
    170  CB       -23.9200  -19.0620   48.5620 C.3   169  ILE169      0.0266
    171  CG1      -25.3310  -18.8300   47.9760 C.3   169  ILE169      0.0019
    172  CG2      -23.9180  -19.2980   50.0990 C.3   169  ILE169      0.0020
    173  CD1      -26.2080  -20.0530   47.9460 C.3   169  ILE169      0.0001
    174  N        -22.6450  -18.8490   46.0010 N.am  170  ASP170     -0.1974
    175  CA       -22.5290  -19.0410   44.5580 C.3   170  ASP170      0.1709
    176  C        -21.6790  -17.9690   43.8910 C.2   170  ASP170      0.2293
    177  O        -22.1990  -17.0340   43.2830 O.2   170  ASP170     -0.2864
    178  CB       -23.8930  -19.1290   43.8680 C.3   170  ASP170      0.1436
    179  CG       -23.7860  -19.8410   42.5070 C.2   170  ASP170      0.3671
    180  OD1      -22.6230  -20.0590   42.0110 O.co2 170  ASP170     -0.2456
    181  OD2      -24.8370  -20.1780   41.9420 O.co2 170  ASP170     -0.2456
@<TRIPOS>BOND
     1    38    37    2
     2    39    40    1
     3    33    32    1
     4    37    36    1
     5    32    34    1
     6    32    31    2
     7    40    41    1
     8    40    43    1
     9    30    31    1
    10    30    29    1
    11    42    41    2
    12    36    35    1
    13    43    44    1
    14    28    29    1
    15    28    25    1
    16    35    26   am
    17   181   179   ar
    18    26    25    1
    19    26    27    2
    20   180   179   ar
    21    25    24    1
    22   179   178    1
    23    66    67    1
    24    66    65    1
    25   148   149   ar
    26   148   146   ar
    27   157   155   am
    28   177   176    2
    29   149   147   ar
    30    24    22   am
    31   146   145   ar
    32   178   175    1
    33   176   175    1
    34    65    64    1
    35    64    63    1
    36   147   145   ar
    37   145   144    1
    38    62    61    2
    39    23    22    2
    40   155   156    2
    41   155   154    1
    42    22    21    1
    43    61    60    1
    44    45    46    1
    45   175   174    1
    46   144   141    1
    47    51    49    1
    48    63    60    1
    49    21    20    1
    50    60    59    1
    51   154   151    1
    52    46    49    1
    53    46    47    1
    54   174   168   am
    55   140   141    1
    56   169   168    2
    57   141   142    1
    58    49    50    1
    59   150   142   am
    60   150   151    1
    61   142   143    2
    62    20    14   am
    63   168   167    1
    64   151   152    1
    65    47    48    2
    66    86    85   ar
    67    86    84   ar
    68    85    83   ar
    69    14    15    2
    70    14    13    1
    71   173   171    1
    72   171   170    1
    73   152   153    2
    74   167   170    1
    75   167   166    1
    76    12    13    1
    77   170   172    1
    78    84    82   ar
    79    13    16    1
    80   138   137   ar
    81    83    81   ar
    82    16    17    1
    83    82    81   ar
    84   139   137   ar
    85   165   164    1
    86    74    72    1
    87   137   136    1
    88    81    80    1
    89    57    56    1
    90     3     4    2
    91     3     2    1
    92    55    54    2
    93    54    53    1
    94    17    18    1
    95    17    19    1
    96   164   163    1
    97   136   133    1
    98    72    73    1
    99    72    69    1
   100    76    77    1
   101    80    77    1
   102     2     1    1
   103     2     5    1
   104   163   162    1
   105    71    70    2
   106   134   133    1
   107   134   135    2
   108    73    75    1
   109   158   159    1
   110    56    53    1
   111    56    58    1
   112   133   132    1
   113   131   129   am
   114    53    52    1
   115    77    78    1
   116    68    69    1
   117     6     5    1
   118     6     7    1
   119    69    70    1
   120   159   162    1
   121   159   160    1
   122   129   130    2
   123   129   128    1
   124     7     8    1
   125    78    79    2
   126    78    87   am
   127    10     9    1
   128   128   125    1
   129   160   161    2
   130     8     9    2
   131     9    11    1
   132    87    88    1
   133    90    89    2
   134   127   126    2
   135   125   126    1
   136   125   124    1
   137    89    88    1
   138    89    96   am
   139   111   110    2
   140    88    91    1
   141    92    93    1
   142    92    91    1
   143    95    93   ar
   144   124   118   am
   145   112   113    1
   146   112   114    1
   147   112   109    1
   148   113   115    1
   149   102   104   ar
   150   102   101   ar
   151   104   106   ar
   152   108   109    1
   153   108    98   am
   154    97    96    1
   155    97    98    1
   156    97   100    1
   157    93    94   ar
   158   110   109    1
   159   110   116   am
   160    98    99    2
   161   100   101    1
   162   101   103   ar
   163   118   117    1
   164   118   119    2
   165   106   107    1
   166   106   105   ar
   167   116   117    1
   168   117   120    1
   169   103   105   ar
   170   122   121    2
   171   120   121    1
   172   121   123   am
