@<TRIPOS>MOLECULE
tmp/5ookB00.pdb
 222 211 0 0 0
SMALL
GASTEIGER

@<TRIPOS>ATOM
      1  N       -171.9480  147.1550    3.9550 N.3    59  LEU59      -0.1231
      2  CA      -171.8210  148.4120    4.7450 C.3    59  LEU59       0.1693
      3  C       -173.1760  149.0410    5.0100 C.2    59  LEU59       0.2592
      4  O       -173.4540  149.4370    6.1270 O.2    59  LEU59      -0.2718
      5  CB      -170.9120  149.4430    4.0600 C.3    59  LEU59       0.0284
      6  CG      -170.8500  150.8300    4.7300 C.3    59  LEU59       0.0019
      7  CD1     -170.2580  150.7210    6.1220 C.3    59  LEU59       0.0001
      8  CD2     -170.0650  151.8170    3.8670 C.3    59  LEU59       0.0001
      9  N       -174.0140  149.1390    3.9880 N.am   60  PHE60      -0.1976
     10  CA      -175.3060  149.7970    4.1530 C.3    60  PHE60       0.1639
     11  C       -176.3310  148.9530    4.9390 C.2    60  PHE60       0.2290
     12  O       -177.2090  149.5210    5.6310 O.2    60  PHE60      -0.2864
     13  CB      -175.8620  150.2880    2.7990 C.3    60  PHE60       0.0560
     14  CG      -174.9650  151.2870    2.0990 C.ar   60  PHE60      -0.0200
     15  CD1     -174.4660  152.4180    2.7730 C.ar   60  PHE60      -0.0042
     16  CD2     -174.6100  151.1080    0.7740 C.ar   60  PHE60      -0.0042
     17  CE1     -173.6270  153.3110    2.1360 C.ar   60  PHE60      -0.0003
     18  CE2     -173.7760  152.0130    0.1280 C.ar   60  PHE60      -0.0003
     19  CZ      -173.2830  153.1030    0.8080 C.ar   60  PHE60      -0.0000
     20  N       -176.5650  155.8360    6.6990 N.3    66  LEU66      -0.1245
     21  CA      -175.7120  156.4380    5.6680 C.3    66  LEU66       0.1561
     22  C       -176.4710  156.8050    4.3940 C.2    66  LEU66       0.2260
     23  O       -176.1540  157.8240    3.7520 O.2    66  LEU66      -0.2867
     24  CB      -174.5370  155.5140    5.2920 C.3    66  LEU66       0.0270
     25  CG      -173.4770  155.2720    6.3690 C.3    66  LEU66       0.0019
     26  CD1     -172.4240  154.3120    5.8330 C.3    66  LEU66       0.0001
     27  CD2     -172.8300  156.5620    6.8840 C.3    66  LEU66       0.0001
     28  N       -174.9030  160.7540    4.5310 N.3    72  ASN72      -0.1225
     29  CA      -173.8320  161.3020    3.7470 C.3    72  ASN72       0.1785
     30  C       -173.7470  160.5200    2.4510 C.2    72  ASN72       0.2597
     31  O       -173.2850  161.0150    1.4480 O.2    72  ASN72      -0.2718
     32  CB      -172.5050  161.1690    4.4590 C.3    72  ASN72       0.1169
     33  CG      -171.4010  161.9020    3.7310 C.2    72  ASN72       0.2627
     34  OD1     -170.5420  161.2900    3.1070 O.2    72  ASN72      -0.2716
     35  ND2     -171.4500  163.2150    3.7700 N.am   72  ASN72      -0.0877
     36  N       -174.4270  159.0430    2.1220 N.am   73  ALA73      -0.1979
     37  CA      -174.4400  158.3800    0.8340 C.3    73  ALA73       0.1597
     38  C       -175.8100  158.4640    0.1410 C.2    73  ALA73       0.2287
     39  O       -176.0080  157.8470   -0.9120 O.2    73  ALA73      -0.2864
     40  CB      -173.9770  156.9490    1.0020 C.3    73  ALA73       0.0319
     41  N       -175.7120  161.2130   -6.5740 N.3    77  ARG77      -0.1231
     42  CA      -174.3750  161.8150   -6.6830 C.3    77  ARG77       0.1694
     43  C       -173.4450  161.3990   -5.5250 C.2    77  ARG77       0.2591
     44  O       -172.3030  161.0490   -5.7750 O.2    77  ARG77      -0.2718
     45  CB      -174.4120  163.3450   -6.7910 C.3    77  ARG77       0.0321
     46  CG      -173.0200  163.9490   -6.9500 C.3    77  ARG77       0.0489
     47  CD      -172.9370  165.4410   -6.6890 C.3    77  ARG77       0.2205
     48  NE      -173.2990  165.8920   -5.3310 N.pl3  77  ARG77      -0.0865
     49  CZ      -172.5330  165.8430   -4.2240 C.cat  77  ARG77       0.5346
     50  NH1     -171.3050  165.2860   -4.2220 N.pl3  77  ARG77       0.1354
     51  NH2     -173.0300  166.3440   -3.0830 N.pl3  77  ARG77       0.1354
     52  N       -173.9410  161.4390   -4.2840 N.am   78  ARG78      -0.1980
     53  CA      -173.1580  161.0360   -3.1380 C.3    78  ARG78       0.1597
     54  C       -172.9640  159.5290   -3.0790 C.2    78  ARG78       0.2287
     55  O       -171.8670  159.0620   -2.7780 O.2    78  ARG78      -0.2864
     56  CB      -173.7660  161.5970   -1.8440 C.3    78  ARG78       0.0334
     57  CG      -173.8210  163.1280   -1.8170 C.3    78  ARG78       0.0492
     58  CD      -173.6770  163.7000   -0.4200 C.3    78  ARG78       0.2205
     59  NE      -174.8370  163.3170    0.3770 N.pl3  78  ARG78      -0.0865
     60  CZ      -175.9720  164.0140    0.4700 C.cat  78  ARG78       0.5346
     61  NH1     -176.1040  165.1680   -0.1460 N.pl3  78  ARG78       0.1354
     62  NH2     -176.9870  163.5550    1.2070 N.pl3  78  ARG78       0.1354
     63  N       -170.2510  158.8540   -5.5380 N.3    81  ALA81      -0.1231
     64  CA      -168.9770  159.3250   -5.0310 C.3    81  ALA81       0.1694
     65  C       -168.4090  158.3130   -4.0150 C.2    81  ALA81       0.2592
     66  O       -167.2330  157.9770   -4.0880 O.2    81  ALA81      -0.2718
     67  CB      -169.1070  160.7170   -4.4190 C.3    81  ALA81       0.0304
     68  N       -169.2550  157.8150   -3.1240 N.am   82  CYS82      -0.1970
     69  CA      -168.8940  156.7740   -2.1750 C.3    82  CYS82       0.1712
     70  C       -168.3640  155.4700   -2.8100 C.2    82  CYS82       0.2296
     71  O       -167.2830  154.9910   -2.4620 O.2    82  CYS82      -0.2864
     72  CB      -170.0830  156.4460   -1.3030 C.3    82  CYS82       0.0983
     73  SG      -169.7110  155.2210   -0.0700 S.3    82  CYS82      -0.0798
     74  N       -167.1980  155.2270   -5.8140 N.3    84  ARG84      -0.1231
     75  CA      -165.9590  155.6530   -6.4760 C.3    84  ARG84       0.1694
     76  C       -164.7830  155.6650   -5.4950 C.2    84  ARG84       0.2592
     77  O       -163.6970  155.2060   -5.8270 O.2    84  ARG84      -0.2718
     78  CB      -166.1440  157.0410   -7.1400 C.3    84  ARG84       0.0321
     79  CG      -164.9520  157.6480   -7.8930 C.3    84  ARG84       0.0489
     80  CD      -164.9840  159.1880   -7.9100 C.3    84  ARG84       0.2205
     81  NE      -164.8250  159.6260   -6.4980 N.pl3  84  ARG84      -0.0865
     82  CZ      -165.3110  160.7330   -5.9350 C.cat  84  ARG84       0.5346
     83  NH1     -165.9970  161.6690   -6.6210 N.pl3  84  ARG84       0.1354
     84  NH2     -165.1040  160.9080   -4.6250 N.pl3  84  ARG84       0.1354
     85  N       -164.9730  156.1990   -4.3000 N.am   85  ASP85      -0.1960
     86  CA      -163.9070  156.1280   -3.3040 C.3    85  ASP85       0.1840
     87  C       -163.5100  154.6810   -2.9520 C.2    85  ASP85       0.2621
     88  O       -162.3470  154.3710   -2.7710 O.2    85  ASP85      -0.2715
     89  CB      -164.3300  156.8170   -2.0220 C.3    85  ASP85       0.1450
     90  CG      -164.2560  158.3050   -2.1100 C.2    85  ASP85       0.3671
     91  OD1     -164.0170  158.8750   -3.2420 O.co2  85  ASP85      -0.2456
     92  OD2     -164.4160  158.8810   -1.0000 O.co2  85  ASP85      -0.2456
     93  N       -164.4980  153.8200   -2.8250 N.am   86  MET86      -0.1977
     94  CA      -164.2360  152.4230   -2.5340 C.3    86  MET86       0.1605
     95  C       -163.3980  151.8050   -3.6500 C.2    86  MET86       0.2287
     96  O       -162.3960  151.1550   -3.3780 O.2    86  MET86      -0.2864
     97  CB      -165.5330  151.6880   -2.3270 C.3    86  MET86       0.0413
     98  CG      -166.1030  151.9880   -0.9600 C.3    86  MET86       0.0598
     99  SD      -167.7360  151.2640   -0.8190 S.3    86  MET86      -0.1393
    100  CE      -167.2650  149.6440   -0.2070 C.3    86  MET86       0.0692
    101  N       -161.4010  153.4460   -5.7940 N.3    88  ILE88      -0.1231
    102  CA      -160.1020  154.0930   -5.7660 C.3    88  ILE88       0.1692
    103  C       -159.1780  153.4780   -4.7150 C.2    88  ILE88       0.2591
    104  O       -157.9810  153.2610   -4.9880 O.2    88  ILE88      -0.2718
    105  CB      -160.2360  155.6160   -5.4500 C.3    88  ILE88       0.0266
    106  CG1     -160.8020  156.3450   -6.6510 C.3    88  ILE88       0.0019
    107  CG2     -158.8910  156.2040   -5.0820 C.3    88  ILE88       0.0020
    108  CD1     -161.3410  157.7280   -6.2810 C.3    88  ILE88       0.0001
    109  N       -159.7040  153.2170   -3.5240 N.am   89  ILE89      -0.1980
    110  CA      -158.9240  152.6440   -2.4510 C.3    89  ILE89       0.1595
    111  C       -158.5380  151.2090   -2.8120 C.2    89  ILE89       0.2287
    112  O       -157.3970  150.8050   -2.6520 O.2    89  ILE89      -0.2864
    113  CB      -159.6620  152.7190   -1.0940 C.3    89  ILE89       0.0276
    114  CG1     -159.7450  154.1850   -0.6470 C.3    89  ILE89       0.0022
    115  CG2     -158.9230  151.9150   -0.0390 C.3    89  ILE89       0.0022
    116  CD1     -160.7620  154.4910    0.4440 C.3    89  ILE89       0.0001
    117  N       -158.1480  150.0670   -5.8280 N.3    91  ARG91      -0.1231
    118  CA      -157.1190  150.1670   -6.8430 C.3    91  ARG91       0.1694
    119  C       -155.7120  150.4310   -6.2550 C.2    91  ARG91       0.2592
    120  O       -154.7410  149.7600   -6.6180 O.2    91  ARG91      -0.2718
    121  CB      -157.4880  151.2510   -7.8870 C.3    91  ARG91       0.0321
    122  CG      -156.4500  151.4980   -8.9350 C.3    91  ARG91       0.0489
    123  CD      -157.0180  152.2670  -10.1370 C.3    91  ARG91       0.2205
    124  NE      -157.4760  153.6170   -9.7770 N.pl3  91  ARG91      -0.0865
    125  CZ      -156.7300  154.7190   -9.7470 C.cat  91  ARG91       0.5346
    126  NH1     -155.4390  154.7280  -10.0290 N.pl3  91  ARG91       0.1354
    127  NH2     -157.3050  155.8610   -9.4470 N.pl3  91  ARG91       0.1354
    128  N       -155.5800  151.3840   -5.3350 N.am   92  TYR92      -0.1976
    129  CA      -154.2820  151.5940   -4.6640 C.3    92  TYR92       0.1639
    130  C       -153.8160  150.3990   -3.8590 C.2    92  TYR92       0.2290
    131  O       -152.6090  150.1350   -3.7950 O.2    92  TYR92      -0.2864
    132  CB      -154.2310  152.9200   -3.8440 C.3    92  TYR92       0.0560
    133  CG      -154.0960  154.1220   -4.7830 C.ar   92  TYR92      -0.0198
    134  CD1     -152.8630  154.4570   -5.3400 C.ar   92  TYR92      -0.0009
    135  CD2     -155.2190  154.8800   -5.1700 C.ar   92  TYR92      -0.0009
    136  CE1     -152.7530  155.5130   -6.2370 C.ar   92  TYR92       0.0417
    137  CE2     -155.1170  155.9100   -6.0980 C.ar   92  TYR92       0.0417
    138  CZ      -153.8820  156.2340   -6.6050 C.ar   92  TYR92       0.1957
    139  OH      -153.7500  157.2210   -7.5080 O.3    92  TYR92      -0.2866
    140  N       -149.9820  158.2460   -2.5490 N.3   108  ARG108     -0.1231
    141  CA      -150.9030  158.7540   -3.5470 C.3   108  ARG108      0.1694
    142  C       -152.3420  158.6610   -3.1420 C.2   108  ARG108      0.2592
    143  O       -153.1660  159.1450   -3.8560 O.2   108  ARG108     -0.2718
    144  CB      -150.6990  158.0670   -4.8800 C.3   108  ARG108      0.0321
    145  CG      -149.3000  158.2820   -5.3400 C.3   108  ARG108      0.0489
    146  CD      -149.1240  157.7350   -6.7140 C.3   108  ARG108      0.2205
    147  NE      -147.7460  157.8990   -7.1580 N.pl3 108  ARG108     -0.0865
    148  CZ      -147.3620  157.8280   -8.4310 C.cat 108  ARG108      0.5346
    149  NH1     -148.2390  157.5710   -9.4080 N.pl3 108  ARG108      0.1354
    150  NH2     -146.0780  158.0210   -8.7390 N.pl3 108  ARG108      0.1354
    151  N       -152.6640  157.9940   -2.0460 N.am  109  CYS109     -0.1970
    152  CA      -154.0810  157.7850   -1.6870 C.3   109  CYS109      0.1712
    153  C       -154.3710  158.1970   -0.2560 C.2   109  CYS109      0.2296
    154  O       -155.1890  159.0660   -0.0480 O.2   109  CYS109     -0.2864
    155  CB      -154.5000  156.3610   -1.9720 C.3   109  CYS109      0.0983
    156  SG      -156.2480  155.9870   -1.6630 S.3   109  CYS109     -0.0798
    157  N       -155.9500  162.1480    3.3740 N.3   113  LEU113     -0.1245
    158  CA      -157.3430  161.7290    3.1240 C.3   113  LEU113      0.1561
    159  C       -158.2520  161.9800    4.3310 C.2   113  LEU113      0.2260
    160  O       -159.3880  162.4090    4.1730 O.2   113  LEU113     -0.2867
    161  CB      -157.4310  160.2320    2.7180 C.3   113  LEU113      0.0270
    162  CG      -158.8020  159.7460    2.2080 C.3   113  LEU113      0.0019
    163  CD1     -159.3480  160.6600    1.0910 C.3   113  LEU113      0.0001
    164  CD2     -158.7510  158.3000    1.6880 C.3   113  LEU113      0.0001
    165  N       -159.1540  165.5430    4.1520 N.3   116  THR116     -0.1203
    166  CA      -160.1250  165.7500    3.0970 C.3   116  THR116      0.1994
    167  C       -161.5480  165.3960    3.5290 C.2   116  THR116      0.2617
    168  O       -162.4850  166.1510    3.2830 O.2   116  THR116     -0.2717
    169  CB      -159.7560  164.9350    1.8640 C.3   116  THR116      0.1784
    170  OG1     -158.5190  165.4440    1.3960 O.3   116  THR116     -0.2211
    171  CG2     -160.7770  165.0700    0.7790 C.3   116  THR116      0.0376
    172  N       -161.6970  164.2640    4.1930 N.am  117  TYR117     -0.1975
    173  CA      -163.0150  163.8330    4.6460 C.3   117  TYR117      0.1639
    174  C       -163.6270  164.7080    5.7420 C.2   117  TYR117      0.2290
    175  O       -164.8200  164.9800    5.7240 O.2   117  TYR117     -0.2864
    176  CB      -162.9870  162.3580    5.0900 C.3   117  TYR117      0.0560
    177  CG      -162.9350  161.3120    3.9450 C.ar  117  TYR117     -0.0198
    178  CD1     -163.5740  161.5120    2.7460 C.ar  117  TYR117     -0.0009
    179  CD2     -162.2770  160.0720    4.1340 C.ar  117  TYR117     -0.0009
    180  CE1     -163.5570  160.5540    1.7300 C.ar  117  TYR117      0.0417
    181  CE2     -162.2490  159.1000    3.1230 C.ar  117  TYR117      0.0417
    182  CZ      -162.8910  159.3460    1.9270 C.ar  117  TYR117      0.1957
    183  OH      -162.8720  158.3960    0.9310 O.3   117  TYR117     -0.2866
    184  N       -164.8690  167.8630    4.1870 N.3   120  LEU120     -0.1245
    185  CA      -166.1130  167.5700    3.4740 C.3   120  LEU120      0.1561
    186  C       -167.3130  167.2190    4.3820 C.2   120  LEU120      0.2260
    187  O       -168.4390  167.3050    3.9370 O.2   120  LEU120     -0.2867
    188  CB      -165.9060  166.3990    2.5110 C.3   120  LEU120      0.0270
    189  CG      -165.0900  166.6730    1.2490 C.3   120  LEU120      0.0019
    190  CD1     -164.6810  165.3530    0.6180 C.3   120  LEU120      0.0001
    191  CD2     -165.9020  167.4940    0.2620 C.3   120  LEU120      0.0001
    192  N       -167.5270  163.9180    5.3490 N.3   122  VAL122     -0.1231
    193  CA      -167.6740  162.4720    5.1120 C.3   122  VAL122      0.1678
    194  C       -167.2940  161.7510    6.4310 C.2   122  VAL122      0.2434
    195  O       -166.2790  162.0860    7.0040 O.2   122  VAL122     -0.2733
    196  CB      -166.7970  162.0200    3.9480 C.3   122  VAL122      0.0265
    197  CG1     -166.7840  160.5070    3.8040 C.3   122  VAL122      0.0020
    198  CG2     -167.2850  162.6180    2.6200 C.3   122  VAL122      0.0020
    199  N       -168.1240  160.7990    6.9220 N.am  123  PRO123     -0.2729
    200  CA      -167.7960  160.0660    8.1700 C.3   123  PRO123      0.1401
    201  C       -166.6970  159.0230    7.9660 C.2   123  PRO123      0.2269
    202  O       -166.9310  157.9260    7.4280 O.2   123  PRO123     -0.2865
    203  CB      -169.1280  159.4240    8.5860 C.3   123  PRO123      0.0296
    204  CG      -169.8790  159.2680    7.3080 C.3   123  PRO123      0.0237
    205  CD      -169.4180  160.3690    6.3630 C.3   123  PRO123      0.0939
    206  N       -167.1310  155.4060    9.0190 N.3   126  SER126     -0.1202
    207  CA      -167.9060  154.5820    8.0990 C.3   126  SER126      0.2020
    208  C       -167.1200  154.2460    6.8380 C.2   126  SER126      0.2618
    209  O       -167.3330  153.1650    6.2670 O.2   126  SER126     -0.2717
    210  CB      -169.2500  155.2520    7.7850 C.3   126  SER126      0.2103
    211  OG      -169.9720  155.4720    8.9940 O.3   126  SER126     -0.2182
    212  N       -166.2410  155.1430    6.3610 N.am  127  VAL127     -0.1979
    213  CA      -165.3540  154.7680    5.2670 C.3   127  VAL127      0.1595
    214  C       -164.4860  153.5890    5.6700 C.2   127  VAL127      0.2287
    215  O       -164.2910  152.6540    4.8580 O.2   127  VAL127     -0.2864
    216  CB      -164.4440  155.9030    4.7970 C.3   127  VAL127      0.0276
    217  CG1     -163.4630  155.4080    3.7110 C.3   127  VAL127      0.0022
    218  CG2     -165.2720  157.0370    4.2410 C.3   127  VAL127      0.0022
    219  N       -166.3730  150.4400    5.4830 N.3   130  GLY130     -0.1225
    220  CA      -166.4620  150.0530    4.0650 C.3   130  GLY130      0.1811
    221  C       -165.2070  149.3690    3.5090 C.2   130  GLY130      0.2280
    222  O       -165.3040  148.4060    2.7450 O.2   130  GLY130     -0.2866
@<TRIPOS>BOND
     1   123   124    1
     2   123   122    1
     3   126   125    1
     4   124   125    2
     5   125   127    1
     6   149   148    1
     7   122   121    1
     8   150   148    1
     9   148   147    2
    10    80    79    1
    11    80    81    1
    12    79    78    1
    13   121   118    1
    14   139   138    1
    15   147   146    1
    16    78    75    1
    17    46    45    1
    18    46    47    1
    19   118   119    1
    20   118   117    1
    21    45    42    1
    22   146   145    1
    23    47    48    1
    24    42    41    1
    25    42    43    1
    26   106   108    1
    27   106   105    1
    28    83    82    1
    29   120   119    2
    30   138   136   ar
    31   138   137   ar
    32    81    82    2
    33    75    74    1
    34    75    76    1
    35   119   128   am
    36   136   134   ar
    37   137   135   ar
    38    82    84    1
    39    77    76    2
    40   101   102    1
    41    44    43    2
    42   102   105    1
    43   102   103    1
    44    63    64    1
    45    43    52   am
    46    76    85   am
    47   105   107    1
    48   134   133   ar
    49   145   144    1
    50   128   129    1
    51    48    49    2
    52   135   133   ar
    53    64    67    1
    54    64    65    1
    55   104   103    2
    56   144   141    1
    57   133   132    1
    58   103   109   am
    59   129   130    1
    60   129   132    1
    61    85    86    1
    62    52    53    1
    63    49    50    1
    64    49    51    1
    65    66    65    2
    66    65    68   am
    67   130   131    2
    68   143   142    2
    69    95    96    2
    70    95    94    1
    71   141   142    1
    72   141   140    1
    73   109   110    1
    74    86    87    1
    75    86    89    1
    76    91    90   ar
    77   142   151   am
    78    53    54    1
    79    53    56    1
    80    68    69    1
    81    54    55    2
    82    87    93   am
    83    87    88    2
    84    93    94    1
    85   111   112    2
    86   111   110    1
    87    70    71    2
    88    70    69    1
    89    94    97    1
    90   110   113    1
    91    97    98    1
    92    69    72    1
    93    90    89    1
    94    90    92   ar
    95   151   152    1
    96   155   152    1
    97   155   156    1
    98    56    57    1
    99    57    58    1
   100   152   153    1
   101    72    73    1
   102   113   114    1
   103   113   115    1
   104    98    99    1
   105    39    38    2
   106    99   100    1
   107   114   116    1
   108    58    59    1
   109   153   154    2
   110    61    60    1
   111    18    16   ar
   112    18    19   ar
   113    38    37    1
   114   191   189    1
   115    59    60    2
   116    60    62    1
   117   190   189    1
   118    16    14   ar
   119   171   169    1
   120    19    17   ar
   121    37    40    1
   122    37    36    1
   123   183   182    1
   124   163   162    1
   125   189   188    1
   126   170   169    1
   127    31    30    2
   128   164   162    1
   129   180   182   ar
   130   180   178   ar
   131   169   166    1
   132   182   181   ar
   133    14    15   ar
   134    14    13    1
   135    36    30   am
   136    17    15   ar
   137   162   161    1
   138    30    29    1
   139   188   185    1
   140   198   196    1
   141   161   158    1
   142   222   221    2
   143   178   177   ar
   144    13    10    1
   145   166   167    1
   146   166   165    1
   147    34    33    2
   148   181   179   ar
   149   158   157    1
   150   158   159    1
   151   168   167    2
   152   185   184    1
   153   185   186    1
   154   221   220    1
   155   167   172   am
   156   217   216    1
   157    33    35   am
   158    33    32    1
   159    29    32    1
   160    29    28    1
   161    23    22    2
   162   197   196    1
   163     8     6    1
   164   187   186    2
   165   177   179   ar
   166   177   176    1
   167   196   193    1
   168     1     2    1
   169     9    10    1
   170     9     3   am
   171     5     6    1
   172     5     2    1
   173   220   219    1
   174    10    11    1
   175   160   159    2
   176   172   173    1
   177   218   216    1
   178    22    21    1
   179   173   176    1
   180   173   174    1
   181     6     7    1
   182     2     3    1
   183   216   213    1
   184   215   214    2
   185    11    12    2
   186     3     4    2
   187   193   192    1
   188   193   194    1
   189   213   214    1
   190   213   212    1
   191    24    21    1
   192    24    25    1
   193    21    20    1
   194   175   174    2
   195    26    25    1
   196   209   208    2
   197   212   208   am
   198   205   199    1
   199   205   204    1
   200    25    27    1
   201   194   199   am
   202   194   195    2
   203   208   207    1
   204   199   200    1
   205   204   203    1
   206   202   201    2
   207   210   207    1
   208   210   211    1
   209   201   200    1
   210   207   206    1
   211   200   203    1
