@<TRIPOS>MOLECULE
tmp/5ookB01.pdb
 137 130 0 0 0
SMALL
GASTEIGER

@<TRIPOS>ATOM
      1  N       -139.6000  133.7880   -4.9150 N.3    32  ALA32      -0.1231
      2  CA      -140.0330  132.3790   -5.1020 C.3    32  ALA32       0.1694
      3  C       -141.5410  132.2590   -5.0370 C.2    32  ALA32       0.2592
      4  O       -142.1220  131.4450   -5.7430 O.2    32  ALA32      -0.2718
      5  CB      -139.4180  131.4740   -4.0610 C.3    32  ALA32       0.0304
      6  N       -142.1590  133.1140   -4.2250 N.am   33  ASP33      -0.1974
      7  CA      -143.6300  133.1610   -4.0570 C.3    33  ASP33       0.1709
      8  C       -144.3750  134.1060   -4.9760 C.2    33  ASP33       0.2293
      9  O       -145.5840  134.2910   -4.8260 O.2    33  ASP33      -0.2864
     10  CB      -144.0010  133.4270   -2.5840 C.3    33  ASP33       0.1436
     11  CG      -143.8220  132.1870   -1.7380 C.2    33  ASP33       0.3671
     12  OD1     -144.1240  131.0610   -2.2150 O.co2  33  ASP33      -0.2456
     13  OD2     -143.3440  132.3020   -0.6020 O.co2  33  ASP33      -0.2456
     14  N       -145.5570  134.1670   -8.1210 N.3    35  ASN35      -0.1225
     15  CA      -146.7580  133.7810   -8.8580 C.3    35  ASN35       0.1785
     16  C       -148.0420  133.9890   -8.0190 C.2    35  ASN35       0.2597
     17  O       -149.0680  134.3470   -8.5310 O.2    35  ASN35      -0.2718
     18  CB      -146.6800  132.3260   -9.2740 C.3    35  ASN35       0.1169
     19  CG      -145.7470  132.0850  -10.4560 C.2    35  ASN35       0.2627
     20  OD1     -145.4590  132.9880  -11.2150 O.2    35  ASN35      -0.2716
     21  ND2     -145.2360  130.8500  -10.5510 N.am   35  ASN35      -0.0877
     22  N       -147.9650  133.6980   -6.7360 N.am   36  LYS36      -0.1980
     23  CA      -149.1150  133.7780   -5.8380 C.3    36  LYS36       0.1596
     24  C       -149.5540  135.2380   -5.6920 C.2    36  LYS36       0.2287
     25  O       -150.7640  135.5430   -5.7320 O.2    36  LYS36      -0.2864
     26  CB      -148.7400  133.2300   -4.4530 C.3    36  LYS36       0.0298
     27  CG      -148.3100  131.7540   -4.3790 C.3    36  LYS36       0.0038
     28  CD      -147.7130  131.4610   -3.0110 C.3    36  LYS36       0.0206
     29  CE      -147.3500  130.0290   -2.7920 C.3    36  LYS36       0.1093
     30  NZ      -146.3080  129.6080   -3.7500 N.3    36  LYS36      -0.1314
     31  N       -148.9780  137.6730   -7.8350 N.3    38  ILE38      -0.1231
     32  CA      -149.5650  138.1110   -9.0520 C.3    38  ILE38       0.1692
     33  C       -150.9760  137.5280   -9.2810 C.2    38  ILE38       0.2592
     34  O       -151.8210  138.2320   -9.8340 O.2    38  ILE38      -0.2718
     35  CB      -148.6200  137.8950  -10.2320 C.3    38  ILE38       0.0266
     36  CG1     -147.2630  138.5950  -10.0160 C.3    38  ILE38       0.0019
     37  CG2     -149.2390  138.4560  -11.5080 C.3    38  ILE38       0.0020
     38  CD1     -147.3700  140.1070   -9.6840 C.3    38  ILE38       0.0001
     39  N       -151.2560  136.2970   -8.8030 N.am   39  ASP39      -0.1960
     40  CA      -152.6390  135.8030   -8.7740 C.3    39  ASP39       0.1840
     41  C       -153.5670  136.6710   -7.9630 C.2    39  ASP39       0.2621
     42  O       -154.6780  136.9590   -8.4070 O.2    39  ASP39      -0.2715
     43  CB      -152.7400  134.4190   -8.1950 C.3    39  ASP39       0.1450
     44  CG      -152.5070  133.3150   -9.2120 C.2    39  ASP39       0.3671
     45  OD1     -153.0520  133.4240  -10.3290 O.co2  39  ASP39      -0.2456
     46  OD2     -151.7920  132.3550   -8.8610 O.co2  39  ASP39      -0.2456
     47  N       -153.1420  137.0400   -6.7560 N.am   40  ALA40      -0.1977
     48  CA      -153.9690  137.9190   -5.9250 C.3    40  ALA40       0.1597
     49  C       -154.2890  139.2460   -6.6070 C.2    40  ALA40       0.2287
     50  O       -155.4340  139.6480   -6.6480 O.2    40  ALA40      -0.2864
     51  CB      -153.3050  138.1800   -4.5930 C.3    40  ALA40       0.0319
     52  N       -154.2740  139.8150   -9.8060 N.3    42  ASN42      -0.1240
     53  CA      -155.1580  139.4730  -10.9370 C.3    42  ASN42       0.1653
     54  C       -156.6240  139.2300  -10.5010 C.2    42  ASN42       0.2266
     55  O       -157.5700  139.7230  -11.0850 O.2    42  ASN42      -0.2867
     56  CB      -154.6580  138.2130  -11.6240 C.3    42  ASN42       0.1155
     57  CG      -155.2980  137.9990  -12.9680 C.2    42  ASN42       0.2627
     58  OD1     -155.4930  138.9560  -13.6780 O.2    42  ASN42      -0.2716
     59  ND2     -155.5700  136.7350  -13.3450 N.am   42  ASN42      -0.0877
     60  N       -159.3750  136.3280   -3.4470 N.3   142  ALA142     -0.1231
     61  CA      -157.9570  136.0950   -3.7520 C.3   142  ALA142      0.1694
     62  C       -157.5080  134.6860   -3.2940 C.2   142  ALA142      0.2592
     63  O       -156.6390  134.0690   -3.9070 O.2   142  ALA142     -0.2718
     64  CB      -157.0760  137.1670   -3.0730 C.3   142  ALA142      0.0304
     65  N       -158.1020  134.2020   -2.2140 N.am  143  ASN143     -0.1960
     66  CA      -157.6920  132.9370   -1.6350 C.3   143  ASN143      0.1819
     67  C       -158.6250  131.7590   -1.9830 C.2   143  ASN143      0.2621
     68  O       -158.6110  130.7360   -1.3270 O.2   143  ASN143     -0.2715
     69  CB      -157.5900  133.1080   -0.1090 C.3   143  ASN143      0.1195
     70  CG      -156.4840  132.2520    0.4860 C.2   143  ASN143      0.2630
     71  OD1     -155.4730  131.9700   -0.2030 O.2   143  ASN143     -0.2716
     72  ND2     -156.6170  131.8950    1.7720 N.am  143  ASN143     -0.0877
     73  N       -159.4100  131.9050   -3.0350 N.am  144  ASP144     -0.1958
     74  CA      -160.3390  130.8630   -3.4690 C.3   144  ASP144      0.1825
     75  C       -159.5180  129.7090   -4.0470 C.2   144  ASP144      0.2464
     76  O       -158.7320  129.9270   -4.9850 O.2   144  ASP144     -0.2730
     77  CB      -161.2360  131.4700   -4.5570 C.3   144  ASP144      0.1450
     78  CG      -162.2800  130.5100   -5.1300 C.2   144  ASP144      0.3671
     79  OD1     -162.3260  129.2940   -4.8570 O.co2 144  ASP144     -0.2456
     80  OD2     -163.0590  131.0320   -5.9550 O.co2 144  ASP144     -0.2456
     81  N       -159.7320  128.4790   -3.5510 N.am  145  PRO145     -0.2727
     82  CA      -158.8810  127.3940   -4.0050 C.3   145  PRO145      0.1402
     83  C       -159.3050  126.7680   -5.3340 C.2   145  PRO145      0.2269
     84  O       -158.6550  125.8650   -5.7690 O.2   145  PRO145     -0.2865
     85  CB      -159.0190  126.3860   -2.8720 C.3   145  PRO145      0.0296
     86  CG      -160.4320  126.5600   -2.4800 C.3   145  PRO145      0.0237
     87  CD      -160.6540  128.0230   -2.5060 C.3   145  PRO145      0.0939
     88  N       -157.0200  126.9180   -9.6140 N.3   148  ILE148     -0.1231
     89  CA      -155.6630  127.3960   -9.3340 C.3   148  ILE148      0.1692
     90  C       -154.7870  126.2590   -8.7590 C.2   148  ILE148      0.2593
     91  O       -155.2790  125.3340   -8.1440 O.2   148  ILE148     -0.2718
     92  CB      -155.6980  128.6340   -8.4290 C.3   148  ILE148      0.0266
     93  CG1     -154.3450  129.3700   -8.4890 C.3   148  ILE148      0.0019
     94  CG2     -156.1060  128.2560   -7.0120 C.3   148  ILE148      0.0020
     95  CD1     -154.4500  130.8040   -8.1680 C.3   148  ILE148      0.0001
     96  N       -153.4920  126.3170   -9.0000 N.am  149  THR149     -0.1939
     97  CA      -152.6010  125.2980   -8.5690 C.3   149  THR149      0.2028
     98  C       -152.5740  125.4220   -7.0440 C.2   149  THR149      0.2642
     99  O       -152.5940  126.5430   -6.4810 O.2   149  THR149     -0.2714
    100  CB      -151.2100  125.4720   -9.2030 C.3   149  THR149      0.1808
    101  OG1     -151.3250  125.4100  -10.6500 O.3   149  THR149     -0.2208
    102  CG2     -150.3060  124.3820   -8.6750 C.3   149  THR149      0.0379
    103  N       -152.5850  124.2890   -6.3820 N.am  150  GLN150     -0.1963
    104  CA      -152.8330  124.2530   -4.9580 C.3   150  GLN150      0.1733
    105  C       -151.5540  124.5830   -4.1640 C.2   150  GLN150      0.2616
    106  O       -150.4520  124.1010   -4.4480 O.2   150  GLN150     -0.2715
    107  CB      -153.3910  122.8930   -4.5660 C.3   150  GLN150      0.0408
    108  CG      -154.7790  122.5260   -5.1180 C.3   150  GLN150      0.0908
    109  CD      -155.9090  123.4790   -4.6700 C.2   150  GLN150      0.2608
    110  OE1     -156.4410  123.3580   -3.5310 O.2   150  GLN150     -0.2717
    111  NE2     -156.2870  124.4310   -5.5540 N.am  150  GLN150     -0.0878
    112  N       -151.7030  125.4090   -3.1500 N.am  151  GLY151     -0.1955
    113  CA      -150.5950  125.7450   -2.2610 C.3   151  GLY151      0.1869
    114  C       -150.9860  126.7860   -1.2330 C.2   151  GLY151      0.2309
    115  O       -152.1600  127.2040   -1.1200 O.2   151  GLY151     -0.2863
    116  N       -150.9270  130.3800    0.5130 N.3   153  CYS153     -0.1235
    117  CA      -150.8200  131.8080    0.2930 C.3   153  CYS153      0.1677
    118  C       -151.0690  132.5700    1.5990 C.2   153  CYS153      0.2270
    119  O       -151.4580  133.7370    1.5550 O.2   153  CYS153     -0.2867
    120  CB      -151.8470  132.2340   -0.7210 C.3   153  CYS153      0.0956
    121  SG      -151.6600  131.4790   -2.3570 S.3   153  CYS153     -0.0801
    122  N       -149.0320  135.9680    2.1470 N.3   156  LEU156     -0.1231
    123  CA      -149.5260  136.8880    1.1900 C.3   156  LEU156      0.1693
    124  C       -150.9320  137.4940    1.5630 C.2   156  LEU156      0.2591
    125  O       -151.1460  138.7290    1.4360 O.2   156  LEU156     -0.2718
    126  CB      -149.5370  136.1990   -0.1890 C.3   156  LEU156      0.0284
    127  CG      -150.1400  137.0150   -1.2840 C.3   156  LEU156      0.0019
    128  CD1     -149.3150  138.3040   -1.4270 C.3   156  LEU156      0.0001
    129  CD2     -150.2270  136.2040   -2.5910 C.3   156  LEU156      0.0001
    130  N       -151.8820  136.6630    1.9980 N.am  157  MET157     -0.1979
    131  CA      -153.1930  137.1550    2.4060 C.3   157  MET157      0.1605
    132  C       -153.0990  138.0560    3.6540 C.2   157  MET157      0.2287
    133  O       -153.8500  139.0440    3.7410 O.2   157  MET157     -0.2864
    134  CB      -154.2160  136.0490    2.6750 C.3   157  MET157      0.0413
    135  CG      -154.4580  135.1780    1.4520 C.3   157  MET157      0.0598
    136  SD      -155.1270  136.0780    0.0650 S.3   157  MET157     -0.1393
    137  CE      -154.3530  135.3430   -1.3470 C.3   157  MET157      0.0692
@<TRIPOS>BOND
     1    58    57    2
     2    59    57   am
     3    57    56    1
     4    56    53    1
     5    37    35    1
     6    20    19    2
     7    55    54    2
     8    53    54    1
     9    53    52    1
    10   101   100    1
    11    21    19   am
    12    19    18    1
    13    45    44   ar
    14    35    36    1
    15    35    32    1
    16    36    38    1
    17    34    33    2
    18    88    89    1
    19    89    90    1
    20    89    92    1
    21    33    32    1
    22    33    39   am
    23    18    15    1
    24    44    46   ar
    25    44    43    1
    26   100   102    1
    27   100    97    1
    28    32    31    1
    29    96    90   am
    30    96    97    1
    31    15    14    1
    32    15    16    1
    33    39    40    1
    34    40    43    1
    35    40    41    1
    36    90    91    2
    37    97    98    1
    38    17    16    2
    39    93    92    1
    40    93    95    1
    41    92    94    1
    42    42    41    2
    43    16    22   am
    44    41    47   am
    45    98    99    2
    46    98   103   am
    47    47    48    1
    48    22    23    1
    49    50    49    2
    50    49    48    1
    51   103   104    1
    52    80    78   ar
    53    48    51    1
    54    23    24    1
    55    23    26    1
    56    84    83    2
    57     4     3    2
    58    25    24    2
    59   111   109   am
    60    83    82    1
    61    78    79   ar
    62    78    77    1
    63   108   109    1
    64   108   107    1
    65     2     3    1
    66     2     1    1
    67     2     5    1
    68     3     6   am
    69    76    75    2
    70     8     9    2
    71     8     7    1
    72   104   107    1
    73   104   105    1
    74   109   110    2
    75    77    74    1
    76    26    27    1
    77   106   105    2
    78    27    28    1
    79     6     7    1
    80   105   112   am
    81     7    10    1
    82    75    81   am
    83    75    74    1
    84    82    81    1
    85    82    85    1
    86    63    62    2
    87    61    60    1
    88    61    62    1
    89    61    64    1
    90    30    29    1
    91    81    87    1
    92    74    73    1
    93    62    65   am
    94   112   113    1
    95    73    67   am
    96    28    29    1
    97    85    86    1
    98   129   127    1
    99    10    11    1
   100    87    86    1
   101   121   120    1
   102   113   114    1
   103    12    11   ar
   104    65    66    1
   105    67    66    1
   106    67    68    2
   107    11    13   ar
   108    66    69    1
   109   128   127    1
   110   137   136    1
   111   127   126    1
   112   114   115    2
   113   120   117    1
   114    71    70    2
   115   126   123    1
   116    69    70    1
   117   136   135    1
   118   117   116    1
   119   117   118    1
   120    70    72   am
   121   123   124    1
   122   123   122    1
   123   125   124    2
   124   135   134    1
   125   119   118    2
   126   124   130   am
   127   130   131    1
   128   131   134    1
   129   131   132    1
   130   132   133    2
