@<TRIPOS>MOLECULE
tmp/5ookA00.pdb
 235 230 0 0 0
SMALL
GASTEIGER

@<TRIPOS>ATOM
      1  N       -106.8260  154.0360  -11.6510 N.3    59  VAL59      -0.1231
      2  CA      -106.9920  155.4650  -11.9400 C.3    59  VAL59       0.1692
      3  C       -105.6820  156.2340  -11.7190 C.2    59  VAL59       0.2592
      4  O       -105.3360  157.0970  -12.5240 O.2    59  VAL59      -0.2718
      5  CB      -108.1460  156.0950  -11.1010 C.3    59  VAL59       0.0266
      6  CG1     -108.2110  157.6110  -11.2750 C.3    59  VAL59       0.0020
      7  CG2     -109.4860  155.4790  -11.4840 C.3    59  VAL59       0.0020
      8  N       -104.9770  155.9280  -10.6310 N.am   60  TYR60      -0.1976
      9  CA      -103.6910  156.5770  -10.3510 C.3    60  TYR60       0.1639
     10  C       -102.6210  156.2160  -11.3880 C.2    60  TYR60       0.2290
     11  O       -101.7490  157.0410  -11.6370 O.2    60  TYR60      -0.2864
     12  CB      -103.1770  156.2710   -8.9360 C.3    60  TYR60       0.0560
     13  CG      -104.1810  156.4950   -7.8140 C.ar   60  TYR60      -0.0198
     14  CD1     -105.0780  157.5590   -7.8430 C.ar   60  TYR60      -0.0009
     15  CD2     -104.2070  155.6510   -6.7030 C.ar   60  TYR60      -0.0009
     16  CE1     -105.9930  157.7540   -6.8160 C.ar   60  TYR60       0.0417
     17  CE2     -105.1150  155.8420   -5.6690 C.ar   60  TYR60       0.0417
     18  CZ      -106.0060  156.8910   -5.7280 C.ar   60  TYR60       0.1957
     19  OH      -106.8940  157.0940   -4.7040 O.3    60  TYR60      -0.2866
     20  N       -102.8340  162.9850  -10.8800 N.3    66  THR66      -0.1218
     21  CA      -103.7770  162.9270   -9.7490 C.3    66  THR66       0.1862
     22  C       -103.0940  162.5600   -8.4160 C.2    66  THR66       0.2287
     23  O       -103.5280  163.0090   -7.3520 O.2    66  THR66      -0.2866
     24  CB      -104.9670  161.9540  -10.0220 C.3    66  THR66       0.1770
     25  OG1     -104.5180  160.5920  -10.0630 O.3    66  THR66      -0.2211
     26  CG2     -105.6890  162.2900  -11.3470 C.3    66  THR66       0.0375
     27  N       -107.0640  170.5550   -3.4110 N.3    72  SER72      -0.1202
     28  CA      -108.2750  169.8750   -2.9240 C.3    72  SER72       0.2020
     29  C       -108.7580  168.6690   -3.7360 C.2    72  SER72       0.2619
     30  O       -109.0400  167.6080   -3.1780 O.2    72  SER72      -0.2717
     31  CB      -109.4340  170.8860   -2.8860 C.3    72  SER72       0.2103
     32  OG      -109.3720  171.7430   -1.7710 O.3    72  SER72      -0.2182
     33  N       -108.8540  168.8470   -5.0480 N.am   73  ASN73      -0.1960
     34  CA      -109.5470  167.8900   -5.9090 C.3    73  ASN73       0.1819
     35  C       -108.7280  166.6640   -6.3580 C.2    73  ASN73       0.2621
     36  O       -109.2120  165.8540   -7.1700 O.2    73  ASN73      -0.2715
     37  CB      -110.1390  168.6180   -7.1240 C.3    73  ASN73       0.1195
     38  CG      -109.0770  169.2470   -8.0110 C.2    73  ASN73       0.2630
     39  OD1     -108.0270  169.6630   -7.5300 O.2    73  ASN73      -0.2716
     40  ND2     -109.3460  169.3220   -9.3090 N.am   73  ASN73      -0.0877
     41  N       -107.5180  166.5020   -5.8080 N.am   74  TYR74      -0.1960
     42  CA      -106.5870  165.4500   -6.2260 C.3    74  TYR74       0.1771
     43  C       -106.2380  164.4870   -5.1000 C.2    74  TYR74       0.2619
     44  O       -106.3710  164.8220   -3.9180 O.2    74  TYR74      -0.2715
     45  CB      -105.3060  166.0770   -6.7520 C.3    74  TYR74       0.0574
     46  CG      -105.5010  166.8260   -8.0400 C.ar   74  TYR74      -0.0198
     47  CD1     -105.9420  166.1660   -9.1940 C.ar   74  TYR74      -0.0009
     48  CD2     -105.2370  168.1970   -8.1200 C.ar   74  TYR74      -0.0009
     49  CE1     -106.1120  166.8510  -10.3880 C.ar   74  TYR74       0.0417
     50  CE2     -105.4040  168.8890   -9.3110 C.ar   74  TYR74       0.0417
     51  CZ      -105.8370  168.2140  -10.4400 C.ar   74  TYR74       0.1957
     52  OH      -106.0140  168.9030  -11.6090 O.3    74  TYR74      -0.2866
     53  N       -105.7700  163.3000   -5.4860 N.am   75  ALA75      -0.1977
     54  CA      -105.3290  162.2710   -4.5420 C.3    75  ALA75       0.1597
     55  C       -103.8160  162.3480   -4.2950 C.2    75  ALA75       0.2287
     56  O       -103.1090  161.3580   -4.4620 O.2    75  ALA75      -0.2864
     57  CB      -105.7300  160.8870   -5.0460 C.3    75  ALA75       0.0319
     58  N       -107.0200  162.8870    0.1620 N.3    80  GLY80      -0.1225
     59  CA      -107.3910  162.8690   -1.2430 C.3    80  GLY80       0.1811
     60  C       -107.6300  161.4660   -1.7710 C.2    80  GLY80       0.2280
     61  O       -108.6110  161.2270   -2.4790 O.2    80  GLY80      -0.2866
     62  N       -110.8920  160.0550   -0.1150 N.3    83  LYS83      -0.1231
     63  CA      -112.0320  160.6050   -0.8720 C.3    83  LYS83       0.1693
     64  C       -112.2110  159.8450   -2.1620 C.2    83  LYS83       0.2592
     65  O       -113.3400  159.5190   -2.5350 O.2    83  LYS83      -0.2718
     66  CB      -111.8650  162.0990   -1.2670 C.3    83  LYS83       0.0285
     67  CG      -112.1970  163.1600   -0.2230 C.3    83  LYS83       0.0035
     68  CD      -113.4460  162.8130    0.5700 C.3    83  LYS83       0.0206
     69  CE      -114.2040  164.0360    1.0360 C.3    83  LYS83       0.1093
     70  NZ      -113.3700  165.0370    1.7460 N.3    83  LYS83      -0.1314
     71  N       -111.1100  159.5900   -2.8600 N.am   84  CYS84      -0.1970
     72  CA      -111.2130  158.9310   -4.1420 C.3    84  CYS84       0.1712
     73  C       -111.7790  157.5140   -4.0320 C.2    84  CYS84       0.2296
     74  O       -112.6790  157.1470   -4.7880 O.2    84  CYS84      -0.2864
     75  CB      -109.8870  158.8790   -4.8680 C.3    84  CYS84       0.0983
     76  SG      -110.1110  158.1860   -6.5140 S.3    84  CYS84      -0.0798
     77  N       -113.4970  156.2530   -1.5970 N.3    86  ARG86      -0.1231
     78  CA      -114.8810  156.4390   -1.1530 C.3    86  ARG86       0.1694
     79  C       -115.8230  156.5830   -2.3540 C.2    86  ARG86       0.2592
     80  O       -116.7490  155.7780   -2.4960 O.2    86  ARG86      -0.2718
     81  CB      -115.0150  157.6380   -0.1960 C.3    86  ARG86       0.0321
     82  CG      -116.4350  157.9110    0.3090 C.3    86  ARG86       0.0489
     83  CD      -116.6460  159.3660    0.6900 C.3    86  ARG86       0.2205
     84  NE      -116.5140  160.2580   -0.4670 N.pl3  86  ARG86      -0.0865
     85  CZ      -116.7620  161.5630   -0.4580 C.cat  86  ARG86       0.5346
     86  NH1     -117.1750  162.1820    0.6500 N.pl3  86  ARG86       0.1354
     87  NH2     -116.6130  162.2560   -1.5830 N.pl3  86  ARG86       0.1354
     88  N       -115.5620  157.5660   -3.2170 N.am   87  ASP87      -0.1960
     89  CA      -116.3580  157.7660   -4.4360 C.3    87  ASP87       0.1840
     90  C       -116.4830  156.4830   -5.2650 C.2    87  ASP87       0.2621
     91  O       -117.5650  156.1710   -5.7560 O.2    87  ASP87      -0.2715
     92  CB      -115.7790  158.8410   -5.3440 C.3    87  ASP87       0.1450
     93  CG      -115.8290  160.2310   -4.7510 C.2    87  ASP87       0.3671
     94  OD1     -116.3710  160.4320   -3.6260 O.co2  87  ASP87      -0.2456
     95  OD2     -115.3050  161.1370   -5.4480 O.co2  87  ASP87      -0.2456
     96  N       -115.3940  155.7440   -5.4120 N.am   88  ILE88      -0.1977
     97  CA      -115.4390  154.4920   -6.1630 C.3    88  ILE88       0.1596
     98  C       -116.3320  153.4620   -5.4550 C.2    88  ILE88       0.2287
     99  O       -117.0030  152.6850   -6.1190 O.2    88  ILE88      -0.2864
    100  CB      -114.0420  153.8500   -6.3750 C.3    88  ILE88       0.0276
    101  CG1     -113.0580  154.7950   -7.0680 C.3    88  ILE88       0.0022
    102  CG2     -114.1550  152.5740   -7.2010 C.3    88  ILE88       0.0022
    103  CD1     -113.5210  155.3140   -8.4080 C.3    88  ILE88       0.0001
    104  N       -118.9570  154.1980   -3.5870 N.3    90  TYR90      -0.1227
    105  CA      -120.3090  154.6370   -3.9630 C.3    90  TYR90       0.1736
    106  C       -120.7840  154.1060   -5.3220 C.2    90  TYR90       0.2595
    107  O       -121.8980  153.6130   -5.4170 O.2    90  TYR90      -0.2718
    108  CB      -120.4170  156.1630   -4.0210 C.3    90  TYR90       0.0548
    109  CG      -120.2830  156.9180   -2.7160 C.ar   90  TYR90      -0.0200
    110  CD1     -120.2130  156.2700   -1.4650 C.ar   90  TYR90      -0.0009
    111  CD2     -120.2400  158.3120   -2.7360 C.ar   90  TYR90      -0.0009
    112  CE1     -120.0920  157.0110   -0.2930 C.ar   90  TYR90       0.0417
    113  CE2     -120.1400  159.0510   -1.5710 C.ar   90  TYR90       0.0417
    114  CZ      -120.0730  158.4100   -0.3640 C.ar   90  TYR90       0.1957
    115  OH      -119.9810  159.1990    0.7480 O.3    90  TYR90      -0.2866
    116  N       -119.9810  154.2280   -6.3720 N.am   91  TYR91      -0.1976
    117  CA      -120.3980  153.7130   -7.6900 C.3    91  TYR91       0.1639
    118  C       -120.6560  152.2150   -7.5790 C.2    91  TYR91       0.2290
    119  O       -121.6770  151.7390   -8.0250 O.2    91  TYR91      -0.2864
    120  CB      -119.3580  153.9720   -8.8030 C.3    91  TYR91       0.0560
    121  CG      -119.3530  155.3700   -9.4140 C.ar   91  TYR91      -0.0198
    122  CD1     -118.8310  156.4510   -8.7080 C.ar   91  TYR91      -0.0009
    123  CD2     -119.8460  155.6090  -10.7000 C.ar   91  TYR91      -0.0009
    124  CE1     -118.8100  157.7270   -9.2450 C.ar   91  TYR91       0.0417
    125  CE2     -119.8210  156.8970  -11.2570 C.ar   91  TYR91       0.0417
    126  CZ      -119.2930  157.9520  -10.5270 C.ar   91  TYR91       0.1957
    127  OH      -119.2040  159.2410  -11.0310 O.3    91  TYR91      -0.2866
    128  N       -121.3300  150.3320   -4.7970 N.3    93  ARG93      -0.1231
    129  CA      -122.4690  150.0480   -3.9410 C.3    93  ARG93       0.1694
    130  C       -123.8090  150.3320   -4.6590 C.2    93  ARG93       0.2591
    131  O       -124.7070  149.4880   -4.6690 O.2    93  ARG93      -0.2718
    132  CB      -122.3570  150.8310   -2.6420 C.3    93  ARG93       0.0321
    133  CG      -123.4420  150.5140   -1.6270 C.3    93  ARG93       0.0489
    134  CD      -123.0850  151.0140   -0.2300 C.3    93  ARG93       0.2205
    135  NE      -122.6930  152.4160   -0.2680 N.pl3  93  ARG93      -0.0865
    136  CZ      -123.5140  153.4440   -0.3760 C.cat  93  ARG93       0.5346
    137  NH1     -124.8430  153.2890   -0.4230 N.pl3  93  ARG93       0.1354
    138  NH2     -122.9970  154.6570   -0.4230 N.pl3  93  ARG93       0.1354
    139  N       -123.8850  151.4830   -5.3090 N.am   94  ILE94      -0.1980
    140  CA      -125.0730  151.9060   -6.0490 C.3    94  ILE94       0.1595
    141  C       -125.3380  150.9780   -7.2610 C.2    94  ILE94       0.2287
    142  O       -126.4700  150.5890   -7.4970 O.2    94  ILE94      -0.2864
    143  CB      -125.0350  153.4470   -6.3390 C.3    94  ILE94       0.0276
    144  CG1     -125.0560  154.1820   -4.9950 C.3    94  ILE94       0.0022
    145  CG2     -126.2530  153.9310   -7.1110 C.3    94  ILE94       0.0022
    146  CD1     -124.7420  155.6540   -5.0650 C.3    94  ILE94       0.0001
    147  N       -129.5970  158.1990   -6.9710 N.3   110  TYR110     -0.1227
    148  CA      -128.5340  158.3870   -6.0180 C.3   110  TYR110      0.1736
    149  C       -127.2410  158.9680   -6.6220 C.2   110  TYR110      0.2595
    150  O       -126.5300  159.6570   -5.9090 O.2   110  TYR110     -0.2718
    151  CB      -128.2570  157.0700   -5.3010 C.3   110  TYR110      0.0548
    152  CG      -129.4320  156.4890   -4.5220 C.ar  110  TYR110     -0.0200
    153  CD1     -130.5220  157.2580   -4.1090 C.ar  110  TYR110     -0.0009
    154  CD2     -129.4150  155.1590   -4.1630 C.ar  110  TYR110     -0.0009
    155  CE1     -131.5610  156.6940   -3.3860 C.ar  110  TYR110      0.0417
    156  CE2     -130.4390  154.5910   -3.4390 C.ar  110  TYR110      0.0417
    157  CZ      -131.5000  155.3470   -3.0550 C.ar  110  TYR110      0.1957
    158  OH      -132.4730  154.7250   -2.3270 O.3   110  TYR110     -0.2866
    159  N       -126.9720  158.7340   -7.9130 N.am  111  LEU111     -0.1980
    160  CA      -125.7080  159.1200   -8.5100 C.3   111  LEU111      0.1596
    161  C       -125.7830  159.9710   -9.7850 C.2   111  LEU111      0.2287
    162  O       -125.0880  160.9940   -9.8850 O.2   111  LEU111     -0.2864
    163  CB      -124.8720  157.8790   -8.7720 C.3   111  LEU111      0.0297
    164  CG      -123.4180  158.0820   -9.2280 C.3   111  LEU111      0.0022
    165  CD1     -122.4820  157.1610   -8.4570 C.3   111  LEU111      0.0001
    166  CD2     -123.2610  157.8400  -10.7300 C.3   111  LEU111      0.0001
    167  N       -125.0080  164.5490  -11.3960 N.3   115  LEU115     -0.1245
    168  CA      -123.6000  164.1580  -11.4940 C.3   115  LEU115      0.1561
    169  C       -122.6980  165.2170  -12.1590 C.2   115  LEU115      0.2260
    170  O       -121.6220  165.5150  -11.6390 O.2   115  LEU115     -0.2867
    171  CB      -123.4330  162.8260  -12.2410 C.3   115  LEU115      0.0270
    172  CG      -122.0700  162.1420  -12.0950 C.3   115  LEU115      0.0019
    173  CD1     -121.6830  161.8920  -10.6360 C.3   115  LEU115      0.0001
    174  CD2     -122.1180  160.8480  -12.8730 C.3   115  LEU115      0.0001
    175  N       -122.0180  168.1350   -9.8430 N.3   118  ILE118     -0.1231
    176  CA      -121.0700  167.7160   -8.8130 C.3   118  ILE118      0.1692
    177  C       -119.6330  167.7300   -9.3560 C.2   118  ILE118      0.2592
    178  O       -118.7450  168.3260   -8.7420 O.2   118  ILE118     -0.2718
    179  CB      -121.3970  166.2870   -8.2890 C.3   118  ILE118      0.0266
    180  CG1     -122.7720  166.2320   -7.6260 C.3   118  ILE118      0.0019
    181  CG2     -120.3540  165.7680   -7.3120 C.3   118  ILE118      0.0020
    182  CD1     -123.2640  167.5300   -7.0140 C.3   118  ILE118      0.0001
    183  N       -119.4190  167.0390  -10.4760 N.am  119  ASN119     -0.1974
    184  CA      -118.1020  166.9390  -11.0840 C.3   119  ASN119      0.1688
    185  C       -117.5210  168.3370  -11.4920 C.2   119  ASN119      0.2292
    186  O       -116.3410  168.6040  -11.2450 O.2   119  ASN119     -0.2864
    187  CB      -118.1210  165.9510  -12.2660 C.3   119  ASN119      0.1181
    188  CG      -118.3200  164.5060  -11.8270 C.2   119  ASN119      0.2629
    189  OD1     -118.1240  164.1450  -10.6560 O.2   119  ASN119     -0.2716
    190  ND2     -118.7110  163.6700  -12.7680 N.am  119  ASN119     -0.0877
    191  N       -116.8210  170.5840   -8.0790 N.3   122  PHE122     -0.1241
    192  CA      -115.6680  170.1080   -7.3030 C.3   122  PHE122      0.1605
    193  C       -114.3980  169.7630   -8.1000 C.2   122  PHE122      0.2264
    194  O       -113.4420  169.2190   -7.5280 O.2   122  PHE122     -0.2867
    195  CB      -116.1020  168.9530   -6.4230 C.3   122  PHE122      0.0534
    196  CG      -117.0550  169.3720   -5.3480 C.ar  122  PHE122     -0.0203
    197  CD1     -116.5900  170.0480   -4.2240 C.ar  122  PHE122     -0.0042
    198  CD2     -118.4080  169.1130   -5.4560 C.ar  122  PHE122     -0.0042
    199  CE1     -117.4490  170.4430   -3.2240 C.ar  122  PHE122     -0.0003
    200  CE2     -119.2730  169.5220   -4.4690 C.ar  122  PHE122     -0.0003
    201  CZ      -118.7920  170.1850   -3.3460 C.ar  122  PHE122     -0.0000
    202  N       -113.6770  167.5870  -10.4810 N.3   124  LEU124     -0.1245
    203  CA      -113.3740  166.1760  -10.6190 C.3   124  LEU124      0.1561
    204  C       -113.5940  165.8450  -12.0770 C.2   124  LEU124      0.2260
    205  O       -114.6040  166.2350  -12.6540 O.2   124  LEU124     -0.2867
    206  CB      -114.2980  165.3320   -9.7320 C.3   124  LEU124      0.0270
    207  CG      -114.3120  165.7210   -8.2470 C.3   124  LEU124      0.0019
    208  CD1     -115.4950  165.1380   -7.5060 C.3   124  LEU124      0.0001
    209  CD2     -113.0140  165.3130   -7.5690 C.3   124  LEU124      0.0001
    210  N       -111.8150  160.0540  -14.9610 N.3   128  TRP128     -0.1227
    211  CA      -111.2550  159.2890  -13.8250 C.3   128  TRP128      0.1737
    212  C       -112.1560  158.1360  -13.4340 C.2   128  TRP128      0.2595
    213  O       -111.7170  156.9920  -13.3160 O.2   128  TRP128     -0.2718
    214  CB      -111.0760  160.1640  -12.5790 C.3   128  TRP128      0.0564
    215  CG      -110.1480  161.3450  -12.7260 C.ar  128  TRP128      0.0003
    216  CD1     -109.2370  161.5590  -13.7110 C.ar  128  TRP128      0.0946
    217  CD2     -110.0440  162.4540  -11.8320 C.ar  128  TRP128      0.0152
    218  NE1     -108.5710  162.7410  -13.4870 N.ar  128  TRP128     -0.2442
    219  CE2     -109.0510  163.3100  -12.3400 C.ar  128  TRP128      0.0810
    220  CE3     -110.6960  162.8050  -10.6450 C.ar  128  TRP128      0.0012
    221  CZ2     -108.6900  164.4980  -11.7080 C.ar  128  TRP128      0.0191
    222  CZ3     -110.3310  163.9890  -10.0050 C.ar  128  TRP128      0.0001
    223  CH2     -109.3430  164.8240  -10.5430 C.ar  128  TRP128      0.0015
    224  N       -113.4310  158.4760  -13.2400 N.am  129  TYR129     -0.1976
    225  CA      -114.4480  157.5310  -12.8330 C.3   129  TYR129      0.1639
    226  C       -114.7580  156.5510  -13.9610 C.2   129  TYR129      0.2290
    227  O       -115.1190  155.4040  -13.6910 O.2   129  TYR129     -0.2864
    228  CB      -115.7030  158.2790  -12.3570 C.3   129  TYR129      0.0560
    229  CG      -115.4340  159.1520  -11.1320 C.ar  129  TYR129     -0.0198
    230  CD1     -115.3350  158.5920   -9.8600 C.ar  129  TYR129     -0.0009
    231  CD2     -115.2440  160.5290  -11.2620 C.ar  129  TYR129     -0.0009
    232  CE1     -115.0670  159.3850   -8.7550 C.ar  129  TYR129      0.0417
    233  CE2     -114.9780  161.3300  -10.1640 C.ar  129  TYR129      0.0417
    234  CZ      -114.8890  160.7580   -8.9180 C.ar  129  TYR129      0.1957
    235  OH      -114.6310  161.5540   -7.8400 O.3   129  TYR129     -0.2866
@<TRIPOS>BOND
     1   210   211    1
     2   226   227    2
     3   226   225    1
     4   211   212    1
     5   211   214    1
     6   216   218   ar
     7   216   215   ar
     8   218   219   ar
     9   212   213    2
    10   212   224   am
    11   224   225    1
    12   174   172    1
    13   225   228    1
    14   190   188   am
    15   215   214    1
    16   215   217   ar
    17   205   204    2
    18     4     3    2
    19   228   229    1
    20   219   217   ar
    21   219   221   ar
    22   187   188    1
    23   187   184    1
    24   171   172    1
    25   171   168    1
    26   169   170    2
    27   169   168    1
    28   172   173    1
    29   204   203    1
    30     2     3    1
    31     2     1    1
    32     2     5    1
    33   217   220   ar
    34   188   189    2
    35     3     8   am
    36   221   223   ar
    37    11    10    2
    38    52    51    1
    39   168   167    1
    40   185   186    2
    41   185   184    1
    42     7     5    1
    43    10     9    1
    44    26    24    1
    45     6     5    1
    46   231   229   ar
    47   231   233   ar
    48   125   123   ar
    49   125   126   ar
    50   229   230   ar
    51   184   183    1
    52   127   126    1
    53    20    21    1
    54   166   164    1
    55   123   121   ar
    56   220   222   ar
    57     8     9    1
    58   203   202    1
    59   203   206    1
    60   223   222   ar
    61   126   124   ar
    62   183   177   am
    63    51    49   ar
    64    51    50   ar
    65    49    47   ar
    66     9    12    1
    67   233   234   ar
    68    25    24    1
    69    24    21    1
    70   162   161    2
    71   230   232   ar
    72   175   176    1
    73   161   160    1
    74    21    22    1
    75   206   207    1
    76   121   120    1
    77   121   122   ar
    78   177   176    1
    79   177   178    2
    80    50    48   ar
    81    40    38   am
    82   124   122   ar
    83   164   163    1
    84   164   165    1
    85    47    46   ar
    86    12    13    1
    87   234   232   ar
    88   234   235    1
    89   176   179    1
    90   120   117    1
    91   163   160    1
    92   160   159    1
    93    22    23    2
    94   103   101    1
    95   179   180    1
    96   179   181    1
    97   207   209    1
    98   207   208    1
    99    48    46   ar
   100   193   194    2
   101   193   192    1
   102   191   192    1
   103    46    45    1
   104   119   118    2
   105    38    39    2
   106    38    37    1
   107   159   149   am
   108    14    13   ar
   109    14    16   ar
   110    13    15   ar
   111   117   118    1
   112   117   116    1
   113   180   182    1
   114   142   141    2
   115   192   195    1
   116   141   140    1
   117   102   100    1
   118    36    35    2
   119    37    34    1
   120   145   143    1
   121   101   100    1
   122   147   148    1
   123    16    18   ar
   124    45    42    1
   125    15    17   ar
   126   149   148    1
   127   149   150    2
   128    76    75    1
   129   195   196    1
   130   100    97    1
   131   116   106   am
   132    35    34    1
   133    35    41   am
   134   143   140    1
   135   143   144    1
   136    42    41    1
   137    42    43    1
   138    97    98    1
   139    97    96    1
   140    99    98    2
   141   140   139    1
   142   148   151    1
   143    34    33    1
   144    91    90    2
   145    18    17   ar
   146    18    19    1
   147    53    43   am
   148    53    54    1
   149   198   196   ar
   150   198   200   ar
   151    95    93   ar
   152   107   106    2
   153    96    90   am
   154   196   197   ar
   155    92    93    1
   156    92    89    1
   157   106   105    1
   158   139   130   am
   159   151   152    1
   160    90    89    1
   161    43    44    2
   162   146   144    1
   163    33    29   am
   164    57    54    1
   165    75    72    1
   166   128   129    1
   167    74    73    2
   168    93    94   ar
   169   131   130    2
   170   130   129    1
   171    54    55    1
   172   152   154   ar
   173   152   153   ar
   174   200   201   ar
   175    56    55    2
   176    89    88    1
   177   197   199   ar
   178   154   156   ar
   179    72    73    1
   180    72    71    1
   181   153   155   ar
   182   108   105    1
   183   108   109    1
   184   105   104    1
   185   129   132    1
   186    29    30    2
   187    29    28    1
   188   156   157   ar
   189    27    28    1
   190   155   157   ar
   191   201   199   ar
   192    88    79   am
   193   157   158    1
   194    28    31    1
   195    31    32    1
   196    71    64   am
   197   111   109   ar
   198   111   113   ar
   199   109   110   ar
   200   132   133    1
   201    65    64    2
   202    80    79    2
   203    61    60    2
   204    79    78    1
   205    64    63    1
   206    60    59    1
   207   133   134    1
   208    77    78    1
   209    87    85    1
   210   113   114   ar
   211   110   112   ar
   212    66    63    1
   213    66    67    1
   214    59    58    1
   215    78    81    1
   216    63    62    1
   217    84    85    2
   218    84    83    1
   219    85    86    1
   220   138   136    1
   221   137   136    1
   222   136   135    2
   223   114   112   ar
   224   114   115    1
   225   135   134    1
   226    67    68    1
   227    81    82    1
   228    82    83    1
   229    68    69    1
   230    69    70    1
