@<TRIPOS>MOLECULE
tmp/5oonA02.pdb
 83 79 0 0 0
SMALL
GASTEIGER

@<TRIPOS>ATOM
      1  N         28.1250    7.2430    8.5170 N.3   125  VAL125     -0.1245
      2  CA        27.3190    6.2100    9.1680 C.3   125  VAL125      0.1561
      3  C         26.1880    6.8340    9.9790 C.2   125  VAL125      0.2260
      4  O         25.0310    6.3980    9.8920 O.2   125  VAL125     -0.2867
      5  CB        28.1960    5.3040   10.0460 C.3   125  VAL125      0.0252
      6  CG1       27.3140    4.3730   10.8710 C.3   125  VAL125      0.0019
      7  CG2       29.1370    4.4930    9.1760 C.3   125  VAL125      0.0019
      8  N         23.5460    7.9080    7.6520 N.3   128  LEU128     -0.1231
      9  CA        22.7310    6.7450    7.2890 C.3   128  LEU128      0.1693
     10  C         21.7720    6.3700    8.4180 C.2   128  LEU128      0.2591
     11  O         20.5860    6.1170    8.1650 O.2   128  LEU128     -0.2718
     12  CB        23.6260    5.5570    6.9190 C.3   128  LEU128      0.0284
     13  CG        24.5060    5.7230    5.6670 C.3   128  LEU128      0.0019
     14  CD1       25.6100    4.6820    5.5610 C.3   128  LEU128      0.0001
     15  CD2       23.6630    5.7110    4.4150 C.3   128  LEU128      0.0001
     16  N         22.2490    6.3800    9.6740 N.am  129  LEU129     -0.1980
     17  CA        21.3680    6.0750   10.8030 C.3   129  LEU129      0.1596
     18  C         20.1710    7.0140   10.8450 C.2   129  LEU129      0.2287
     19  O         19.0390    6.5760   11.0810 O.2   129  LEU129     -0.2864
     20  CB        22.1270    6.1520   12.1310 C.3   129  LEU129      0.0297
     21  CG        21.2070    5.8650   13.3240 C.3   129  LEU129      0.0022
     22  CD1       20.5500    4.5250   13.1160 C.3   129  LEU129      0.0001
     23  CD2       21.9110    5.9140   14.6840 C.3   129  LEU129      0.0001
     24  N         18.8130    8.6340    8.3340 N.3   131  ILE131     -0.1231
     25  CA        17.9620    8.2110    7.2270 C.3   131  ILE131      0.1692
     26  C         17.1400    6.9930    7.6190 C.2   131  ILE131      0.2591
     27  O         15.9200    6.9560    7.4090 O.2   131  ILE131     -0.2718
     28  CB        18.8350    7.9270    5.9920 C.3   131  ILE131      0.0266
     29  CG1       19.5640    9.2050    5.5580 C.3   131  ILE131      0.0019
     30  CG2       18.0120    7.3090    4.8560 C.3   131  ILE131      0.0020
     31  CD1       20.6760    8.9640    4.5490 C.3   131  ILE131      0.0001
     32  N         17.7900    5.9880    8.2170 N.am  132  ALA132     -0.1980
     33  CA        17.0840    4.7770    8.6350 C.3   132  ALA132      0.1597
     34  C         15.9860    5.0880    9.6550 C.2   132  ALA132      0.2287
     35  O         14.8580    4.5970    9.5350 O.2   132  ALA132     -0.2864
     36  CB        18.0850    3.7620    9.1920 C.3   132  ALA132      0.0319
     37  N         13.1910    6.6370    7.8770 N.3   135  CYS135     -0.1221
     38  CA        12.4530    5.6660    7.0630 C.3   135  CYS135      0.1808
     39  C         11.7650    4.5760    7.8900 C.2   135  CYS135      0.2601
     40  O         10.7100    4.0760    7.4820 O.2   135  CYS135     -0.2717
     41  CB        13.3820    5.0120    6.0340 C.3   135  CYS135      0.0970
     42  SG        13.8760    6.1010    4.6540 S.3   135  CYS135     -0.0800
     43  N         12.3000    4.2110    9.0600 N.am  136  LEU136     -0.1979
     44  CA        11.7360    3.0960    9.8080 C.3   136  LEU136      0.1596
     45  C         10.7700    3.4960   10.9160 C.2   136  LEU136      0.2287
     46  O         10.0840    2.6150   11.4470 O.2   136  LEU136     -0.2864
     47  CB        12.8600    2.2440   10.4000 C.3   136  LEU136      0.0297
     48  CG        13.6700    1.5320    9.3120 C.3   136  LEU136      0.0022
     49  CD1       14.9310    0.9300    9.8670 C.3   136  LEU136      0.0001
     50  CD2       12.8250    0.4700    8.5990 C.3   136  LEU136      0.0001
     51  N         26.7650    4.6250   20.5550 N.3   163  LEU163     -0.1245
     52  CA        27.2480    5.0540   19.2460 C.3   163  LEU163      0.1561
     53  C         27.9020    6.4350   19.3070 C.2   163  LEU163      0.2260
     54  O         28.8440    6.7110   18.5570 O.2   163  LEU163     -0.2867
     55  CB        26.0940    5.0560   18.2390 C.3   163  LEU163      0.0270
     56  CG        25.3310    3.7360   18.0300 C.3   163  LEU163      0.0019
     57  CD1       23.9920    3.9380   17.3180 C.3   163  LEU163      0.0001
     58  CD2       26.1650    2.7410   17.2590 C.3   163  LEU163      0.0001
     59  N         31.6340    6.9810   19.5260 N.3   166  TRP166     -0.1241
     60  CA        32.3720    6.9560   18.2770 C.3   166  TRP166      0.1605
     61  C         32.6240    8.3990   17.8460 C.2   166  TRP166      0.2264
     62  O         31.6640    9.1260   17.5550 O.2   166  TRP166     -0.2867
     63  CB        31.5800    6.1500   17.2400 C.3   166  TRP166      0.0550
     64  CG        32.1980    5.9980   15.8730 C.ar  166  TRP166      0.0003
     65  CD1       33.3900    6.5090   15.4360 C.ar  166  TRP166      0.0946
     66  CD2       31.6370    5.2830   14.7570 C.ar  166  TRP166      0.0152
     67  NE1       33.5980    6.1600   14.1230 N.ar  166  TRP166     -0.2442
     68  CE2       32.5370    5.4100   13.6830 C.ar  166  TRP166      0.0810
     69  CE3       30.4640    4.5390   14.5690 C.ar  166  TRP166      0.0012
     70  CZ2       32.3030    4.8220   12.4410 C.ar  166  TRP166      0.0191
     71  CZ3       30.2290    3.9670   13.3380 C.ar  166  TRP166      0.0001
     72  CH2       31.1450    4.1070   12.2890 C.ar  166  TRP166      0.0015
     73  N         30.2740   10.7910   15.4980 N.3   169  PHE169     -0.1241
     74  CA        28.9450   10.2510   15.2740 C.3   169  PHE169      0.1605
     75  C         27.8420   11.2100   15.7020 C.2   169  PHE169      0.2264
     76  O         26.7430   11.1190   15.1530 O.2   169  PHE169     -0.2867
     77  CB        28.7930    8.9210   16.0100 C.3   169  PHE169      0.0534
     78  CG        27.7080    8.0440   15.4570 C.ar  169  PHE169     -0.0203
     79  CD1       26.3830    8.2790   15.7710 C.ar  169  PHE169     -0.0042
     80  CD2       28.0190    6.9710   14.6450 C.ar  169  PHE169     -0.0042
     81  CE1       25.3940    7.4930   15.2690 C.ar  169  PHE169     -0.0003
     82  CE2       27.0280    6.1580   14.1560 C.ar  169  PHE169     -0.0003
     83  CZ        25.7120    6.4240   14.4640 C.ar  169  PHE169     -0.0000
@<TRIPOS>BOND
     1    15    13    1
     2    31    29    1
     3    42    41    1
     4    30    28    1
     5    29    28    1
     6    14    13    1
     7    13    12    1
     8    28    25    1
     9    41    38    1
    10    12     9    1
    11    38    37    1
    12    38    39    1
    13    25    26    1
    14    25    24    1
    15     9     8    1
    16     9    10    1
    17    27    26    2
    18    40    39    2
    19    26    32   am
    20    39    43   am
    21    11    10    2
    22    32    33    1
    23    10    16   am
    24     1     2    1
    25    50    48    1
    26    33    36    1
    27    33    34    1
    28    43    44    1
    29     2     3    1
    30     2     5    1
    31     7     5    1
    32    48    49    1
    33    48    47    1
    34    35    34    2
    35    16    17    1
    36    44    47    1
    37    44    45    1
    38     4     3    2
    39     5     6    1
    40    17    18    1
    41    17    20    1
    42    18    19    2
    43    45    46    2
    44    20    21    1
    45    72    70   ar
    46    72    71   ar
    47    70    68   ar
    48    22    21    1
    49    21    23    1
    50    71    69   ar
    51    68    67   ar
    52    68    66   ar
    53    67    65   ar
    54    82    83   ar
    55    82    80   ar
    56    83    81   ar
    57    69    66   ar
    58    80    78   ar
    59    66    64   ar
    60    76    75    2
    61    81    79   ar
    62    74    73    1
    63    74    75    1
    64    74    77    1
    65    65    64   ar
    66    78    79   ar
    67    78    77    1
    68    64    63    1
    69    63    60    1
    70    58    56    1
    71    57    56    1
    72    62    61    2
    73    61    60    1
    74    56    55    1
    75    55    52    1
    76    60    59    1
    77    54    53    2
    78    52    53    1
    79    52    51    1
