@<TRIPOS>MOLECULE
tmp/5oopA00.pdb
 172 162 0 0 0
SMALL
GASTEIGER

@<TRIPOS>ATOM
      1  N          2.6620   -9.1350   23.6730 N.3    11  LEU11      -0.1231
      2  CA         2.0440   -8.1620   22.7880 C.3    11  LEU11       0.1693
      3  C          1.8240   -8.7350   21.4090 C.2    11  LEU11       0.2593
      4  O          0.9710   -8.2510   20.6710 O.2    11  LEU11      -0.2718
      5  CB         2.9430   -6.9380   22.6520 C.3    11  LEU11       0.0284
      6  CG         3.0830   -6.0150   23.8490 C.3    11  LEU11       0.0019
      7  CD1        4.2200   -5.0090   23.6460 C.3    11  LEU11       0.0001
      8  CD2        1.7740   -5.3130   24.1800 C.3    11  LEU11       0.0001
      9  N          2.6590   -9.6910   21.0130 N.am   12  GLY12      -0.1942
     10  CA         2.5220  -10.3220   19.7160 C.3    12  GLY12       0.2014
     11  C          3.5450  -11.4320   19.5470 C.2    12  GLY12       0.2639
     12  O          4.4260  -11.6190   20.3860 O.2    12  GLY12      -0.2714
     13  N          3.4320  -12.1520   18.4330 N.am   13  GLU13      -0.1963
     14  CA         4.2760  -13.3040   18.1230 C.3    13  GLU13       0.1733
     15  C          4.8270  -13.1360   16.7030 C.2    13  GLU13       0.2617
     16  O          4.0560  -12.9630   15.7700 O.2    13  GLU13      -0.2715
     17  CB         3.4340  -14.5610   18.2030 C.3    13  GLU13       0.0429
     18  CG         4.2020  -15.8550   18.0220 C.3    13  GLU13       0.1163
     19  CD         5.1940  -16.1170   19.1390 C.2    13  GLU13       0.3649
     20  OE1        4.9340  -15.6700   20.2820 O.co2  13  GLU13      -0.2457
     21  OE2        6.2330  -16.7620   18.8690 O.co2  13  GLU13      -0.2457
     22  N          6.1480  -13.1440   16.5570 N.am   14  GLY14      -0.1940
     23  CA         6.7850  -13.0280   15.2550 C.3    14  GLY14       0.2014
     24  C          7.1370  -14.3610   14.6490 C.2    14  GLY14       0.2639
     25  O          6.7260  -15.3730   15.1680 O.2    14  GLY14      -0.2714
     26  N          7.8800  -14.3750   13.5480 N.am   15  ALA15      -0.1963
     27  CA         8.2810  -15.6510   12.9510 C.3    15  ALA15       0.1728
     28  C          9.2040  -16.3570   13.9060 C.2    15  ALA15       0.2616
     29  O          9.0200  -17.5250   14.2400 O.2    15  ALA15      -0.2715
     30  CB         8.9930  -15.4500   11.6400 C.3    15  ALA15       0.0334
     31  N         10.2200  -15.6240   14.3280 N.am   16  TYR16      -0.1974
     32  CA        11.1810  -16.1100   15.3100 C.3    16  TYR16       0.1639
     33  C         11.2330  -15.0850   16.4140 C.2    16  TYR16       0.2290
     34  O         12.0960  -14.2030   16.4170 O.2    16  TYR16      -0.2864
     35  CB        12.5590  -16.2540   14.6920 C.3    16  TYR16       0.0560
     36  CG        13.1000  -15.1210   13.8720 C.ar   16  TYR16      -0.0198
     37  CD1       13.4160  -13.9150   14.5330 C.ar   16  TYR16      -0.0009
     38  CD2       13.2780  -15.1700   12.4960 C.ar   16  TYR16      -0.0009
     39  CE1       13.9280  -12.8370   13.8390 C.ar   16  TYR16       0.0417
     40  CE2       13.7630  -14.0780   11.7810 C.ar   16  TYR16       0.0417
     41  CZ        14.0720  -12.9190   12.4770 C.ar   16  TYR16       0.1957
     42  OH        14.5720  -11.8450   11.7450 O.3    16  TYR16      -0.2866
     43  N          7.0200  -10.5910   21.3030 N.3    19  VAL19      -0.1245
     44  CA         7.2430   -9.2530   21.7440 C.3    19  VAL19       0.1561
     45  C          6.4760   -9.1150   23.0380 C.2    19  VAL19       0.2260
     46  O          5.3140   -9.4830   23.1070 O.2    19  VAL19      -0.2867
     47  CB         6.7520   -8.1960   20.7240 C.3    19  VAL19       0.0252
     48  CG1        6.9460   -6.8030   21.3040 C.3    19  VAL19       0.0019
     49  CG2        7.5520   -8.3320   19.4460 C.3    19  VAL19       0.0019
     50  N          8.5310   -1.9240   24.6910 N.3    32  ALA32      -0.1245
     51  CA         8.3430   -3.2640   24.1820 C.3    32  ALA32       0.1562
     52  C          9.6580   -3.9120   24.0040 C.2    32  ALA32       0.2260
     53  O         10.6460   -3.2470   23.7580 O.2    32  ALA32      -0.2867
     54  CB         7.5560   -3.2040   22.8610 C.3    32  ALA32       0.0290
     55  N         11.5480   -7.2520   22.0390 N.3    34  LYS34      -0.1245
     56  CA        11.4160   -8.3540   21.1140 C.3    34  LYS34       0.1561
     57  C         12.4360   -9.3740   21.5760 C.2    34  LYS34       0.2260
     58  O         13.6390   -9.0480   21.7250 O.2    34  LYS34      -0.2867
     59  CB        11.7510   -7.8560   19.6940 C.3    34  LYS34       0.0271
     60  CG        12.0360   -8.9310   18.6600 C.3    34  LYS34       0.0035
     61  CD        10.8890   -9.1480   17.6940 C.3    34  LYS34       0.0206
     62  CE        11.4150   -9.6790   16.3650 C.3    34  LYS34       0.1093
     63  NZ        12.1900   -8.6790   15.5560 N.3    34  LYS34      -0.1314
     64  N          9.6030    3.2930   14.6630 N.3    58  ILE58      -0.1245
     65  CA         9.7420    2.7840   16.0460 C.3    58  ILE58       0.1561
     66  C         11.1500    3.0950   16.5030 C.2    58  ILE58       0.2260
     67  O         12.1030    2.6890   15.8540 O.2    58  ILE58      -0.2867
     68  CB         9.4960    1.2850   16.0700 C.3    58  ILE58       0.0252
     69  CG1        8.0020    1.0140   16.0500 C.3    58  ILE58       0.0019
     70  CG2        9.9460    0.6680   17.3780 C.3    58  ILE58       0.0019
     71  CD1        7.1510    1.5400   17.2100 C.3    58  ILE58       0.0001
     72  N         12.4910   -1.5210   22.6280 N.3    74  MET74      -0.1230
     73  CA        12.0280   -0.4970   21.6730 C.3    74  MET74       0.1702
     74  C         10.7930    0.2270   22.1040 C.2    74  MET74       0.2592
     75  O         10.0760   -0.2000   22.9810 O.2    74  MET74      -0.2718
     76  CB        11.7320   -1.1680   20.3180 C.3    74  MET74       0.0401
     77  CG        10.4850   -1.9710   20.3270 C.3    74  MET74       0.0596
     78  SD        10.2880   -3.0400   18.8430 S.3    74  MET74      -0.1393
     79  CE        11.8370   -3.9370   18.9090 C.3    74  MET74       0.0692
     80  N         10.5280    1.3400   21.4280 N.am   75  GLU75      -0.1966
     81  CA         9.3550    2.1430   21.7290 C.3    75  GLU75       0.1733
     82  C          8.1030    1.3500   21.6770 C.2    75  GLU75       0.2616
     83  O          7.8770    0.5620   20.7390 O.2    75  GLU75      -0.2715
     84  CB         9.2830    3.2490   20.6590 C.3    75  GLU75       0.0429
     85  CG         8.1340    4.1950   20.7280 C.3    75  GLU75       0.1163
     86  CD         8.1120    5.1490   19.5510 C.2    75  GLU75       0.3649
     87  OE1        7.1840    5.9860   19.5120 O.co2  75  GLU75      -0.2457
     88  OE2        8.9850    5.1100   18.6960 O.co2  75  GLU75      -0.2457
     89  N          7.2570    1.4890   22.6500 N.am   76  LEU76      -0.1963
     90  CA         6.0210    0.7720   22.6850 C.3    76  LEU76       0.1728
     91  C          4.9240    1.4810   21.8350 C.2    76  LEU76       0.2616
     92  O          4.7390    2.6800   21.9370 O.2    76  LEU76      -0.2715
     93  CB         5.4890    0.7800   24.1180 C.3    76  LEU76       0.0311
     94  CG         4.0840    0.2000   24.2550 C.3    76  LEU76       0.0022
     95  CD1        4.0850   -1.2880   24.0680 C.3    76  LEU76       0.0001
     96  CD2        3.5600    0.5670   25.6580 C.3    76  LEU76       0.0001
     97  N          4.2190    0.6950   21.0420 N.am   77  ALA77      -0.1977
     98  CA         3.0980    1.2140   20.2210 C.3    77  ALA77       0.1597
     99  C          1.8800    0.5330   20.7630 C.2    77  ALA77       0.2287
    100  O          1.5860   -0.6160   20.4390 O.2    77  ALA77      -0.2864
    101  CB         3.3530    0.8300   18.7670 C.3    77  ALA77       0.0319
    102  N         -1.9540   -0.8310   18.7800 N.3    80  GLY80      -0.1210
    103  CA        -2.0920   -1.9330   17.8810 C.3    80  GLY80       0.1956
    104  C         -1.5420   -1.5840   16.4710 C.2    80  GLY80       0.2612
    105  O         -0.6010   -0.8170   16.3510 O.2    80  GLY80      -0.2717
    106  N         -2.1010   -2.1980   15.4500 N.am   81  SER81      -0.1952
    107  CA        -1.6210   -1.9950   14.0820 C.3    81  SER81       0.1924
    108  C         -2.6400   -1.4110   13.1470 C.2    81  SER81       0.2314
    109  O         -3.8290   -1.3720   13.3800 O.2    81  SER81      -0.2863
    110  CB        -1.0370   -3.2660   13.4750 C.3    81  SER81       0.2116
    111  OG        -2.0430   -4.0520   12.9270 O.3    81  SER81      -0.2180
    112  N          9.3820   -4.3120    3.4670 N.3   120  ASP120     -0.1239
    113  CA         8.1840   -5.0800    3.8280 C.3   120  ASP120      0.1674
    114  C          7.1520   -4.2220    4.4150 C.2   120  ASP120      0.2266
    115  O          6.5040   -4.5610    5.4020 O.2   120  ASP120     -0.2867
    116  CB         8.5980   -6.2300    4.8210 C.3   120  ASP120      0.1410
    117  CG         7.5720   -7.3990    4.8420 C.2   120  ASP120      0.3668
    118  OD1        6.7640   -7.5240    3.8900 O.co2 120  ASP120     -0.2456
    119  OD2        7.5570   -8.1730    5.8260 O.co2 120  ASP120     -0.2456
    120  N          0.3710   -4.7730    8.8830 N.3   124  HIS124     -0.1226
    121  CA         0.8270   -5.4010   10.1060 C.3   124  HIS124      0.1752
    122  C          2.0820   -4.8100   10.6580 C.2   124  HIS124      0.2596
    123  O          2.3570   -4.9770   11.8450 O.2   124  HIS124     -0.2718
    124  CB         1.0940   -6.9220    9.8430 C.3   124  HIS124      0.0759
    125  CG        -0.1180   -7.7810    9.9990 C.ar  124  HIS124      0.0818
    126  ND1       -0.7580   -7.8860   11.2050 N.ar  124  HIS124     -0.2268
    127  CD2       -0.8050   -8.5860    9.1390 C.ar  124  HIS124      0.1154
    128  CE1       -1.7910   -8.7140   11.0990 C.ar  124  HIS124      0.1986
    129  NE2       -1.8540   -9.1400    9.8560 N.ar  124  HIS124     -0.2212
    130  N          2.9070   -4.1740    9.8130 N.am  125  ASN125     -0.1974
    131  CA         4.1900   -3.5500   10.2050 C.3   125  ASN125      0.1688
    132  C          4.0440   -2.0580   10.4550 C.2   125  ASN125      0.2292
    133  O          5.0740   -1.3810   10.6350 O.2   125  ASN125     -0.2864
    134  CB         5.2710   -3.8410    9.1100 C.3   125  ASN125      0.1181
    135  CG         5.6660   -5.3330    9.1150 C.2   125  ASN125      0.2629
    136  OD1        5.4920   -5.9750   10.1660 O.2   125  ASN125     -0.2716
    137  ND2        6.2550   -5.8050    8.1220 N.am  125  ASN125     -0.0877
    138  N          2.4740    0.2520   13.0560 N.3   127  LEU127     -0.1245
    139  CA         1.8530    0.2030   14.3940 C.3   127  LEU127      0.1561
    140  C          1.4230    1.5970   14.7390 C.2   127  LEU127      0.2260
    141  O          1.8580    2.6060   14.1200 O.2   127  LEU127     -0.2867
    142  CB         2.9020   -0.2870   15.4260 C.3   127  LEU127      0.0270
    143  CG         3.5010   -1.6720   15.0260 C.3   127  LEU127      0.0019
    144  CD1        4.5050   -2.1670   16.0670 C.3   127  LEU127      0.0001
    145  CD2        2.5060   -2.7830   14.7790 C.3   127  LEU127      0.0001
    146  N          7.3900   -0.1660   11.7720 N.3   137  ALA137     -0.1231
    147  CA         8.0370   -1.1890   12.6350 C.3   137  ALA137      0.1694
    148  C          8.6010   -2.3090   11.7700 C.2   137  ALA137      0.2592
    149  O          8.2880   -2.4970   10.5510 O.2   137  ALA137     -0.2718
    150  CB         6.9760   -1.7440   13.5630 C.3   137  ALA137      0.0304
    151  N          9.4080   -3.1280   12.4360 N.am  138  ASP138     -0.1974
    152  CA         9.8550   -4.4000   11.8530 C.3   138  ASP138      0.1709
    153  C         10.9630   -4.2180   10.8690 C.2   138  ASP138      0.2293
    154  O         10.7260   -4.2070    9.6750 O.2   138  ASP138     -0.2864
    155  CB         8.7460   -5.3110   11.3070 C.3   138  ASP138      0.1436
    156  CG         9.2500   -6.7940   11.0730 C.2   138  ASP138      0.3671
    157  OD1       10.4330   -7.0570   11.2340 O.co2 138  ASP138     -0.2456
    158  OD2        8.4320   -7.6410   10.6550 O.co2 138  ASP138     -0.2456
    159  N         13.4570   -6.3410   10.2290 N.3   140  SER140     -0.1202
    160  CA        14.1170   -7.5930    9.9440 C.3   140  SER140      0.2020
    161  C         14.5130   -7.8110    8.4980 C.2   140  SER140      0.2618
    162  O         15.4500   -8.5330    8.2540 O.2   140  SER140     -0.2717
    163  CB        13.3030   -8.7450   10.4920 C.3   140  SER140      0.2103
    164  OG        12.0870   -8.8890    9.8470 O.3   140  SER140     -0.2182
    165  N         13.8570   -7.1420    7.5320 N.am  141  LEU141     -0.1979
    166  CA        14.2770   -7.1890    6.1460 C.3   141  LEU141      0.1596
    167  C         14.9140   -5.9210    5.6420 C.2   141  LEU141      0.2287
    168  O         15.3160   -5.8810    4.4670 O.2   141  LEU141     -0.2864
    169  CB        13.0520   -7.5740    5.2780 C.3   141  LEU141      0.0297
    170  CG        12.4840   -8.9880    5.4070 C.3   141  LEU141      0.0022
    171  CD1       11.2750   -9.1200    4.5320 C.3   141  LEU141      0.0001
    172  CD2       13.6120   -9.9010    4.8700 C.3   141  LEU141      0.0001
@<TRIPOS>BOND
     1   112   113    1
     2   113   114    1
     3   113   116    1
     4   118   117   ar
     5   114   115    2
     6   168   167    2
     7   171   170    1
     8   116   117    1
     9   117   119   ar
    10   172   170    1
    11   169   170    1
    12   169   166    1
    13   167   166    1
    14   166   165    1
    15   165   161   am
    16   137   135   am
    17   162   161    2
    18   161   160    1
    19   120   121    1
    20   134   135    1
    21   134   131    1
    22   135   136    2
    23   127   129   ar
    24   127   125   ar
    25   154   153    2
    26   130   131    1
    27   130   122   am
    28   124   125    1
    29   124   121    1
    30   164   163    1
    31   129   128   ar
    32   160   159    1
    33   160   163    1
    34   125   126   ar
    35   121   122    1
    36   131   132    1
    37   132   133    2
    38   149   148    2
    39   158   156   ar
    40   122   123    2
    41   153   152    1
    42   156   157   ar
    43   156   155    1
    44   128   126   ar
    45   155   152    1
    46    30    27    1
    47    42    41    1
    48   148   151   am
    49   148   147    1
    50   146   147    1
    51    40    41   ar
    52    40    38   ar
    53   152   151    1
    54    41    39   ar
    55    38    36   ar
    56   147   150    1
    57   111   110    1
    58    27    26    1
    59    27    28    1
    60   138   139    1
    61   108   109    2
    62   108   107    1
    63   110   107    1
    64    26    24   am
    65    39    37   ar
    66    36    37   ar
    67    36    35    1
    68    28    29    2
    69    28    31   am
    70   107   106    1
    71   141   140    2
    72    31    32    1
    73   139   140    1
    74   139   142    1
    75    24    25    2
    76    24    23    1
    77    64    65    1
    78    35    32    1
    79   145   143    1
    80   143   142    1
    81   143   144    1
    82    23    22    1
    83    32    33    1
    84   106   104   am
    85    63    62    1
    86    16    15    2
    87    67    66    2
    88    65    68    1
    89    65    66    1
    90    69    68    1
    91    69    71    1
    92    68    70    1
    93   105   104    2
    94    62    61    1
    95    33    34    2
    96   104   103    1
    97    22    15   am
    98    15    14    1
    99    61    60    1
   100   103   102    1
   101    18    17    1
   102    18    19    1
   103    14    17    1
   104    14    13    1
   105    13    11   am
   106    60    59    1
   107    88    86   ar
   108   101    98    1
   109    78    79    1
   110    78    77    1
   111    21    19   ar
   112    19    20   ar
   113    49    47    1
   114    87    86   ar
   115    11    10    1
   116    11    12    2
   117    86    85    1
   118    59    56    1
   119    10     9    1
   120    98    99    1
   121    98    97    1
   122    76    77    1
   123    76    73    1
   124   100    99    2
   125    84    85    1
   126    84    81    1
   127     4     3    2
   128    47    48    1
   129    47    44    1
   130    83    82    2
   131     9     3   am
   132    97    91   am
   133    56    57    1
   134    56    55    1
   135    43    44    1
   136     3     2    1
   137    80    81    1
   138    80    74   am
   139    57    58    2
   140    73    74    1
   141    73    72    1
   142    82    81    1
   143    82    89   am
   144    44    45    1
   145    91    92    2
   146    91    90    1
   147    74    75    2
   148    89    90    1
   149     5     2    1
   150     5     6    1
   151    90    93    1
   152     2     1    1
   153    54    51    1
   154    45    46    2
   155     7     6    1
   156    53    52    2
   157     6     8    1
   158    52    51    1
   159    95    94    1
   160    93    94    1
   161    51    50    1
   162    94    96    1
