@<TRIPOS>MOLECULE
tmp/5oorA00.pdb
 171 162 0 0 0
SMALL
GASTEIGER

@<TRIPOS>ATOM
      1  N          2.6230   -9.5010   22.7880 N.3    13  LEU13      -0.1231
      2  CA         2.0510   -8.5810   21.8000 C.3    13  LEU13       0.1693
      3  C          1.9570   -9.2590   20.4210 C.2    13  LEU13       0.2593
      4  O          1.0390   -9.0040   19.6530 O.2    13  LEU13      -0.2718
      5  CB         2.9460   -7.3640   21.6980 C.3    13  LEU13       0.0284
      6  CG         3.0060   -6.4910   22.9420 C.3    13  LEU13       0.0019
      7  CD1        3.9820   -5.3540   22.7260 C.3    13  LEU13       0.0001
      8  CD2        1.6480   -5.9750   23.3160 C.3    13  LEU13       0.0001
      9  N          2.9240  -10.0860   20.1230 N.am   14  GLY14      -0.1942
     10  CA         2.9210  -10.8360   18.8940 C.3    14  GLY14       0.2014
     11  C          4.0990  -11.7880   18.8140 C.2    14  GLY14       0.2639
     12  O          4.8790  -11.9250   19.7440 O.2    14  GLY14      -0.2714
     13  N          4.2360  -12.3870   17.6380 N.am   15  GLU15      -0.1963
     14  CA         5.1080  -13.5150   17.3850 C.3    15  GLU15       0.1733
     15  C          5.9180  -13.2360   16.1160 C.2    15  GLU15       0.2616
     16  O          5.3830  -12.7220   15.1410 O.2    15  GLU15      -0.2715
     17  CB         4.2290  -14.7410   17.1570 C.3    15  GLU15       0.0429
     18  CG         4.6340  -15.9520   17.9470 C.3    15  GLU15       0.1163
     19  CD         3.5720  -17.0290   17.8850 C.2    15  GLU15       0.3649
     20  OE1        3.0410  -17.2730   16.7730 O.co2  15  GLU15      -0.2457
     21  OE2        3.2720  -17.6210   18.9500 O.co2  15  GLU15      -0.2457
     22  N          7.1920  -13.6210   16.1310 N.am   16  GLY16      -0.1955
     23  CA         8.0640  -13.5710   14.9590 C.3    16  GLY16       0.1869
     24  C          8.4850  -14.9390   14.4100 C.2    16  GLY16       0.2309
     25  O          8.3230  -15.9820   15.0580 O.2    16  GLY16      -0.2863
     26  N          7.3190  -10.8990   20.7960 N.3    21  VAL21      -0.1245
     27  CA         7.3830   -9.5150   21.2140 C.3    21  VAL21       0.1561
     28  C          6.5040   -9.3590   22.4440 C.2    21  VAL21       0.2260
     29  O          5.3530   -9.7540   22.4300 O.2    21  VAL21      -0.2867
     30  CB         6.9540   -8.5340   20.1140 C.3    21  VAL21       0.0252
     31  CG1        6.9220   -7.1170   20.6580 C.3    21  VAL21       0.0019
     32  CG2        7.9330   -8.6230   18.9480 C.3    21  VAL21       0.0019
     33  N          8.1800   -2.0820   24.2610 N.3    34  ALA34      -0.1245
     34  CA         8.0170   -3.3700   23.6060 C.3    34  ALA34       0.1562
     35  C          9.3610   -4.0040   23.5660 C.2    34  ALA34       0.2260
     36  O         10.3480   -3.3100   23.3690 O.2    34  ALA34      -0.2867
     37  CB         7.4530   -3.1950   22.1780 C.3    34  ALA34       0.0290
     38  N         11.4270   -7.2700   21.7480 N.3    36  LYS36      -0.1245
     39  CA        11.4760   -8.3840   20.8370 C.3    36  LYS36       0.1561
     40  C         12.5460   -9.3380   21.4170 C.2    36  LYS36       0.2260
     41  O         13.6780   -8.9610   21.6720 O.2    36  LYS36      -0.2867
     42  CB        11.8910   -7.9350   19.4440 C.3    36  LYS36       0.0271
     43  CG        11.9670   -9.0570   18.4220 C.3    36  LYS36       0.0035
     44  CD        12.5600   -8.4940   17.1220 C.3    36  LYS36       0.0206
     45  CE        12.9010   -9.5450   16.0960 C.3    36  LYS36       0.1093
     46  NZ        11.6530  -10.2490   15.8060 N.3    36  LYS36      -0.1314
     47  N         20.4770   -5.7410   11.9340 N.3    45  GLU45      -0.1245
     48  CA        19.2430   -5.1240   12.3730 C.3    45  GLU45       0.1567
     49  C         19.5160   -4.0660   13.4450 C.2    45  GLU45       0.2260
     50  O         19.0100   -2.9320   13.3540 O.2    45  GLU45      -0.2867
     51  CB        18.2800   -6.1850   12.8810 C.3    45  GLU45       0.0388
     52  CG        16.9490   -5.6240   13.2960 C.3    45  GLU45       0.1160
     53  CD        15.9220   -6.6490   13.6880 C.2    45  GLU45       0.3649
     54  OE1       16.1600   -7.8470   13.5290 O.co2  45  GLU45      -0.2457
     55  OE2       14.8210   -6.2330   14.1360 O.co2  45  GLU45      -0.2457
     56  N          9.3870    3.4310   14.7440 N.3    58  ILE58      -0.1245
     57  CA         9.5090    2.8890   16.0770 C.3    58  ILE58       0.1561
     58  C         10.9720    3.1410   16.5410 C.2    58  ILE58       0.2260
     59  O         11.9040    2.7400   15.8840 O.2    58  ILE58      -0.2867
     60  CB         9.2300    1.3930   16.1230 C.3    58  ILE58       0.0252
     61  CG1        7.7330    1.1230   15.9700 C.3    58  ILE58       0.0019
     62  CG2        9.6700    0.7230   17.4410 C.3    58  ILE58       0.0019
     63  CD1        6.8210    1.6870   17.0930 C.3    58  ILE58       0.0001
     64  N         12.2650   -1.4100   22.3690 N.3    74  MET74      -0.1230
     65  CA        11.6930   -0.5160   21.3710 C.3    74  MET74       0.1702
     66  C         10.5150    0.2580   21.8710 C.2    74  MET74       0.2592
     67  O          9.8130   -0.1400   22.7730 O.2    74  MET74      -0.2718
     68  CB        11.1900   -1.3310   20.1990 C.3    74  MET74       0.0401
     69  CG        12.2900   -1.8550   19.3300 C.3    74  MET74       0.0596
     70  SD        11.7460   -3.0240   18.0580 S.3    74  MET74      -0.1393
     71  CE        11.2240   -4.3820   19.0490 C.3    74  MET74       0.0692
     72  N         10.3040    1.4110   21.2600 N.am   75  GLU75      -0.1966
     73  CA         9.1940    2.2210   21.5870 C.3    75  GLU75       0.1733
     74  C          7.9140    1.4080   21.4670 C.2    75  GLU75       0.2616
     75  O          7.7090    0.6620   20.5110 O.2    75  GLU75      -0.2715
     76  CB         9.2030    3.4120   20.6150 C.3    75  GLU75       0.0429
     77  CG         8.0380    4.3740   20.6910 C.3    75  GLU75       0.1163
     78  CD         8.0350    5.3670   19.5420 C.2    75  GLU75       0.3649
     79  OE1        7.1090    6.1810   19.4710 O.co2  75  GLU75      -0.2457
     80  OE2        8.9450    5.3500   18.7040 O.co2  75  GLU75      -0.2457
     81  N          7.0180    1.5750   22.4230 N.am   76  LEU76      -0.1963
     82  CA         5.7190    0.9560   22.4090 C.3    76  LEU76       0.1728
     83  C          4.6860    1.8080   21.6280 C.2    76  LEU76       0.2616
     84  O          4.6450    3.0450   21.7720 O.2    76  LEU76      -0.2715
     85  CB         5.1830    0.7840   23.8320 C.3    76  LEU76       0.0311
     86  CG         3.7760    0.2340   23.9560 C.3    76  LEU76       0.0022
     87  CD1        3.7100   -1.1990   23.5070 C.3    76  LEU76       0.0001
     88  CD2        3.2560    0.3820   25.3800 C.3    76  LEU76       0.0001
     89  N          3.8950    1.1410   20.7980 N.am   77  ALA77      -0.1963
     90  CA         2.7740    1.7540   20.0990 C.3    77  ALA77       0.1728
     91  C          1.5370    1.0190   20.5730 C.2    77  ALA77       0.2616
     92  O          1.1700   -0.0550   20.0500 O.2    77  ALA77      -0.2715
     93  CB         2.9650    1.6230   18.5740 C.3    77  ALA77       0.0334
     94  N          0.8850    1.5810   21.5930 N.am   78  SER78      -0.1950
     95  CA        -0.0790    0.8430   22.3790 C.3    78  SER78       0.1924
     96  C         -1.3510    0.6090   21.6290 C.2    78  SER78       0.2314
     97  O         -2.0910   -0.2490   22.0000 O.2    78  SER78      -0.2863
     98  CB        -0.4090    1.5850   23.7170 C.3    78  SER78       0.2116
     99  OG        -0.8360    2.9450   23.4640 O.3    78  SER78      -0.2180
    100  N         -1.6060   -0.7430   18.6820 N.3    80  GLY80      -0.1210
    101  CA        -1.5210   -1.9770   17.8950 C.3    80  GLY80       0.1956
    102  C         -1.4620   -1.6220   16.3870 C.2    80  GLY80       0.2612
    103  O         -1.0240   -0.5220   16.0090 O.2    80  GLY80      -0.2717
    104  N         -1.8800   -2.5260   15.5170 N.am   81  SER81      -0.1952
    105  CA        -1.6460   -2.3270   14.1020 C.3    81  SER81       0.1924
    106  C         -2.7470   -1.6360   13.3530 C.2    81  SER81       0.2314
    107  O         -3.9380   -1.6780   13.7070 O.2    81  SER81      -0.2863
    108  CB        -1.2060   -3.6070   13.3620 C.3    81  SER81       0.2116
    109  OG        -2.3020   -4.4460   13.2210 O.3    81  SER81      -0.2180
    110  N         -3.5730   -2.6550   10.6040 N.3    83  PHE83      -0.1241
    111  CA        -4.3280   -3.7940   10.0520 C.3    83  PHE83       0.1605
    112  C         -5.6800   -3.9370   10.7490 C.2    83  PHE83       0.2264
    113  O         -6.7000   -4.1550   10.0830 O.2    83  PHE83      -0.2867
    114  CB        -3.5400   -5.0910   10.2030 C.3    83  PHE83       0.0534
    115  CG        -4.2300   -6.2930    9.6370 C.ar   83  PHE83      -0.0203
    116  CD1       -5.1060   -7.0470   10.4330 C.ar   83  PHE83      -0.0042
    117  CD2       -4.0080   -6.6800    8.3380 C.ar   83  PHE83      -0.0042
    118  CE1       -5.7540   -8.1680    9.9500 C.ar   83  PHE83      -0.0003
    119  CE2       -4.6440   -7.8130    7.7940 C.ar   83  PHE83      -0.0003
    120  CZ        -5.5140   -8.5700    8.6070 C.ar   83  PHE83      -0.0000
    121  N          0.1350   -4.6650    8.7550 N.3   124  HIS124     -0.1226
    122  CA         0.5950   -5.4190    9.8840 C.3   124  HIS124      0.1752
    123  C          1.8180   -4.7830   10.5500 C.2   124  HIS124      0.2596
    124  O          2.0110   -5.0050   11.7980 O.2   124  HIS124     -0.2718
    125  CB         0.9280   -6.8890    9.5000 C.3   124  HIS124      0.0759
    126  CG         0.0540   -7.4370    8.4120 C.ar  124  HIS124      0.0818
    127  ND1       -0.5460   -8.6850    8.4930 N.ar  124  HIS124     -0.2268
    128  CD2       -0.2760   -6.9250    7.1800 C.ar  124  HIS124      0.1154
    129  CE1       -1.2540   -8.8920    7.3990 C.ar  124  HIS124      0.1986
    130  NE2       -1.0950   -7.8460    6.5820 N.ar  124  HIS124     -0.2212
    131  N          2.6400   -4.0440    9.7850 N.am  125  ASN125     -0.1974
    132  CA         3.9380   -3.4990   10.2880 C.3   125  ASN125      0.1688
    133  C          3.8070   -1.9900   10.5580 C.2   125  ASN125      0.2292
    134  O          4.8190   -1.3250   10.7580 O.2   125  ASN125     -0.2864
    135  CB         5.0850   -3.7720    9.2950 C.3   125  ASN125      0.1181
    136  CG         5.4740   -5.2230    9.2900 C.2   125  ASN125      0.2629
    137  OD1        5.3150   -5.9120   10.3210 O.2   125  ASN125     -0.2716
    138  ND2        6.0010   -5.6840    8.2320 N.am  125  ASN125     -0.0877
    139  N          2.1110    0.4440   13.0810 N.3   127  LEU127     -0.1245
    140  CA         1.5220    0.4350   14.3940 C.3   127  LEU127      0.1561
    141  C          1.0340    1.8700   14.7590 C.2   127  LEU127      0.2260
    142  O          1.4490    2.8560   14.1170 O.2   127  LEU127     -0.2867
    143  CB         2.5320   -0.1120   15.3970 C.3   127  LEU127      0.0270
    144  CG         3.1090   -1.5150   15.0780 C.3   127  LEU127      0.0019
    145  CD1        4.1450   -1.8550   16.1450 C.3   127  LEU127      0.0001
    146  CD2        2.0690   -2.5810   14.9400 C.3   127  LEU127      0.0001
    147  N          7.2560   -0.2040   11.9010 N.3   137  ALA137     -0.1231
    148  CA         7.8690   -1.1390   12.8280 C.3   137  ALA137      0.1694
    149  C          8.4560   -2.3740   12.0430 C.2   137  ALA137      0.2592
    150  O          8.0370   -2.6620   10.8990 O.2   137  ALA137     -0.2718
    151  CB         6.7830   -1.6340   13.7700 C.3   137  ALA137      0.0304
    152  N          9.4270   -3.0220   12.6960 N.am  138  ASP138     -0.1960
    153  CA        10.0090   -4.3130   12.3280 C.3   138  ASP138      0.1840
    154  C         10.9980   -4.1580   11.2060 C.2   138  ASP138      0.2622
    155  O         10.6250   -4.1790   10.0170 O.2   138  ASP138     -0.2715
    156  CB         8.9420   -5.3980   11.9570 C.3   138  ASP138      0.1450
    157  CG         9.5790   -6.8040   11.8350 C.2   138  ASP138      0.3671
    158  OD1       10.8320   -6.8900   11.8350 O.co2 138  ASP138     -0.2456
    159  OD2        8.8600   -7.7910   11.7610 O.co2 138  ASP138     -0.2456
    160  N         12.2680   -4.0300   11.6060 N.am  139  TYR139     -0.1974
    161  CA        13.3790   -3.7630   10.7050 C.3   139  TYR139      0.1639
    162  C         14.2000   -5.0120   10.3910 C.2   139  TYR139      0.2290
    163  O         15.3250   -4.9310    9.9360 O.2   139  TYR139     -0.2864
    164  CB        14.2430   -2.5940   11.2400 C.3   139  TYR139      0.0560
    165  CG        13.3860   -1.3510   11.1270 C.ar  139  TYR139     -0.0198
    166  CD1       12.3740   -1.0920   12.0830 C.ar  139  TYR139     -0.0009
    167  CD2       13.5400   -0.4900   10.0870 C.ar  139  TYR139     -0.0009
    168  CE1       11.5360    0.0480   11.9750 C.ar  139  TYR139      0.0417
    169  CE2       12.6950    0.6150    9.9320 C.ar  139  TYR139      0.0417
    170  CZ        11.6880    0.8970   10.8940 C.ar  139  TYR139      0.1957
    171  OH        10.8480    2.0150   10.7250 O.3   139  TYR139     -0.2866
@<TRIPOS>BOND
     1   130   128   ar
     2   130   129   ar
     3   128   126   ar
     4   129   127   ar
     5   119   117   ar
     6   119   120   ar
     7   138   136   am
     8   117   115   ar
     9   126   127   ar
    10   126   125    1
    11   120   118   ar
    12   121   122    1
    13   136   135    1
    14   136   137    2
    15   135   132    1
    16   125   122    1
    17   115   114    1
    18   115   116   ar
    19   131   132    1
    20   131   123   am
    21   122   123    1
    22   169   167   ar
    23   169   170   ar
    24   163   162    2
    25   118   116   ar
    26   155   154    2
    27   111   114    1
    28   111   110    1
    29   111   112    1
    30   113   112    2
    31   167   165   ar
    32   132   133    1
    33   162   161    1
    34   123   124    2
    35   133   134    2
    36   161   164    1
    37   161   160    1
    38   171   170    1
    39   170   168   ar
    40   150   149    2
    41   165   164    1
    42   165   166   ar
    43   154   160   am
    44   154   153    1
    45   159   157   ar
    46   157   158   ar
    47   157   156    1
    48   147   148    1
    49    47    48    1
    50   156   153    1
    51   168   166   ar
    52   149   152   am
    53   149   148    1
    54   153   152    1
    55    48    51    1
    56    48    49    1
    57   148   151    1
    58    51    52    1
    59   139   140    1
    60   109   108    1
    61    52    53    1
    62   106   107    2
    63   106   105    1
    64    50    49    2
    65   108   105    1
    66    54    53   ar
    67    53    55   ar
    68   105   104    1
    69   142   141    2
    70   140   141    1
    71   140   143    1
    72    24    23    1
    73    24    25    2
    74    56    57    1
    75   146   144    1
    76    23    22    1
    77   144   143    1
    78   144   145    1
    79    16    15    2
    80   104   102   am
    81    46    45    1
    82    59    58    2
    83    61    60    1
    84    61    63    1
    85   103   102    2
    86    57    60    1
    87    57    58    1
    88    45    44    1
    89    15    22   am
    90    15    14    1
    91    60    62    1
    92   102   101    1
    93    20    19   ar
    94    44    43    1
    95    17    14    1
    96    17    18    1
    97    14    13    1
    98    13    11   am
    99    19    18    1
   100    19    21   ar
   101   101   100    1
   102    70    71    1
   103    70    69    1
   104    43    42    1
   105    93    90    1
   106    80    78   ar
   107    11    10    1
   108    11    12    2
   109    10     9    1
   110    32    30    1
   111    69    68    1
   112    42    39    1
   113    79    78   ar
   114    78    77    1
   115     4     3    2
   116    92    91    2
   117    90    91    1
   118    90    89    1
   119    30    31    1
   120    30    27    1
   121     9     3   am
   122    68    65    1
   123     3     2    1
   124    75    74    2
   125    91    94   am
   126    76    77    1
   127    76    73    1
   128    26    27    1
   129    89    83   am
   130    39    40    1
   131    39    38    1
   132    27    28    1
   133    72    73    1
   134    72    66   am
   135    65    66    1
   136    65    64    1
   137    40    41    2
   138    74    73    1
   139    74    81   am
   140    94    95    1
   141    83    84    2
   142    83    82    1
   143    96    97    2
   144    96    95    1
   145     5     2    1
   146     5     6    1
   147     2     1    1
   148    66    67    2
   149    37    34    1
   150    95    98    1
   151    82    81    1
   152    82    85    1
   153    29    28    2
   154     7     6    1
   155     6     8    1
   156    36    35    2
   157    99    98    1
   158    87    86    1
   159    35    34    1
   160    34    33    1
   161    85    86    1
   162    86    88    1
