@<TRIPOS>MOLECULE
tmp/5oosA00.pdb
 137 129 0 0 0
SMALL
GASTEIGER

@<TRIPOS>ATOM
      1  N         20.2500   16.7820   13.0460 N.3    72  ARG72      -0.1245
      2  CA        19.3550   17.6590   12.2860 C.3    72  ARG72       0.1563
      3  C         19.9610   18.0390   10.9230 C.2    72  ARG72       0.2260
      4  O         19.3280   18.7610   10.1450 O.2    72  ARG72      -0.2867
      5  CB        19.0160   18.9120   13.0990 C.3    72  ARG72       0.0307
      6  CG        18.2270   18.6000   14.3590 C.3    72  ARG72       0.0489
      7  CD        18.6800   19.4400   15.5130 C.3    72  ARG72       0.2205
      8  NE        17.9170   20.6800   15.6050 N.pl3  72  ARG72      -0.0865
      9  CZ        18.3850   21.8140   16.1150 C.cat  72  ARG72       0.5346
     10  NH1       19.6330   21.8790   16.5700 N.pl3  72  ARG72       0.1354
     11  NH2       17.6200   22.8950   16.1610 N.pl3  72  ARG72       0.1354
     12  N         22.7650   19.6990   10.5330 N.3    74  LEU74      -0.1245
     13  CA        23.4360   20.9900   10.6650 C.3    74  LEU74       0.1561
     14  C         24.9190   20.7760   10.7060 C.2    74  LEU74       0.2260
     15  O         25.4110   19.9050   11.4310 O.2    74  LEU74      -0.2867
     16  CB        22.9930   21.7700   11.9190 C.3    74  LEU74       0.0270
     17  CG        21.5420   22.2350   11.9650 C.3    74  LEU74       0.0019
     18  CD1       21.1350   22.5640   13.3790 C.3    74  LEU74       0.0001
     19  CD2       21.3240   23.4260   11.0900 C.3    74  LEU74       0.0001
     20  N         23.8620   30.8420   11.6260 N.3    82  LEU82      -0.1245
     21  CA        22.6780   30.9290   12.4830 C.3    82  LEU82       0.1561
     22  C         22.9150   31.7490   13.7570 C.2    82  LEU82       0.2260
     23  O         22.0280   32.4980   14.1650 O.2    82  LEU82      -0.2867
     24  CB        22.1670   29.5050   12.8090 C.3    82  LEU82       0.0270
     25  CG        20.8530   29.3560   13.5900 C.3    82  LEU82       0.0019
     26  CD1       19.6510   29.9320   12.8270 C.3    82  LEU82       0.0001
     27  CD2       20.5960   27.8870   13.9660 C.3    82  LEU82       0.0001
     28  N         20.5560   20.9260    5.6260 N.3   103  ASP103     -0.1225
     29  CA        20.1260   20.3020    6.8640 C.3   103  ASP103      0.1805
     30  C         18.8590   19.4610    6.5530 C.2   103  ASP103      0.2598
     31  O         18.4610   19.3840    5.3860 O.2   103  ASP103     -0.2718
     32  CB        19.9300   21.3530    7.9810 C.3   103  ASP103      0.1424
     33  CG        18.7210   22.2660    7.9070 C.2   103  ASP103      0.3668
     34  OD1       17.9770   22.2020    6.9040 O.co2 103  ASP103     -0.2456
     35  OD2       18.5170   23.0410    8.8530 O.co2 103  ASP103     -0.2456
     36  N         18.2330   18.8430    7.5690 N.am  104  ARG104     -0.1966
     37  CA        17.0220   18.0330    7.3830 C.3   104  ARG104      0.1729
     38  C         15.8540   18.7680    6.6970 C.2   104  ARG104      0.2616
     39  O         15.0100   18.1050    6.1010 O.2   104  ARG104     -0.2715
     40  CB        16.5390   17.4440    8.7080 C.3   104  ARG104      0.0348
     41  CG        17.1330   16.0780    9.0670 C.3   104  ARG104      0.0492
     42  CD        16.4150   15.4740   10.2730 C.3   104  ARG104      0.2205
     43  NE        15.7480   16.5000   11.0900 N.pl3 104  ARG104     -0.0865
     44  CZ        15.4440   16.3680   12.3770 C.cat 104  ARG104      0.5346
     45  NH1       15.7440   15.2480   13.0250 N.pl3 104  ARG104      0.1354
     46  NH2       14.8460   17.3560   13.0300 N.pl3 104  ARG104      0.1354
     47  N         15.7940   20.1130    6.7740 N.am  105  TYR105     -0.1974
     48  CA        14.7080   20.8670    6.1220 C.3   105  TYR105      0.1639
     49  C         15.1010   21.3770    4.7320 C.2   105  TYR105      0.2290
     50  O         14.3370   22.1140    4.1130 O.2   105  TYR105     -0.2864
     51  CB        14.2400   22.0340    7.0050 C.3   105  TYR105      0.0560
     52  CG        13.5330   21.6250    8.2820 C.ar  105  TYR105     -0.0198
     53  CD1       13.0510   20.3280    8.4560 C.ar  105  TYR105     -0.0009
     54  CD2       13.2820   22.5530    9.2890 C.ar  105  TYR105     -0.0009
     55  CE1       12.3900   19.9520    9.6210 C.ar  105  TYR105      0.0417
     56  CE2       12.5960   22.1940   10.4480 C.ar  105  TYR105      0.0417
     57  CZ        12.1640   20.8900   10.6130 C.ar  105  TYR105      0.1957
     58  OH        11.5080   20.5280   11.7560 O.3   105  TYR105     -0.2866
     59  N         17.5620   23.3830    4.2260 N.3   107  ASP107     -0.1239
     60  CA        18.1120   24.7290    4.3580 C.3   107  ASP107      0.1674
     61  C         19.6070   24.6730    4.3240 C.2   107  ASP107      0.2266
     62  O         20.2190   23.7890    4.9230 O.2   107  ASP107     -0.2867
     63  CB        17.6720   25.4140    5.6580 C.3   107  ASP107      0.1410
     64  CG        16.2190   25.8380    5.6930 C.2   107  ASP107      0.3668
     65  OD1       15.8020   26.5970    4.7950 O.co2 107  ASP107     -0.2456
     66  OD2       15.5110   25.4450    6.6380 O.co2 107  ASP107     -0.2456
     67  N         20.2380   30.2450    3.7170 N.3   111  HIS111     -0.1226
     68  CA        18.8580   30.2890    4.1910 C.3   111  HIS111      0.1752
     69  C         18.8050   30.7600    5.6510 C.2   111  HIS111      0.2595
     70  O         17.9870   31.6100    5.9870 O.2   111  HIS111     -0.2718
     71  CB        18.2350   28.8760    4.1360 C.3   111  HIS111      0.0759
     72  CG        17.7880   28.4350    2.7740 C.ar  111  HIS111      0.0818
     73  ND1       18.6510   27.7530    1.9240 N.ar  111  HIS111     -0.2268
     74  CD2       16.5830   28.5650    2.1670 C.ar  111  HIS111      0.1154
     75  CE1       17.9550   27.5150    0.8270 C.ar  111  HIS111      0.1986
     76  NE2       16.7080   27.9780    0.9280 N.ar  111  HIS111     -0.2212
     77  N         19.6680   30.1750    6.5150 N.am  112  LEU112     -0.1980
     78  CA        19.7250   30.4550    7.9510 C.3   112  LEU112      0.1596
     79  C         20.2210   31.8610    8.2510 C.2   112  LEU112      0.2287
     80  O         19.6090   32.5290    9.0840 O.2   112  LEU112     -0.2864
     81  CB        20.5290   29.3810    8.7180 C.3   112  LEU112      0.0297
     82  CG        20.1100   27.9120    8.5580 C.3   112  LEU112      0.0022
     83  CD1       20.8870   27.0290    9.5150 C.3   112  LEU112      0.0001
     84  CD2       18.6260   27.7150    8.8250 C.3   112  LEU112      0.0001
     85  N         17.3910   34.3440    7.1590 N.3   115  GLU115     -0.1231
     86  CA        16.3150   34.2790    8.1400 C.3   115  GLU115      0.1699
     87  C         16.5900   35.1170    9.3810 C.2   115  GLU115      0.2592
     88  O         15.6570   35.7080    9.9520 O.2   115  GLU115     -0.2718
     89  CB        16.0090   32.8170    8.5120 C.3   115  GLU115      0.0402
     90  CG        14.7570   32.6210    9.3630 C.3   115  GLU115      0.1161
     91  CD        13.4630   33.2110    8.8300 C.2   115  GLU115      0.3649
     92  OE1       13.1460   32.9870    7.6430 O.co2 115  GLU115     -0.2457
     93  OE2       12.7310   33.8460    9.6180 O.co2 115  GLU115     -0.2457
     94  N         17.8790   35.1790    9.7810 N.am  116  LEU116     -0.1980
     95  CA        18.3460   35.9310   10.9390 C.3   116  LEU116      0.1596
     96  C         18.8340   37.3400   10.5820 C.2   116  LEU116      0.2287
     97  O         19.2480   38.0710   11.4710 O.2   116  LEU116     -0.2864
     98  CB        19.4180   35.1280   11.7090 C.3   116  LEU116      0.0297
     99  CG        18.9330   34.1200   12.7630 C.3   116  LEU116      0.0022
    100  CD1       18.2580   34.8300   13.9470 C.3   116  LEU116      0.0001
    101  CD2       18.0240   33.0520   12.1760 C.3   116  LEU116      0.0001
    102  N         14.5480   25.0810   -0.0280 N.3   136  ASP136     -0.1239
    103  CA        14.3900   24.1920    1.1160 C.3   136  ASP136      0.1674
    104  C         13.1180   23.3270    0.9160 C.2   136  ASP136      0.2266
    105  O         12.4930   23.3950   -0.1430 O.2   136  ASP136     -0.2867
    106  CB        14.3610   24.9960    2.4320 C.3   136  ASP136      0.1410
    107  CG        13.1590   25.9150    2.6680 C.2   136  ASP136      0.3668
    108  OD1       12.2350   25.9360    1.8190 O.co2 136  ASP136     -0.2456
    109  OD2       13.1300   26.5870    3.7090 O.co2 136  ASP136     -0.2456
    110  N         10.2210   23.7210    2.1210 N.3   138  PHE138     -0.1241
    111  CA         9.0220   24.5580    2.0960 C.3   138  PHE138      0.1605
    112  C          8.9380   25.2850    0.7450 C.2   138  PHE138      0.2264
    113  O          8.0180   26.0730    0.5310 O.2   138  PHE138     -0.2867
    114  CB         9.0570   25.5660    3.2600 C.3   138  PHE138      0.0534
    115  CG         9.2820   24.9190    4.6110 C.ar  138  PHE138     -0.0203
    116  CD1        8.2180   24.3760    5.3270 C.ar  138  PHE138     -0.0042
    117  CD2       10.5670   24.8130    5.1450 C.ar  138  PHE138     -0.0042
    118  CE1        8.4320   23.7440    6.5570 C.ar  138  PHE138     -0.0003
    119  CE2       10.7850   24.1700    6.3670 C.ar  138  PHE138     -0.0003
    120  CZ         9.7130   23.6450    7.0690 C.ar  138  PHE138     -0.0000
    121  N         11.3530   27.3350   -0.4260 N.3   140  LYS140     -0.1245
    122  CA        11.9230   28.6760   -0.3230 C.3   140  LYS140      0.1561
    123  C         13.4120   28.7640   -0.5730 C.2   140  LYS140      0.2260
    124  O         14.1720   27.8960   -0.1590 O.2   140  LYS140     -0.2867
    125  CB        11.5920   29.2750    1.0400 C.3   140  LYS140      0.0271
    126  CG        10.1630   29.7480    1.0810 C.3   140  LYS140      0.0035
    127  CD         9.6730   30.0240    2.4710 C.3   140  LYS140      0.0206
    128  CE         8.1660   30.0210    2.5180 C.3   140  LYS140      0.1093
    129  NZ         7.5730   31.0720    1.6540 N.3   140  LYS140     -0.1314
    130  N         12.9260   34.0840    1.5230 N.3   145  ILE145     -0.1245
    131  CA        12.9460   34.3830    2.9620 C.3   145  ILE145      0.1561
    132  C         13.1020   35.8910    3.2190 C.2   145  ILE145      0.2260
    133  O         12.3270   36.4380    3.9840 O.2   145  ILE145     -0.2867
    134  CB        14.0200   33.5210    3.6950 C.3   145  ILE145      0.0252
    135  CG1       13.5630   32.0380    3.8030 C.3   145  ILE145      0.0019
    136  CG2       14.4110   34.1060    5.0740 C.3   145  ILE145      0.0019
    137  CD1       14.7050   31.0260    3.9800 C.3   145  ILE145      0.0001
@<TRIPOS>BOND
     1   123   122    1
     2   123   124    2
     3   121   122    1
     4   122   125    1
     5   105   104    2
     6   102   103    1
     7   113   112    2
     8   112   111    1
     9    75    76   ar
    10    75    73   ar
    11   104   103    1
    12    76    74   ar
    13   125   126    1
    14   126   127    1
    15   103   106    1
    16   130   131    1
    17   129   128    1
    18   108   107   ar
    19    73    72   ar
    20   111   110    1
    21   111   114    1
    22    74    72   ar
    23   106   107    1
    24   127   128    1
    25   107   109   ar
    26    72    71    1
    27   131   132    1
    28   131   134    1
    29   132   133    2
    30   114   115    1
    31   134   135    1
    32   134   136    1
    33    67    68    1
    34   135   137    1
    35    50    49    2
    36    71    68    1
    37    68    69    1
    38    59    60    1
    39    61    60    1
    40    61    62    2
    41    60    63    1
    42   115   117   ar
    43   115   116   ar
    44    49    48    1
    45    65    64   ar
    46   117   119   ar
    47   116   118   ar
    48    31    30    2
    49    28    29    1
    50    69    70    2
    51    69    77   am
    52    63    64    1
    53    64    66   ar
    54    39    38    2
    55    48    47    1
    56    48    51    1
    57   119   120   ar
    58    77    78    1
    59    30    29    1
    60    30    36   am
    61   118   120   ar
    62    38    47   am
    63    38    37    1
    64    29    32    1
    65    34    33   ar
    66    51    52    1
    67    85    86    1
    68    37    36    1
    69    37    40    1
    70    92    91   ar
    71    33    32    1
    72    33    35   ar
    73    78    79    1
    74    78    81    1
    75    86    89    1
    76    86    87    1
    77    79    80    2
    78    52    53   ar
    79    52    54   ar
    80    53    55   ar
    81    89    90    1
    82    82    81    1
    83    82    84    1
    84    82    83    1
    85    40    41    1
    86    91    90    1
    87    91    93   ar
    88    41    42    1
    89    54    56   ar
    90    87    94   am
    91    87    88    2
    92    55    57   ar
    93    94    95    1
    94     4     3    2
    95    42    43    1
    96    56    57   ar
    97    12    13    1
    98    96    95    1
    99    96    97    2
   100    57    58    1
   101    13    14    1
   102    13    16    1
   103    14    15    2
   104     3     2    1
   105    95    98    1
   106    43    44    2
   107    19    17    1
   108    20    21    1
   109    98    99    1
   110    16    17    1
   111    17    18    1
   112   101    99    1
   113     2     1    1
   114     2     5    1
   115    44    45    1
   116    44    46    1
   117    21    24    1
   118    21    22    1
   119    99   100    1
   120    24    25    1
   121    26    25    1
   122     5     6    1
   123    25    27    1
   124    22    23    2
   125     6     7    1
   126     7     8    1
   127     8     9    2
   128     9    11    1
   129     9    10    1
