@<TRIPOS>MOLECULE
tmp/5ootA00.pdb
 174 164 0 0 0
SMALL
GASTEIGER

@<TRIPOS>ATOM
      1  N          2.8740   -9.6530   29.3610 N.3    10  GLN10      -0.1231
      2  CA         1.9770  -10.3320   28.3810 C.3    10  GLN10       0.1698
      3  C          2.4580  -10.4090   26.9490 C.2    10  GLN10       0.2593
      4  O          3.3030   -9.6070   26.5010 O.2    10  GLN10      -0.2718
      5  CB         0.5660   -9.7370   28.3690 C.3    10  GLN10       0.0381
      6  CG         0.3950   -8.4090   27.6340 C.3    10  GLN10       0.0905
      7  CD        -0.9940   -8.2230   27.0780 C.2    10  GLN10       0.2608
      8  OE1       -1.3810   -7.1070   26.7900 O.2    10  GLN10      -0.2717
      9  NE2       -1.7470   -9.3100   26.9180 N.am   10  GLN10      -0.0878
     10  N          1.8810  -11.3660   26.2310 N.am   11  THR11      -0.1939
     11  CA         2.2870  -11.6640   24.8590 C.3    11  THR11       0.2028
     12  C          1.5650  -10.7290   23.8960 C.2    11  THR11       0.2642
     13  O          0.3510  -10.7570   23.7680 O.2    11  THR11      -0.2714
     14  CB         2.0330  -13.1320   24.4630 C.3    11  THR11       0.1808
     15  OG1        3.0250  -13.9440   25.0770 O.3    11  THR11      -0.2208
     16  CG2        2.1590  -13.3260   22.9580 C.3    11  THR11       0.0379
     17  N          2.3610   -9.9360   23.2040 N.am   12  LEU12      -0.1963
     18  CA         1.8660   -8.9490   22.2840 C.3    12  LEU12       0.1728
     19  C          1.8530   -9.4980   20.8560 C.2    12  LEU12       0.2616
     20  O          0.9890   -9.1360   20.0700 O.2    12  LEU12      -0.2715
     21  CB         2.7540   -7.7090   22.3920 C.3    12  LEU12       0.0311
     22  CG         2.2180   -6.4950   23.1470 C.3    12  LEU12       0.0022
     23  CD1        1.1820   -6.7750   24.2360 C.3    12  LEU12       0.0001
     24  CD2        3.4150   -5.7190   23.6740 C.3    12  LEU12       0.0001
     25  N          2.8200  -10.3460   20.5270 N.am   13  GLY13      -0.1955
     26  CA         2.8710  -11.0220   19.2400 C.3    13  GLY13       0.1869
     27  C          3.8620  -12.1740   19.2630 C.2    13  GLY13       0.2309
     28  O          4.6350  -12.3190   20.2110 O.2    13  GLY13      -0.2863
     29  N          9.9350  -15.0630   13.7950 N.3    17  TYR17      -0.1241
     30  CA        10.6150  -13.8540   14.3360 C.3    17  TYR17       0.1605
     31  C         10.2970  -13.7130   15.8390 C.2    17  TYR17       0.2264
     32  O          9.5150  -12.8410   16.2450 O.2    17  TYR17      -0.2867
     33  CB        10.2260  -12.5660   13.5670 C.3    17  TYR17       0.0534
     34  CG         8.7320  -12.3170   13.3870 C.ar   17  TYR17      -0.0201
     35  CD1        8.0130  -11.7180   14.4460 C.ar   17  TYR17      -0.0009
     36  CD2        8.0730  -12.6880   12.2080 C.ar   17  TYR17      -0.0009
     37  CE1        6.6630  -11.4520   14.2880 C.ar   17  TYR17       0.0417
     38  CE2        6.7050  -12.4420   12.0760 C.ar   17  TYR17       0.0417
     39  CZ         6.0330  -11.8440   13.1310 C.ar   17  TYR17       0.1957
     40  OH         4.6550  -11.5990   13.0310 O.3    17  TYR17      -0.2866
     41  N          7.0950  -11.0040   21.0670 N.3    20  VAL20      -0.1245
     42  CA         7.1010   -9.6430   21.5650 C.3    20  VAL20       0.1561
     43  C          6.2500   -9.6230   22.7930 C.2    20  VAL20       0.2260
     44  O          5.0760  -10.0560   22.7360 O.2    20  VAL20      -0.2867
     45  CB         6.5200   -8.6220   20.5430 C.3    20  VAL20       0.0252
     46  CG1        6.1870   -7.2810   21.2000 C.3    20  VAL20       0.0019
     47  CG2        7.5170   -8.3950   19.4280 C.3    20  VAL20       0.0019
     48  N          4.9840   -7.3110   26.4020 N.3    22  LEU22      -0.1245
     49  CA         4.7890   -6.0360   27.0830 C.3    22  LEU22       0.1561
     50  C          5.7330   -6.0680   28.2860 C.2    22  LEU22       0.2260
     51  O          5.7290   -7.0510   29.0200 O.2    22  LEU22      -0.2867
     52  CB         3.3460   -5.9270   27.5770 C.3    22  LEU22       0.0270
     53  CG         2.6950   -4.5420   27.6200 C.3    22  LEU22       0.0019
     54  CD1        1.4700   -4.6090   28.5040 C.3    22  LEU22       0.0001
     55  CD2        3.6240   -3.4670   28.0910 C.3    22  LEU22       0.0001
     56  N          8.0470   -2.2870   24.8010 N.3    33  ALA33      -0.1245
     57  CA         7.9200   -3.5810   24.1110 C.3    33  ALA33       0.1562
     58  C          9.2800   -4.2690   23.9380 C.2    33  ALA33       0.2260
     59  O         10.2670   -3.6200   23.5910 O.2    33  ALA33      -0.2867
     60  CB         7.2470   -3.3820   22.7670 C.3    33  ALA33       0.0290
     61  N         11.3460   -7.6370   22.2590 N.3    35  LYS35      -0.1245
     62  CA        11.3610   -8.6880   21.3020 C.3    35  LYS35       0.1561
     63  C         12.4220   -9.6590   21.7690 C.2    35  LYS35       0.2260
     64  O         13.5480   -9.2670   22.0800 O.2    35  LYS35      -0.2867
     65  CB        11.6540   -8.1460   19.8930 C.3    35  LYS35       0.0271
     66  CG        11.7640   -9.1920   18.7840 C.3    35  LYS35       0.0035
     67  CD        12.2710   -8.5700   17.4760 C.3    35  LYS35       0.0206
     68  CE        12.1420   -9.5190   16.2870 C.3    35  LYS35       0.1093
     69  NZ        12.4270   -8.7990   15.0260 N.3    35  LYS35      -0.1314
     70  N          9.4340    3.1000   14.7170 N.3    58  ILE58      -0.1245
     71  CA         9.5180    2.6510   16.1450 C.3    58  ILE58       0.1561
     72  C         10.8960    2.9130   16.6940 C.2    58  ILE58       0.2260
     73  O         11.8660    2.5440   16.0760 O.2    58  ILE58      -0.2867
     74  CB         9.2170    1.1560   16.4640 C.3    58  ILE58       0.0252
     75  CG1        9.8340    0.2320   15.4200 C.3    58  ILE58       0.0019
     76  CG2        7.7190    0.9390   16.7060 C.3    58  ILE58       0.0019
     77  CD1       11.2890   -0.1960   15.6190 C.3    58  ILE58       0.0001
     78  N         12.1190   -1.7790   22.6340 N.3    74  MET74      -0.1230
     79  CA        11.5880   -0.9050   21.5930 C.3    74  MET74       0.1702
     80  C         10.3180   -0.2110   22.0640 C.2    74  MET74       0.2592
     81  O          9.6290   -0.6720   22.9610 O.2    74  MET74      -0.2718
     82  CB        11.2630   -1.7220   20.3230 C.3    74  MET74       0.0401
     83  CG        12.4550   -2.3430   19.6030 C.3    74  MET74       0.0596
     84  SD        11.9810   -3.2810   18.1160 S.3    74  MET74      -0.1393
     85  CE        11.4300   -4.8340   18.7620 C.3    74  MET74       0.0692
     86  N         10.0130    0.8910   21.4040 N.am   75  GLU75      -0.1966
     87  CA         8.7860    1.6630   21.6220 C.3    75  GLU75       0.1733
     88  C          7.5860    0.7730   21.6140 C.2    75  GLU75       0.2616
     89  O          7.4940   -0.1370   20.8160 O.2    75  GLU75      -0.2715
     90  CB         8.6460    2.6890   20.4890 C.3    75  GLU75       0.0429
     91  CG         7.6430    3.7870   20.7200 C.3    75  GLU75       0.1163
     92  CD         7.5370    4.7240   19.5240 C.2    75  GLU75       0.3649
     93  OE1        6.4610    5.3210   19.3410 O.co2  75  GLU75      -0.2457
     94  OE2        8.5060    4.8640   18.7550 O.co2  75  GLU75      -0.2457
     95  N          6.6590    1.0240   22.5060 N.am   76  LEU76      -0.1963
     96  CA         5.4360    0.2920   22.5670 C.3    76  LEU76       0.1728
     97  C          4.3650    1.0850   21.8180 C.2    76  LEU76       0.2616
     98  O          4.1350    2.2440   22.0770 O.2    76  LEU76      -0.2715
     99  CB         4.9990    0.0940   24.0260 C.3    76  LEU76       0.0311
    100  CG         3.5610   -0.4690   24.1600 C.3    76  LEU76       0.0022
    101  CD1        3.5130   -1.9810   23.9190 C.3    76  LEU76       0.0001
    102  CD2        2.9880   -0.1760   25.5220 C.3    76  LEU76       0.0001
    103  N          3.6380    0.4310   20.9610 N.am   77  ALA77      -0.1963
    104  CA         2.6240    1.1120   20.2020 C.3    77  ALA77       0.1728
    105  C          1.3550    0.5030   20.7720 C.2    77  ALA77       0.2617
    106  O          0.9640   -0.6230   20.4850 O.2    77  ALA77      -0.2715
    107  CB         2.8330    0.8960   18.7040 C.3    77  ALA77       0.0334
    108  N          0.7580    1.2500   21.6690 N.am   78  SER78      -0.1936
    109  CA        -0.3360    0.7310   22.4850 C.3    78  SER78       0.2055
    110  C         -1.6890    0.6770   21.7730 C.2    78  SER78       0.2644
    111  O         -2.6240    0.0990   22.2910 O.2    78  SER78      -0.2714
    112  CB        -0.4670    1.5670   23.7630 C.3    78  SER78       0.2130
    113  OG        -1.1510    2.7930   23.4850 O.3    78  SER78      -0.2179
    114  N         -1.7970    1.2760   20.5980 N.am   79  GLY79      -0.1939
    115  CA        -3.0000    1.1160   19.7510 C.3    79  GLY79       0.2014
    116  C         -2.9890   -0.0780   18.7820 C.2    79  GLY79       0.2639
    117  O         -3.9370   -0.2760   18.0370 O.2    79  GLY79      -0.2714
    118  N         -1.9120   -0.8520   18.7580 N.am   80  GLY80      -0.1939
    119  CA        -1.8490   -2.0630   17.9390 C.3    80  GLY80       0.2014
    120  C         -1.5380   -1.7490   16.4830 C.2    80  GLY80       0.2639
    121  O         -0.8750   -0.7550   16.1840 O.2    80  GLY80      -0.2714
    122  N         -2.0300   -2.5820   15.5710 N.am   81  SER81      -0.1949
    123  CA        -1.7080   -2.4730   14.1580 C.3    81  SER81       0.1924
    124  C         -2.7910   -1.8050   13.3460 C.2    81  SER81       0.2314
    125  O         -3.9700   -1.8460   13.6690 O.2    81  SER81      -0.2863
    126  CB        -1.3680   -3.8400   13.5700 C.3    81  SER81       0.2116
    127  OG        -2.5420   -4.6090   13.4020 O.3    81  SER81      -0.2180
    128  N         -5.6940   -4.0920   12.1050 N.3    84  ASP84      -0.1239
    129  CA        -6.9140   -4.1910   12.8820 C.3    84  ASP84       0.1674
    130  C         -7.8180   -2.9870   12.7490 C.2    84  ASP84       0.2266
    131  O         -8.8940   -3.0160   13.2810 O.2    84  ASP84      -0.2867
    132  CB        -6.6210   -4.4770   14.3750 C.3    84  ASP84       0.1410
    133  CG        -5.9650   -5.8580   14.6070 C.2    84  ASP84       0.3668
    134  OD1       -6.3720   -6.8510   13.9900 O.co2  84  ASP84      -0.2456
    135  OD2       -5.0280   -5.9750   15.4130 O.co2  84  ASP84      -0.2456
    136  N          0.2060   -5.1910    8.9820 N.3   124  HIS124     -0.1226
    137  CA         0.7000   -5.8620   10.1780 C.3   124  HIS124      0.1752
    138  C          1.9140   -5.1490   10.7580 C.2   124  HIS124      0.2596
    139  O          2.1210   -5.1940   11.9820 O.2   124  HIS124     -0.2718
    140  CB         1.0170   -7.3720    9.9140 C.3   124  HIS124      0.0759
    141  CG        -0.1940   -8.2500    9.9220 C.ar  124  HIS124      0.0818
    142  ND1       -0.6900   -8.8670    8.7880 N.ar  124  HIS124     -0.2268
    143  CD2       -1.0470   -8.5750   10.9310 C.ar  124  HIS124      0.1154
    144  CE1       -1.7840   -9.5480    9.1030 C.ar  124  HIS124      0.1986
    145  NE2       -2.0360   -9.3720   10.3930 N.ar  124  HIS124     -0.2212
    146  N          2.7110   -4.4820    9.9260 N.am  125  ASN125     -0.1974
    147  CA         3.9610   -3.8320   10.4000 C.3   125  ASN125      0.1688
    148  C          3.8160   -2.3420   10.6150 C.2   125  ASN125      0.2292
    149  O          4.7920   -1.6320   10.9140 O.2   125  ASN125     -0.2864
    150  CB         5.1140   -4.1370    9.4260 C.3   125  ASN125      0.1181
    151  CG         5.5720   -5.5920    9.5100 C.2   125  ASN125      0.2629
    152  OD1        5.4110   -6.2040   10.5400 O.2   125  ASN125     -0.2716
    153  ND2        6.1280   -6.1430    8.4250 N.am  125  ASN125     -0.0877
    154  N          2.2160    0.1150   13.0220 N.3   127  LEU127     -0.1245
    155  CA         1.6230    0.2040   14.3330 C.3   127  LEU127      0.1561
    156  C          1.2170    1.6550   14.6800 C.2   127  LEU127      0.2260
    157  O          1.6630    2.5920   14.0340 O.2   127  LEU127     -0.2867
    158  CB         2.5880   -0.3820   15.3640 C.3   127  LEU127      0.0270
    159  CG         3.1040   -1.7920   15.0360 C.3   127  LEU127      0.0019
    160  CD1        3.9990   -2.2250   16.2070 C.3   127  LEU127      0.0001
    161  CD2        2.0260   -2.8370   14.8170 C.3   127  LEU127      0.0001
    162  N          7.2920   -0.4380   11.8030 N.3   137  ALA137     -0.1231
    163  CA         7.9300   -1.4320   12.6640 C.3   137  ALA137      0.1694
    164  C          8.4490   -2.6920   11.9250 C.2   137  ALA137      0.2592
    165  O          8.0110   -3.0250   10.8130 O.2   137  ALA137     -0.2718
    166  CB         6.9160   -1.8450   13.7160 C.3   137  ALA137      0.0304
    167  N          9.3640   -3.3850   12.6000 N.am  138  ASP138     -0.1974
    168  CA         9.9500   -4.6420   12.1800 C.3   138  ASP138      0.1709
    169  C         11.0150   -4.4330   11.1390 C.2   138  ASP138      0.2293
    170  O         10.6970   -4.2890    9.9520 O.2   138  ASP138     -0.2864
    171  CB         8.9190   -5.6730   11.6950 C.3   138  ASP138      0.1436
    172  CG         9.5500   -7.0730   11.4420 C.2   138  ASP138      0.3671
    173  OD1       10.8030   -7.2590   11.5520 O.co2 138  ASP138     -0.2456
    174  OD2        8.7620   -7.9790   11.0920 O.co2 138  ASP138     -0.2456
@<TRIPOS>BOND
     1   153   151   am
     2   142   144   ar
     3   142   141   ar
     4   136   137    1
     5   144   145   ar
     6   150   151    1
     7   150   147    1
     8   151   152    2
     9   140   141    1
    10   140   137    1
    11   141   143   ar
    12   146   147    1
    13   146   138   am
    14   170   169    2
    15   137   138    1
    16   145   143   ar
    17   147   148    1
    18   148   149    2
    19   138   139    2
    20   165   164    2
    21   174   172   ar
    22   169   168    1
    23   172   173   ar
    24   172   171    1
    25   171   168    1
    26   162   163    1
    27   164   167   am
    28   164   163    1
    29    38    36   ar
    30    38    39   ar
    31   128   129    1
    32   168   167    1
    33    36    34   ar
    34   163   166    1
    35   130   129    1
    36   130   131    2
    37   129   132    1
    38   154   155    1
    39    40    39    1
    40    39    37   ar
    41   124   125    2
    42   124   123    1
    43    34    33    1
    44    34    35   ar
    45   127   126    1
    46    33    30    1
    47   126   123    1
    48    29    30    1
    49   134   133   ar
    50   157   156    2
    51   123   122    1
    52    37    35   ar
    53   155   156    1
    54   155   158    1
    55    30    31    1
    56   132   133    1
    57   133   135   ar
    58    70    71    1
    59   161   159    1
    60    69    68    1
    61   159   158    1
    62   159   160    1
    63    75    77    1
    64    75    74    1
    65   122   120   am
    66    31    32    2
    67    73    72    2
    68    71    74    1
    69    71    72    1
    70   121   120    2
    71    68    67    1
    72    74    76    1
    73   120   119    1
    74    67    66    1
    75   119   118    1
    76   117   116    2
    77    84    85    1
    78    84    83    1
    79   107   104    1
    80    94    92   ar
    81   118   116   am
    82   116   115    1
    83    66    65    1
    84    26    27    1
    85    26    25    1
    86    27    28    2
    87    93    92   ar
    88    47    45    1
    89    92    91    1
    90    83    82    1
    91   115   114    1
    92    65    62    1
    93    20    19    2
    94   104   105    1
    95   104   103    1
    96    82    79    1
    97   106   105    2
    98    90    91    1
    99    90    87    1
   100    25    19   am
   101    45    46    1
   102    45    42    1
   103   114   110   am
   104   105   108   am
   105    89    88    2
   106    19    18    1
   107   103    97   am
   108    41    42    1
   109    62    63    1
   110    62    61    1
   111    86    87    1
   112    86    80   am
   113    42    43    1
   114    79    80    1
   115    79    78    1
   116    88    87    1
   117    88    95   am
   118   108   109    1
   119    63    64    2
   120   110   111    2
   121   110   109    1
   122    97    98    2
   123    97    96    1
   124    80    81    2
   125    18    21    1
   126    18    17    1
   127    21    22    1
   128   109   112    1
   129    95    96    1
   130    96    99    1
   131    44    43    2
   132    60    57    1
   133    16    14    1
   134    22    24    1
   135    22    23    1
   136    17    12   am
   137   113   112    1
   138    59    58    2
   139    13    12    2
   140    12    11    1
   141   101   100    1
   142    58    57    1
   143    99   100    1
   144    57    56    1
   145   100   102    1
   146    14    11    1
   147    14    15    1
   148    11    10    1
   149    10     3   am
   150    48    49    1
   151     4     3    2
   152     8     7    2
   153     9     7   am
   154     3     2    1
   155     7     6    1
   156    49    52    1
   157    49    50    1
   158    52    53    1
   159    53    55    1
   160    53    54    1
   161     6     5    1
   162    50    51    2
   163     5     2    1
   164     2     1    1
