@<TRIPOS>MOLECULE
tmp/5oowB00.pdb
 116 107 0 0 0
SMALL
GASTEIGER

@<TRIPOS>ATOM
      1  N        -22.6380  -48.6380  -22.3670 N.3     9  ASP9       -0.1239
      2  CA       -21.1890  -48.8460  -22.3130 C.3     9  ASP9        0.1674
      3  C        -20.4780  -47.4940  -22.2270 C.2     9  ASP9        0.2266
      4  O        -20.3100  -46.8050  -23.2420 O.2     9  ASP9       -0.2867
      5  CB       -20.7250  -49.6370  -23.5320 C.3     9  ASP9        0.1410
      6  CG       -19.2300  -49.8990  -23.5310 C.2     9  ASP9        0.3668
      7  OD1      -18.5320  -49.3970  -22.6250 O.co2   9  ASP9       -0.2456
      8  OD2      -18.7550  -50.6170  -24.4400 O.co2   9  ASP9       -0.2456
      9  N        -16.9930  -45.9180  -21.3460 N.3    11  GLY11      -0.1210
     10  CA       -15.5850  -46.1830  -21.1610 C.3    11  GLY11       0.1956
     11  C        -14.7820  -44.9390  -20.8360 C.2    11  GLY11       0.2612
     12  O        -15.3190  -43.8930  -20.4530 O.2    11  GLY11      -0.2717
     13  N        -13.4600  -45.0660  -20.9830 N.am   12  GLY12      -0.1942
     14  CA       -12.5680  -43.9510  -20.7140 C.3    12  GLY12       0.2014
     15  C        -12.7260  -42.7940  -21.6830 C.2    12  GLY12       0.2639
     16  O        -12.5030  -41.6380  -21.3110 O.2    12  GLY12      -0.2714
     17  N        -13.0710  -43.0860  -22.9370 N.am   13  GLY13      -0.1939
     18  CA       -13.2300  -42.0720  -23.9630 C.3    13  GLY13       0.2014
     19  C        -14.6450  -41.8480  -24.4630 C.2    13  GLY13       0.2639
     20  O        -15.1590  -40.7320  -24.3670 O.2    13  GLY13      -0.2714
     21  N        -15.2980  -42.8880  -24.9700 N.am   14  THR14      -0.1950
     22  CA       -16.5790  -42.7530  -25.6510 C.3    14  THR14       0.1897
     23  C        -17.7100  -43.3870  -24.8520 C.2    14  THR14       0.2313
     24  O        -17.5000  -44.0660  -23.8460 O.2    14  THR14      -0.2863
     25  CB       -16.5330  -43.4030  -27.0380 C.3    14  THR14       0.1794
     26  OG1      -16.3720  -44.8180  -26.8890 O.3    14  THR14      -0.2208
     27  CG2      -15.3860  -42.8460  -27.8620 C.3    14  THR14       0.0378
     28  N        -14.8720  -41.5090  -19.2570 N.3    41  GLY41      -0.1210
     29  CA       -14.2770  -41.3100  -17.9490 C.3    41  GLY41       0.1956
     30  C        -13.2480  -40.2000  -17.8990 C.2    41  GLY41       0.2611
     31  O        -13.0850  -39.5540  -16.8620 O.2    41  GLY41      -0.2717
     32  N        -12.5520  -39.9380  -19.0110 N.am   42  GLU42      -0.1979
     33  CA       -11.5410  -38.8820  -18.9850 C.3    42  GLU42       0.1602
     34  C        -12.1760  -37.5230  -18.7320 C.2    42  GLU42       0.2287
     35  O        -11.5480  -36.6520  -18.1210 O.2    42  GLU42      -0.2864
     36  CB       -10.7370  -38.8660  -20.2930 C.3    42  GLU42       0.0415
     37  CG       -11.5250  -38.4410  -21.5450 C.3    42  GLU42       0.1163
     38  CD       -10.6730  -38.4470  -22.8090 C.2    42  GLU42       0.3649
     39  OE1      -11.0330  -39.1490  -23.7840 O.co2  42  GLU42      -0.2457
     40  OE2       -9.6370  -37.7490  -22.8210 O.co2  42  GLU42      -0.2457
     41  N        -12.5380  -37.1710  -14.9680 N.3    45  ASP45      -0.1239
     42  CA       -11.3000  -36.7450  -14.3260 C.3    45  ASP45       0.1674
     43  C        -11.1020  -35.2390  -14.4830 C.2    45  ASP45       0.2266
     44  O        -10.7600  -34.5370  -13.5230 O.2    45  ASP45      -0.2867
     45  CB       -10.1070  -37.5040  -14.9240 C.3    45  ASP45       0.1410
     46  CG       -10.2610  -39.0240  -14.8480 C.2    45  ASP45       0.3668
     47  OD1      -10.9790  -39.5210  -13.9470 O.co2  45  ASP45      -0.2456
     48  OD2       -9.6380  -39.7320  -15.6790 O.co2  45  ASP45      -0.2456
     49  N         -7.7050  -39.2660  -10.9380 N.3    79  GLU79      -0.1245
     50  CA        -8.2920  -40.5540  -11.2960 C.3    79  GLU79       0.1567
     51  C         -8.3150  -41.4870  -10.0970 C.2    79  GLU79       0.2260
     52  O         -9.3520  -42.0720   -9.7670 O.2    79  GLU79      -0.2867
     53  CB        -7.5060  -41.1830  -12.4460 C.3    79  GLU79       0.0388
     54  CG        -8.2590  -42.2880  -13.1780 C.3    79  GLU79       0.1160
     55  CD        -7.5190  -42.7900  -14.3960 C.2    79  GLU79       0.3649
     56  OE1       -7.7700  -43.9440  -14.8190 O.co2  79  GLU79      -0.2457
     57  OE2       -6.6830  -42.0230  -14.9230 O.co2  79  GLU79      -0.2457
     58  N        -11.0360  -40.3800   -7.8830 N.3    82  LYS82      -0.1231
     59  CA       -12.3320  -40.6710   -8.4930 C.3    82  LYS82       0.1693
     60  C        -12.7510  -42.1080   -8.2250 C.2    82  LYS82       0.2591
     61  O        -13.9170  -42.3880   -7.9180 O.2    82  LYS82      -0.2718
     62  CB       -12.2650  -40.4160   -9.9970 C.3    82  LYS82       0.0285
     63  CG       -13.5590  -40.7170  -10.7470 C.3    82  LYS82       0.0035
     64  CD       -13.3680  -40.5730  -12.2520 C.3    82  LYS82       0.0206
     65  CE       -12.6050  -41.7480  -12.8200 C.3    82  LYS82       0.1093
     66  NZ       -12.4700  -41.7160  -14.3040 N.3    82  LYS82      -0.1314
     67  N        -11.8110  -43.0370   -8.3930 N.am   83  ILE83      -0.1980
     68  CA       -12.0860  -44.4560   -8.2020 C.3    83  ILE83       0.1595
     69  C        -12.3690  -44.7530   -6.7320 C.2    83  ILE83       0.2287
     70  O        -13.3550  -45.4190   -6.3900 O.2    83  ILE83      -0.2864
     71  CB       -10.9070  -45.2810   -8.7500 C.3    83  ILE83       0.0276
     72  CG1      -10.7840  -45.0650  -10.2690 C.3    83  ILE83       0.0022
     73  CG2      -11.1010  -46.7400   -8.4540 C.3    83  ILE83       0.0022
     74  CD1       -9.4380  -45.4600  -10.8730 C.3    83  ILE83       0.0001
     75  N        -15.7970  -44.2370   -5.5600 N.3    86  SER86      -0.1217
     76  CA       -16.8770  -45.1510   -5.9190 C.3    86  SER86       0.1889
     77  C        -17.2860  -46.0210   -4.7450 C.2    86  SER86       0.2288
     78  O        -18.4310  -46.4820   -4.6960 O.2    86  SER86      -0.2866
     79  CB       -16.4770  -46.0190   -7.1080 C.3    86  SER86       0.2089
     80  OG       -16.6170  -45.3090   -8.3330 O.3    86  SER86      -0.2183
     81  N        -18.0090  -51.1340  -18.7890 N.3   153  GLY153     -0.1210
     82  CA       -17.0420  -50.0740  -18.5960 C.3   153  GLY153      0.1956
     83  C        -16.8110  -49.7680  -17.1310 C.2   153  GLY153      0.2612
     84  O        -17.7380  -49.8700  -16.3220 O.2   153  GLY153     -0.2717
     85  N        -15.5770  -49.3970  -16.7770 N.am  154  GLY154     -0.1942
     86  CA       -15.2590  -49.1140  -15.3830 C.3   154  GLY154      0.2014
     87  C        -16.0240  -47.9300  -14.8250 C.2   154  GLY154      0.2638
     88  O        -16.4170  -47.9300  -13.6560 O.2   154  GLY154     -0.2714
     89  N        -16.2090  -46.8870  -15.6390 N.am  155  GLN155     -0.1977
     90  CA       -16.9040  -45.6950  -15.1690 C.3   155  GLN155      0.1601
     91  C        -18.3050  -46.0090  -14.6610 C.2   155  GLN155      0.2287
     92  O        -18.8360  -45.2790  -13.8130 O.2   155  GLN155     -0.2864
     93  CB       -16.9650  -44.6510  -16.2730 C.3   155  GLN155      0.0394
     94  CG       -17.4220  -43.2890  -15.7910 C.3   155  GLN155      0.0908
     95  CD       -16.4960  -42.7090  -14.7470 C.2   155  GLN155      0.2608
     96  OE1      -15.3340  -42.4090  -15.0220 O.2   155  GLN155     -0.2717
     97  NE2      -17.0100  -42.5420  -13.5380 N.am  155  GLN155     -0.0878
     98  N        -19.1150  -48.1720  -12.6730 N.3   157  ARG157     -0.1231
     99  CA       -19.0500  -48.5540  -11.2680 C.3   157  ARG157      0.1694
    100  C        -19.4060  -47.4190  -10.3150 C.2   157  ARG157      0.2591
    101  O        -19.5990  -47.6790   -9.1240 O.2   157  ARG157     -0.2718
    102  CB       -17.6530  -49.0760  -10.9450 C.3   157  ARG157      0.0321
    103  CG       -17.3350  -50.3650  -11.6710 C.3   157  ARG157      0.0489
    104  CD       -16.1300  -51.0760  -11.0920 C.3   157  ARG157      0.2205
    105  NE       -16.2370  -52.5040  -11.3510 N.pl3 157  ARG157     -0.0865
    106  CZ       -16.9600  -53.3290  -10.6020 C.cat 157  ARG157      0.5346
    107  NH1      -17.6240  -52.8580   -9.5510 N.pl3 157  ARG157      0.1354
    108  NH2      -17.0190  -54.6180  -10.9010 N.pl3 157  ARG157      0.1354
    109  N        -19.4790  -46.1870  -10.7990 N.am  158  MET158     -0.1979
    110  CA       -19.8360  -45.0470   -9.9600 C.3   158  MET158      0.1605
    111  C        -21.2990  -45.1070   -9.5330 C.2   158  MET158      0.2287
    112  O        -22.1860  -45.0560  -10.3930 O.2   158  MET158     -0.2864
    113  CB       -19.5580  -43.7680  -10.7230 C.3   158  MET158      0.0413
    114  CG       -19.9690  -42.5210   -9.9870 C.3   158  MET158      0.0598
    115  SD       -19.6430  -41.0290  -10.9260 S.3   158  MET158     -0.1393
    116  CE       -20.1570  -39.8170   -9.7170 C.3   158  MET158      0.0692
@<TRIPOS>BOND
     1    27    25    1
     2    25    26    1
     3    25    22    1
     4    22    21    1
     5    22    23    1
     6    21    19   am
     7    23    24    2
     8    19    20    2
     9    19    18    1
    10     8     6   ar
    11    18    17    1
    12    39    38   ar
    13     5     6    1
    14     5     2    1
    15     6     7   ar
    16     4     3    2
    17    17    15   am
    18    40    38   ar
    19    38    37    1
    20     1     2    1
    21     2     3    1
    22    15    16    2
    23    15    14    1
    24    37    36    1
    25     9    10    1
    26    10    11    1
    27    13    11   am
    28    13    14    1
    29    11    12    2
    30    36    33    1
    31    28    29    1
    32    32    33    1
    33    32    30   am
    34    33    34    1
    35    81    82    1
    36    34    35    2
    37    82    83    1
    38    29    30    1
    39    30    31    2
    40    83    85   am
    41    83    84    2
    42    85    86    1
    43    93    94    1
    44    93    90    1
    45    94    95    1
    46    48    46   ar
    47    89    90    1
    48    89    87   am
    49    86    87    1
    50    90    91    1
    51    96    95    2
    52    41    42    1
    53    45    46    1
    54    45    42    1
    55    57    55   ar
    56    46    47   ar
    57    87    88    2
    58    56    55   ar
    59    95    97   am
    60    91    92    2
    61    43    42    1
    62    43    44    2
    63    55    54    1
    64    66    65    1
    65    54    53    1
    66    65    64    1
    67    98    99    1
    68    53    50    1
    69    64    63    1
    70   103   104    1
    71   103   102    1
    72   105   104    1
    73   105   106    2
    74    50    49    1
    75    50    51    1
    76    99   102    1
    77    99   100    1
    78   115   114    1
    79   115   116    1
    80   108   106    1
    81    74    72    1
    82   109   100   am
    83   109   110    1
    84    63    62    1
    85   113   114    1
    86   113   110    1
    87   106   107    1
    88   112   111    2
    89   100   101    2
    90    72    71    1
    91    51    52    2
    92    62    59    1
    93   110   111    1
    94    71    73    1
    95    71    68    1
    96    59    60    1
    97    59    58    1
    98    67    60   am
    99    67    68    1
   100    80    79    1
   101    60    61    2
   102    68    69    1
   103    79    76    1
   104    69    70    2
   105    76    75    1
   106    76    77    1
   107    77    78    2
