@<TRIPOS>MOLECULE
tmp/5op4A00.pdb
 154 144 0 0 0
SMALL
GASTEIGER

@<TRIPOS>ATOM
      1  N          2.1850   -9.0090   28.7270 N.3    11  GLN11      -0.1231
      2  CA         1.3210   -9.6690   27.7390 C.3    11  GLN11       0.1698
      3  C          1.9440   -9.7110   26.3740 C.2    11  GLN11       0.2593
      4  O          2.8720   -8.9270   26.0620 O.2    11  GLN11      -0.2718
      5  CB        -0.0440   -8.9940   27.6160 C.3    11  GLN11       0.0381
      6  CG        -0.0090   -7.5780   27.1020 C.3    11  GLN11       0.0905
      7  CD        -1.3660   -7.0970   26.6810 C.2    11  GLN11       0.2608
      8  OE1       -1.6120   -5.9020   26.6880 O.2    11  GLN11      -0.2717
      9  NE2       -2.2550   -8.0110   26.3220 N.am   11  GLN11      -0.0878
     10  N          1.4100  -10.6020   25.5480 N.am   12  THR12      -0.1939
     11  CA         1.9690  -10.8090   24.2310 C.3    12  THR12       0.2028
     12  C          1.3220   -9.8060   23.2870 C.2    12  THR12       0.2642
     13  O          0.1070   -9.7120   23.1710 O.2    12  THR12      -0.2714
     14  CB         1.8010  -12.2530   23.7760 C.3    12  THR12       0.1808
     15  OG1        2.2330  -13.0850   24.8410 O.3    12  THR12      -0.2208
     16  CG2        2.6630  -12.5540   22.5680 C.3    12  THR12       0.0379
     17  N          2.1730   -9.0000   22.6830 N.am   13  LEU13      -0.1963
     18  CA         1.7310   -8.0040   21.7300 C.3    13  LEU13       0.1728
     19  C          1.7030   -8.5470   20.3320 C.2    13  LEU13       0.2616
     20  O          0.8730   -8.1270   19.5600 O.2    13  LEU13      -0.2715
     21  CB         2.6280   -6.7770   21.7930 C.3    13  LEU13       0.0311
     22  CG         2.1150   -5.6680   22.7070 C.3    13  LEU13       0.0022
     23  CD1        1.0950   -6.0700   23.7570 C.3    13  LEU13       0.0001
     24  CD2        3.2890   -4.9440   23.3120 C.3    13  LEU13       0.0001
     25  N          2.6310   -9.4340   19.9980 N.am   14  GLY14      -0.1955
     26  CA         2.6460  -10.0380   18.6820 C.3    14  GLY14       0.1869
     27  C          3.6570  -11.1570   18.6100 C.2    14  GLY14       0.2309
     28  O          4.5670  -11.2750   19.4650 O.2    14  GLY14      -0.2863
     29  N          6.7930  -10.2520   20.7430 N.3    21  VAL21      -0.1245
     30  CA         6.8920   -8.9280   21.3180 C.3    21  VAL21       0.1561
     31  C          6.0320   -8.9460   22.5340 C.2    21  VAL21       0.2260
     32  O          4.8690   -9.3740   22.4700 O.2    21  VAL21      -0.2867
     33  CB         6.3950   -7.8160   20.3520 C.3    21  VAL21       0.0252
     34  CG1        6.3760   -6.4620   21.0550 C.3    21  VAL21       0.0019
     35  CG2        7.3380   -7.7180   19.1740 C.3    21  VAL21       0.0019
     36  N          4.7090   -6.7030   26.1240 N.3    23  LEU23      -0.1245
     37  CA         4.5100   -5.4250   26.8010 C.3    23  LEU23       0.1561
     38  C          5.4190   -5.4920   28.0260 C.2    23  LEU23       0.2260
     39  O          5.3660   -6.4680   28.7700 O.2    23  LEU23      -0.2867
     40  CB         3.0520   -5.2910   27.2500 C.3    23  LEU23       0.0270
     41  CG         2.4240   -3.9020   27.4200 C.3    23  LEU23       0.0019
     42  CD1        1.2020   -3.9980   28.3200 C.3    23  LEU23       0.0001
     43  CD2        3.3820   -2.8440   27.9210 C.3    23  LEU23       0.0001
     44  N          7.8320   -1.6800   24.6070 N.3    34  ALA34      -0.1245
     45  CA         7.6460   -2.9270   23.8510 C.3    34  ALA34       0.1562
     46  C          8.9750   -3.6230   23.8240 C.2    34  ALA34       0.2260
     47  O         10.0080   -2.9670   23.6120 O.2    34  ALA34      -0.2867
     48  CB         7.1740   -2.6310   22.4260 C.3    34  ALA34       0.0290
     49  N         11.1490   -6.8110   22.0110 N.3    36  LYS36      -0.1245
     50  CA        11.2120   -7.9120   21.0530 C.3    36  LYS36       0.1561
     51  C         12.1850   -8.9310   21.6240 C.2    36  LYS36       0.2260
     52  O         13.2930   -8.5720   22.0010 O.2    36  LYS36      -0.2867
     53  CB        11.7090   -7.4510   19.6800 C.3    36  LYS36       0.0271
     54  CG        11.5900   -8.4940   18.5840 C.3    36  LYS36       0.0035
     55  CD        12.4920   -8.1320   17.4250 C.3    36  LYS36       0.0206
     56  CE        11.9960   -8.6580   16.0810 C.3    36  LYS36       0.1093
     57  NZ        12.7510   -7.9480   15.0240 N.3    36  LYS36      -0.1314
     58  N          9.4470    3.6970   14.6760 N.3    57  ILE57      -0.1245
     59  CA         9.5000    3.1840   16.0360 C.3    57  ILE57       0.1561
     60  C         10.8710    3.4880   16.6230 C.2    57  ILE57       0.2260
     61  O         11.8400    3.2100   15.9790 O.2    57  ILE57      -0.2867
     62  CB         9.2290    1.6880   16.1130 C.3    57  ILE57       0.0252
     63  CG1        7.7530    1.4250   16.0000 C.3    57  ILE57       0.0019
     64  CG2        9.6430    1.1130   17.4800 C.3    57  ILE57       0.0019
     65  CD1        6.9110    1.8180   17.2140 C.3    57  ILE57       0.0001
     66  N         11.9380   -1.1560   22.6650 N.3    73  MET73      -0.1230
     67  CA        11.4070   -0.2300   21.6790 C.3    73  MET73       0.1702
     68  C         10.2370    0.5470   22.1660 C.2    73  MET73       0.2592
     69  O          9.4820    0.1080   22.9950 O.2    73  MET73      -0.2718
     70  CB        10.9200   -1.0140   20.4910 C.3    73  MET73       0.0401
     71  CG        11.9000   -0.9810   19.3540 C.3    73  MET73       0.0596
     72  SD        12.4390   -2.6240   18.9870 S.3    73  MET73      -0.1393
     73  CE        10.9770   -3.3460   18.2550 C.3    73  MET73       0.0692
     74  N         10.0210    1.6910   21.5570 N.am   74  GLU74      -0.1966
     75  CA         8.8150    2.4890   21.8540 C.3    74  GLU74       0.1733
     76  C          7.5690    1.6150   21.7530 C.2    74  GLU74       0.2616
     77  O          7.4150    0.8320   20.7920 O.2    74  GLU74      -0.2715
     78  CB         8.7720    3.6040   20.7820 C.3    74  GLU74       0.0429
     79  CG         7.6650    4.6110   20.8410 C.3    74  GLU74       0.1163
     80  CD         7.6320    5.5520   19.6030 C.2    74  GLU74       0.3649
     81  OE1        6.6260    6.2860   19.4960 O.co2  74  GLU74      -0.2457
     82  OE2        8.5790    5.6060   18.7640 O.co2  74  GLU74      -0.2457
     83  N          6.6410    1.7820   22.6790 N.am   75  LEU75      -0.1963
     84  CA         5.3570    1.1150   22.6290 C.3    75  LEU75       0.1728
     85  C          4.3550    1.9400   21.7760 C.2    75  LEU75       0.2616
     86  O          4.2210    3.1300   21.9550 O.2    75  LEU75      -0.2715
     87  CB         4.8160    0.9450   24.0500 C.3    75  LEU75       0.0311
     88  CG         3.4210    0.2860   24.1450 C.3    75  LEU75       0.0022
     89  CD1        3.4120   -1.2110   23.8030 C.3    75  LEU75       0.0001
     90  CD2        2.8470    0.5250   25.5250 C.3    75  LEU75       0.0001
     91  N          3.6120    1.2860   20.9040 N.am   76  ALA76      -0.1963
     92  CA         2.5680    1.9370   20.0920 C.3    76  ALA76       0.1728
     93  C          1.2850    1.3600   20.6480 C.2    76  ALA76       0.2617
     94  O          0.8850    0.2440   20.3180 O.2    76  ALA76      -0.2715
     95  CB         2.7480    1.6390   18.5800 C.3    76  ALA76       0.0334
     96  N          0.6610    2.0930   21.5670 N.am   77  SER77      -0.1936
     97  CA        -0.4070    1.4880   22.4020 C.3    77  SER77       0.2055
     98  C         -1.7160    1.3890   21.6600 C.2    77  SER77       0.2644
     99  O         -2.6400    0.7160   22.1230 O.2    77  SER77      -0.2714
    100  CB        -0.5770    2.2160   23.7690 C.3    77  SER77       0.2130
    101  OG        -0.9650    3.5780   23.5950 O.3    77  SER77      -0.2179
    102  N         -1.7800    2.0100   20.4730 N.am   78  GLY78      -0.1939
    103  CA        -2.9440    1.8990   19.6080 C.3    78  GLY78       0.2014
    104  C         -2.9820    0.6530   18.7420 C.2    78  GLY78       0.2639
    105  O         -3.9520    0.4450   18.0740 O.2    78  GLY78      -0.2714
    106  N         -1.9120   -0.1300   18.7200 N.am   79  GLY79      -0.1939
    107  CA        -1.8760   -1.4120   18.0050 C.3    79  GLY79       0.2014
    108  C         -1.6540   -1.1320   16.5190 C.2    79  GLY79       0.2639
    109  O         -1.0310   -0.1210   16.1500 O.2    79  GLY79      -0.2714
    110  N         -2.1440   -2.0120   15.6580 N.am   80  SER80      -0.1949
    111  CA        -1.7410   -1.8940   14.2760 C.3    80  SER80       0.1924
    112  C         -2.7820   -1.2620   13.4040 C.2    80  SER80       0.2314
    113  O         -3.9810   -1.3250   13.6550 O.2    80  SER80      -0.2863
    114  CB        -1.2570   -3.2040   13.6710 C.3    80  SER80       0.2116
    115  OG        -2.3350   -3.9040   13.2150 O.3    80  SER80      -0.2180
    116  N         -5.7620   -3.5390   12.1210 N.3    83  ASP83      -0.1239
    117  CA        -7.0170   -3.5760   12.8450 C.3    83  ASP83       0.1674
    118  C         -7.9300   -2.3860   12.7000 C.2    83  ASP83       0.2266
    119  O         -8.9870   -2.4360   13.2170 O.2    83  ASP83      -0.2867
    120  CB        -6.7630   -3.9290   14.3370 C.3    83  ASP83       0.1410
    121  CG        -6.2450   -5.3720   14.4870 C.2    83  ASP83       0.3668
    122  OD1       -6.7500   -6.2610   13.7640 O.co2  83  ASP83      -0.2456
    123  OD2       -5.3100   -5.6030   15.2360 O.co2  83  ASP83      -0.2456
    124  N          0.3190   -4.6740    9.0070 N.3   123  HIS123     -0.1241
    125  CA         0.8420   -5.2380   10.2750 C.3   123  HIS123      0.1621
    126  C          2.0520   -4.5750   10.8370 C.2   123  HIS123      0.2264
    127  O          2.3010   -4.7370   12.0370 O.2   123  HIS123     -0.2867
    128  CB         1.1540   -6.7730   10.1450 C.3   123  HIS123      0.0745
    129  CG        -0.0690   -7.6290   10.1880 C.ar  123  HIS123      0.0817
    130  ND1       -0.8190   -7.7670   11.3390 N.ar  123  HIS123     -0.2268
    131  CD2       -0.6880   -8.3840    9.2390 C.ar  123  HIS123      0.1154
    132  CE1       -1.8260   -8.5960   11.1050 C.ar  123  HIS123      0.1986
    133  NE2       -1.7910   -8.9650    9.8350 N.ar  123  HIS123     -0.2212
    134  N          2.1680    0.7760   13.0070 N.3   126  LEU126     -0.1245
    135  CA         1.5720    0.8220   14.3730 C.3   126  LEU126      0.1561
    136  C          1.1090    2.2330   14.7620 C.2   126  LEU126      0.2260
    137  O          1.5380    3.2290   14.1770 O.2   126  LEU126     -0.2867
    138  CB         2.5930    0.2780   15.4080 C.3   126  LEU126      0.0270
    139  CG         3.1510   -1.1070   15.0760 C.3   126  LEU126      0.0019
    140  CD1        4.0800   -1.5910   16.2020 C.3   126  LEU126      0.0001
    141  CD2        2.0780   -2.1950   14.8320 C.3   126  LEU126      0.0001
    142  N          7.2510    0.1550   11.8700 N.3   136  ALA136     -0.1231
    143  CA         7.8800   -0.8430   12.7380 C.3   136  ALA136      0.1694
    144  C          8.4510   -2.0480   11.9920 C.2   136  ALA136      0.2592
    145  O          8.1410   -2.2780   10.8110 O.2   136  ALA136     -0.2718
    146  CB         6.8530   -1.3090   13.7900 C.3   136  ALA136      0.0304
    147  N          9.3190   -2.7850   12.7060 N.am  137  ASP137     -0.1974
    148  CA         9.9380   -4.0430   12.2500 C.3   137  ASP137      0.1709
    149  C         10.9870   -3.8360   11.1880 C.2   137  ASP137      0.2293
    150  O         10.6840   -3.7410    9.9870 O.2   137  ASP137     -0.2864
    151  CB         8.9110   -5.0670   11.7260 C.3   137  ASP137      0.1436
    152  CG         9.4890   -6.5200   11.6800 C.2   137  ASP137      0.3671
    153  OD1       10.7270   -6.7060   11.6840 O.co2 137  ASP137     -0.2456
    154  OD2        8.6840   -7.4810   11.6230 O.co2 137  ASP137     -0.2456
@<TRIPOS>BOND
     1   124   125    1
     2   131   133   ar
     3   131   129   ar
     4   133   132   ar
     5   150   149    2
     6   128   129    1
     7   128   125    1
     8   129   130   ar
     9   125   126    1
    10   145   144    2
    11   126   127    2
    12   132   130   ar
    13   149   148    1
    14   154   152   ar
    15   152   153   ar
    16   152   151    1
    17   151   148    1
    18   142   143    1
    19   144   147   am
    20   144   143    1
    21   116   117    1
    22   148   147    1
    23   118   117    1
    24   118   119    2
    25   143   146    1
    26   117   120    1
    27   134   135    1
    28   115   114    1
    29   112   113    2
    30   112   111    1
    31   114   111    1
    32   122   121   ar
    33   137   136    2
    34   111   110    1
    35   120   121    1
    36   135   136    1
    37   135   138    1
    38   121   123   ar
    39    58    59    1
    40   141   139    1
    41    57    56    1
    42   139   138    1
    43   139   140    1
    44   110   108   am
    45    61    60    2
    46    63    62    1
    47    63    65    1
    48    59    62    1
    49    59    60    1
    50    56    55    1
    51    62    64    1
    52   109   108    2
    53   108   107    1
    54    55    54    1
    55   107   106    1
    56   105   104    2
    57    73    72    1
    58    95    92    1
    59    54    53    1
    60    27    26    1
    61    27    28    2
    62    26    25    1
    63   106   104   am
    64   104   103    1
    65    82    80   ar
    66    72    71    1
    67    35    33    1
    68    71    70    1
    69    81    80   ar
    70    20    19    2
    71    80    79    1
    72   103   102    1
    73    53    50    1
    74    25    19   am
    75    92    93    1
    76    92    91    1
    77    94    93    2
    78    19    18    1
    79    33    34    1
    80    33    30    1
    81   102    98   am
    82    70    67    1
    83    93    96   am
    84    29    30    1
    85    78    79    1
    86    78    75    1
    87    77    76    2
    88    91    85   am
    89    50    51    1
    90    50    49    1
    91    30    31    1
    92    74    75    1
    93    74    68   am
    94    96    97    1
    95    51    52    2
    96    98    99    2
    97    98    97    1
    98    67    68    1
    99    67    66    1
   100    18    21    1
   101    18    17    1
   102    76    75    1
   103    76    83   am
   104    85    86    2
   105    85    84    1
   106    21    22    1
   107    68    69    2
   108    97   100    1
   109    48    45    1
   110    32    31    2
   111    16    14    1
   112    84    83    1
   113    84    87    1
   114    17    12   am
   115    22    24    1
   116    22    23    1
   117    13    12    2
   118    12    11    1
   119   101   100    1
   120    47    46    2
   121    14    11    1
   122    14    15    1
   123    89    88    1
   124    46    45    1
   125    45    44    1
   126    87    88    1
   127    88    90    1
   128    11    10    1
   129    10     3   am
   130     4     3    2
   131    36    37    1
   132     9     7   am
   133     3     2    1
   134     7     8    2
   135     7     6    1
   136    37    40    1
   137    37    38    1
   138     6     5    1
   139    40    41    1
   140    41    43    1
   141    41    42    1
   142     5     2    1
   143     2     1    1
   144    38    39    2
