@<TRIPOS>MOLECULE
tmp/5op5A00.pdb
 154 145 0 0 0
SMALL
GASTEIGER

@<TRIPOS>ATOM
      1  N          2.7110   -8.9930   22.9230 N.3    12  LEU12      -0.1231
      2  CA         2.0620   -8.0390   22.0250 C.3    12  LEU12       0.1693
      3  C          1.7990   -8.7200   20.6770 C.2    12  LEU12       0.2593
      4  O          0.7610   -8.5130   20.0610 O.2    12  LEU12      -0.2718
      5  CB         2.9320   -6.7840   21.8510 C.3    12  LEU12       0.0284
      6  CG         3.1320   -5.9990   23.1500 C.3    12  LEU12       0.0019
      7  CD1        4.2200   -4.9510   23.0120 C.3    12  LEU12       0.0001
      8  CD2        1.8070   -5.3870   23.5780 C.3    12  LEU12       0.0001
      9  N          2.7520   -9.5270   20.2300 N.am   13  GLY13      -0.1942
     10  CA         2.5800  -10.2730   18.9970 C.3    13  GLY13       0.2014
     11  C          3.9030  -10.8490   18.6080 C.2    13  GLY13       0.2639
     12  O          4.7900  -10.9630   19.4470 O.2    13  GLY13      -0.2714
     13  N          4.0230  -11.2030   17.3270 N.am   14  GLU14      -0.1963
     14  CA         5.2700  -11.6930   16.7360 C.3    14  GLU14       0.1733
     15  C          5.6380  -10.7230   15.6140 C.2    14  GLU14       0.2616
     16  O          4.8080  -10.4470   14.7290 O.2    14  GLU14      -0.2715
     17  CB         5.1130  -13.1050   16.1540 C.3    14  GLU14       0.0429
     18  CG         4.2530  -14.0870   16.9550 C.3    14  GLU14       0.1163
     19  CD         3.4230  -15.0140   16.0590 C.2    14  GLU14       0.3649
     20  OE1        2.8240  -14.5450   15.0560 O.co2  14  GLU14      -0.2457
     21  OE2        3.3510  -16.2270   16.3570 O.co2  14  GLU14      -0.2457
     22  N          6.8620  -10.1900   15.6510 N.am   15  GLY15      -0.1955
     23  CA         7.4210   -9.4980   14.4850 C.3    15  GLY15       0.1869
     24  C          7.8090  -10.4800   13.3680 C.2    15  GLY15       0.2309
     25  O          7.4510  -11.6630   13.4090 O.2    15  GLY15      -0.2863
     26  N          7.4830  -10.2500   20.5150 N.3    20  VAL20      -0.1245
     27  CA         7.4690   -8.9430   21.1170 C.3    20  VAL20       0.1561
     28  C          6.5790   -8.9510   22.3800 C.2    20  VAL20       0.2260
     29  O          5.3990   -9.2670   22.3200 O.2    20  VAL20      -0.2867
     30  CB         7.0200   -7.8810   20.1110 C.3    20  VAL20       0.0252
     31  CG1        6.9220   -6.5100   20.7850 C.3    20  VAL20       0.0019
     32  CG2        8.0040   -7.8480   18.9360 C.3    20  VAL20       0.0019
     33  N          8.2530   -1.8330   24.5470 N.3    33  ALA33      -0.1245
     34  CA         8.1740   -3.1150   23.8510 C.3    33  ALA33       0.1562
     35  C          9.5500   -3.7000   23.7670 C.2    33  ALA33       0.2260
     36  O         10.5470   -2.9860   23.6220 O.2    33  ALA33      -0.2867
     37  CB         7.5850   -2.9240   22.4430 C.3    33  ALA33       0.0290
     38  N         11.5730   -6.9040   21.8530 N.3    35  LYS35      -0.1245
     39  CA        11.6260   -8.0490   20.9550 C.3    35  LYS35       0.1561
     40  C         12.6830   -9.0210   21.4840 C.2    35  LYS35       0.2260
     41  O         13.8110   -8.6260   21.7650 O.2    35  LYS35      -0.2867
     42  CB        11.9620   -7.6430   19.5120 C.3    35  LYS35       0.0271
     43  CG        12.1480   -8.8500   18.6060 C.3    35  LYS35       0.0035
     44  CD        12.1530   -8.4970   17.1330 C.3    35  LYS35       0.0206
     45  CE        13.5470   -8.3470   16.5480 C.3    35  LYS35       0.1093
     46  NZ        13.4820   -8.5210   15.0720 N.3    35  LYS35      -0.1314
     47  N         20.7140   -5.4570   12.0810 N.3    44  GLU44      -0.1245
     48  CA        19.4740   -4.8890   12.5420 C.3    44  GLU44       0.1567
     49  C         19.6860   -3.8500   13.6350 C.2    44  GLU44       0.2260
     50  O         19.1340   -2.7630   13.5220 O.2    44  GLU44      -0.2867
     51  CB        18.5110   -5.9720   12.9880 C.3    44  GLU44       0.0388
     52  CG        17.1040   -5.4540   13.3140 C.3    44  GLU44       0.1160
     53  CD        16.1610   -6.5580   13.7680 C.2    44  GLU44       0.3649
     54  OE1       16.4740   -7.7580   13.5500 O.co2  44  GLU44      -0.2457
     55  OE2       15.0970   -6.2310   14.3500 O.co2  44  GLU44      -0.2457
     56  N          9.3460    3.6500   14.7040 N.3    57  ILE57      -0.1245
     57  CA         9.5550    3.0710   16.0290 C.3    57  ILE57       0.1561
     58  C         10.9930    3.3090   16.5450 C.2    57  ILE57       0.2260
     59  O         11.9510    2.9440   15.8990 O.2    57  ILE57      -0.2867
     60  CB         9.1990    1.6100   16.1050 C.3    57  ILE57       0.0252
     61  CG1        7.6960    1.4250   16.0750 C.3    57  ILE57       0.0019
     62  CG2        9.7270    0.9630   17.4060 C.3    57  ILE57       0.0019
     63  CD1        6.9080    1.9700   17.2650 C.3    57  ILE57       0.0001
     64  N         12.3140   -1.1520   22.4980 N.3    73  MET73      -0.1230
     65  CA        11.7150   -0.2850   21.4560 C.3    73  MET73       0.1702
     66  C         10.4940    0.4350   21.9540 C.2    73  MET73       0.2592
     67  O          9.7410   -0.0800   22.7610 O.2    73  MET73      -0.2718
     68  CB        11.1270   -1.1460   20.3440 C.3    73  MET73       0.0401
     69  CG        12.0750   -1.6330   19.3270 C.3    73  MET73       0.0596
     70  SD        11.1160   -2.8500   18.3990 S.3    73  MET73      -0.1393
     71  CE        12.5200   -3.8170   17.8950 C.3    73  MET73       0.0692
     72  N         10.2190    1.5620   21.3360 N.am   74  GLU74      -0.1966
     73  CA         8.9860    2.2950   21.6080 C.3    74  GLU74       0.1733
     74  C          7.7560    1.4150   21.5850 C.2    74  GLU74       0.2616
     75  O          7.5640    0.5650   20.7030 O.2    74  GLU74      -0.2715
     76  CB         8.9070    3.4100   20.5650 C.3    74  GLU74       0.0429
     77  CG         7.8410    4.4460   20.7290 C.3    74  GLU74       0.1163
     78  CD         7.8220    5.4400   19.5560 C.2    74  GLU74       0.3649
     79  OE1        6.8760    6.2500   19.5410 O.co2  74  GLU74      -0.2457
     80  OE2        8.7220    5.4370   18.6530 O.co2  74  GLU74      -0.2457
     81  N          6.8690    1.6290   22.5320 N.am   75  LEU75      -0.1963
     82  CA         5.6100    0.9740   22.5530 C.3    75  LEU75       0.1728
     83  C          4.5550    1.8280   21.8370 C.2    75  LEU75       0.2616
     84  O          4.5260    3.0370   21.9590 O.2    75  LEU75      -0.2715
     85  CB         5.1700    0.7510   23.9930 C.3    75  LEU75       0.0311
     86  CG         3.7670    0.2120   24.2020 C.3    75  LEU75       0.0022
     87  CD1        3.6510   -1.2550   23.7580 C.3    75  LEU75       0.0001
     88  CD2        3.4240    0.4080   25.6820 C.3    75  LEU75       0.0001
     89  N          3.6180    1.1700   21.1740 N.am   76  ALA76      -0.1977
     90  CA         2.6010    1.8800   20.3850 C.3    76  ALA76       0.1597
     91  C          1.2950    1.3030   20.8660 C.2    76  ALA76       0.2287
     92  O          0.9310    0.1760   20.5730 O.2    76  ALA76      -0.2864
     93  CB         2.8320    1.6720   18.8890 C.3    76  ALA76       0.0319
     94  N         -2.0740   -0.1590   18.7880 N.3    79  GLY79      -0.1210
     95  CA        -2.1270   -1.3970   18.0140 C.3    79  GLY79       0.1956
     96  C         -1.7090   -1.1150   16.5690 C.2    79  GLY79       0.2612
     97  O         -1.0570   -0.1230   16.3210 O.2    79  GLY79      -0.2717
     98  N         -2.1180   -1.9310   15.6260 N.am   80  SER80      -0.1952
     99  CA        -1.7070   -1.7120   14.2400 C.3    80  SER80       0.1924
    100  C         -2.7740   -1.1130   13.3800 C.2    80  SER80       0.2314
    101  O         -3.9540   -1.2010   13.6500 O.2    80  SER80      -0.2863
    102  CB        -1.1830   -2.9920   13.5730 C.3    80  SER80       0.2116
    103  OG        -2.2350   -3.8830   13.4180 O.3    80  SER80      -0.2180
    104  N          0.3040   -4.6390    9.1700 N.3   123  HIS123     -0.1226
    105  CA         0.9230   -5.1890   10.4000 C.3   123  HIS123      0.1752
    106  C          2.1410   -4.5070   10.9280 C.2   123  HIS123      0.2596
    107  O          2.3610   -4.4950   12.1320 O.2   123  HIS123     -0.2718
    108  CB         1.2660   -6.6780   10.2170 C.3   123  HIS123      0.0759
    109  CG         0.0660   -7.5300   10.2860 C.ar  123  HIS123      0.0818
    110  ND1       -0.3230   -8.3530    9.2490 N.ar  123  HIS123     -0.2268
    111  CD2       -0.8890   -7.6340   11.2490 C.ar  123  HIS123      0.1154
    112  CE1       -1.4440   -8.9720    9.6000 C.ar  123  HIS123      0.1986
    113  NE2       -1.8090   -8.5480   10.8010 N.ar  123  HIS123     -0.2212
    114  N          2.9460   -3.9180   10.0450 N.am  124  ASN124     -0.1974
    115  CA         4.1440   -3.1880   10.4750 C.3   124  ASN124      0.1688
    116  C          3.9270   -1.6960   10.6760 C.2   124  ASN124      0.2292
    117  O          4.8700   -0.9510   10.8990 O.2   124  ASN124     -0.2864
    118  CB         5.2740   -3.4370    9.4520 C.3   124  ASN124      0.1181
    119  CG         5.8190   -4.8420    9.5660 C.2   124  ASN124      0.2629
    120  OD1        5.8220   -5.3920   10.6970 O.2   124  ASN124     -0.2716
    121  ND2        6.2880   -5.4370    8.4430 N.am  124  ASN124     -0.0877
    122  N          2.1760    0.7810   13.0570 N.3   126  LEU126     -0.1245
    123  CA         1.5870    0.7970   14.4270 C.3   126  LEU126      0.1561
    124  C          1.0980    2.2110   14.7500 C.2   126  LEU126      0.2260
    125  O          1.5360    3.1960   14.1330 O.2   126  LEU126     -0.2867
    126  CB         2.6520    0.3400   15.4220 C.3   126  LEU126      0.0270
    127  CG         3.3530   -0.9830   15.0910 C.3   126  LEU126      0.0019
    128  CD1        4.3870   -1.1680   16.2090 C.3   126  LEU126      0.0001
    129  CD2        2.3770   -2.1570   14.9670 C.3   126  LEU126      0.0001
    130  N          7.3970    0.0630   12.0080 N.3   136  ALA136     -0.1231
    131  CA         8.0650   -0.9210   12.8280 C.3   136  ALA136      0.1694
    132  C          8.7010   -2.0100   12.0100 C.2   136  ALA136      0.2592
    133  O          8.2930   -2.2810   10.8690 O.2   136  ALA136     -0.2718
    134  CB         7.0060   -1.5510   13.7280 C.3   136  ALA136      0.0304
    135  N          9.6280   -2.7200   12.6830 N.am  137  ASP137     -0.1960
    136  CA        10.2800   -3.9400   12.1760 C.3   137  ASP137      0.1840
    137  C         11.3430   -3.7350   11.1010 C.2   137  ASP137      0.2622
    138  O         11.0180   -3.5720    9.9350 O.2   137  ASP137     -0.2715
    139  CB         9.2870   -4.9890   11.6900 C.3   137  ASP137      0.1450
    140  CG         9.8860   -6.4110   11.8050 C.2   137  ASP137      0.3671
    141  OD1       11.0990   -6.6010   11.5560 O.co2 137  ASP137     -0.2456
    142  OD2        9.1540   -7.3110   12.1670 O.co2 137  ASP137     -0.2456
    143  N         12.6180   -3.7640   11.5260 N.am  138  TYR138     -0.1974
    144  CA        13.7710   -3.4490   10.7060 C.3   138  TYR138      0.1639
    145  C         14.6080   -4.7170   10.4980 C.2   138  TYR138      0.2290
    146  O         15.7350   -4.6470   10.0410 O.2   138  TYR138     -0.2864
    147  CB        14.5630   -2.2500   11.3020 C.3   138  TYR138      0.0560
    148  CG        13.6880   -1.0280   11.1850 C.ar  138  TYR138     -0.0198
    149  CD1       12.6480   -0.8120   12.0760 C.ar  138  TYR138     -0.0009
    150  CD2       13.7390   -0.2340   10.0390 C.ar  138  TYR138     -0.0009
    151  CE1       11.7520    0.2670   11.9110 C.ar  138  TYR138      0.0417
    152  CE2       12.8640    0.8480    9.8660 C.ar  138  TYR138      0.0417
    153  CZ        11.8630    1.0710   10.7930 C.ar  138  TYR138      0.1957
    154  OH        10.9590    2.0920   10.6710 O.3   138  TYR138     -0.2866
@<TRIPOS>BOND
     1   121   119   am
     2   104   105    1
     3   110   112   ar
     4   110   109   ar
     5   118   119    1
     6   118   115    1
     7   119   120    2
     8   112   113   ar
     9   152   150   ar
    10   152   153   ar
    11   138   137    2
    12   150   148   ar
    13   146   145    2
    14   114   115    1
    15   114   106   am
    16   108   109    1
    17   108   105    1
    18   109   111   ar
    19   105   106    1
    20   115   116    1
    21   145   144    1
    22   154   153    1
    23   116   117    2
    24   144   147    1
    25   144   143    1
    26   153   151   ar
    27   113   111   ar
    28   133   132    2
    29   106   107    2
    30   137   143   am
    31   137   136    1
    32   148   147    1
    33   148   149   ar
    34   141   140   ar
    35   139   140    1
    36   139   136    1
    37   140   142   ar
    38   151   149   ar
    39   130   131    1
    40   132   135   am
    41   132   131    1
    42    47    48    1
    43   136   135    1
    44    48    51    1
    45    48    49    1
    46   131   134    1
    47    51    52    1
    48   122   123    1
    49    52    53    1
    50    24    25    2
    51    24    23    1
    52   100   101    2
    53   100    99    1
    54   103   102    1
    55    50    49    2
    56    54    53   ar
    57   102    99    1
    58    53    55   ar
    59   125   124    2
    60    99    98    1
    61   123   124    1
    62   123   126    1
    63    23    22    1
    64    56    57    1
    65    16    15    2
    66   129   127    1
    67    20    19   ar
    68    46    45    1
    69   127   126    1
    70   127   128    1
    71    15    22   am
    72    15    14    1
    73    98    96   am
    74    59    58    2
    75    57    60    1
    76    57    58    1
    77    19    21   ar
    78    19    18    1
    79    61    60    1
    80    61    63    1
    81    60    62    1
    82    17    14    1
    83    17    18    1
    84    97    96    2
    85    45    44    1
    86    96    95    1
    87    14    13    1
    88    44    43    1
    89    13    11   am
    90    71    70    1
    91    95    94    1
    92    70    69    1
    93    43    42    1
    94    11    10    1
    95    11    12    2
    96    80    78   ar
    97    93    90    1
    98    32    30    1
    99    10     9    1
   100    69    68    1
   101    42    39    1
   102    79    78   ar
   103    78    77    1
   104     4     3    2
   105    30    31    1
   106    30    27    1
   107     9     3   am
   108    68    65    1
   109    90    91    1
   110    90    89    1
   111    26    27    1
   112    76    77    1
   113    76    73    1
   114    92    91    2
   115     3     2    1
   116    75    74    2
   117    39    40    1
   118    39    38    1
   119    27    28    1
   120    89    83   am
   121    72    73    1
   122    72    66   am
   123    65    66    1
   124    65    64    1
   125    40    41    2
   126    74    73    1
   127    74    81   am
   128    83    84    2
   129    83    82    1
   130     5     2    1
   131     5     6    1
   132    66    67    2
   133     2     1    1
   134    29    28    2
   135    37    34    1
   136    81    82    1
   137    82    85    1
   138     7     6    1
   139     6     8    1
   140    36    35    2
   141    87    86    1
   142    35    34    1
   143    34    33    1
   144    85    86    1
   145    86    88    1
