@<TRIPOS>MOLECULE
tmp/5op6A00.pdb
 216 208 0 0 0
SMALL
GASTEIGER

@<TRIPOS>ATOM
      1  N        -21.8320   28.2040    3.1140 N.3    79  TYR79      -0.1241
      2  CA       -20.4500   28.2080    3.5730 C.3    79  TYR79       0.1605
      3  C        -19.9170   29.6330    3.5640 C.2    79  TYR79       0.2264
      4  O        -20.0760   30.3550    2.5730 O.2    79  TYR79      -0.2867
      5  CB       -19.5800   27.3090    2.6900 C.3    79  TYR79       0.0534
      6  CG       -19.9890   25.8510    2.7120 C.ar   79  TYR79      -0.0201
      7  CD1      -21.0430   25.3930    1.9300 C.ar   79  TYR79      -0.0009
      8  CD2      -19.3220   24.9330    3.5120 C.ar   79  TYR79      -0.0009
      9  CE1      -21.4220   24.0620    1.9470 C.ar   79  TYR79       0.0417
     10  CE2      -19.6920   23.6010    3.5350 C.ar   79  TYR79       0.0417
     11  CZ       -20.7420   23.1700    2.7510 C.ar   79  TYR79       0.1957
     12  OH       -21.1150   21.8450    2.7710 O.3    79  TYR79      -0.2866
     13  N        -12.0280   30.0110   -0.7640 N.3    86  PHE86      -0.1227
     14  CA       -12.7970   29.0840    0.0480 C.3    86  PHE86       0.1736
     15  C        -11.9840   27.8180    0.3100 C.2    86  PHE86       0.2595
     16  O        -10.9390   27.5810   -0.3000 O.2    86  PHE86      -0.2718
     17  CB       -14.1120   28.7250   -0.6410 C.3    86  PHE86       0.0547
     18  CG       -15.2090   29.7230   -0.4220 C.ar   86  PHE86      -0.0202
     19  CD1      -15.1700   30.9700   -1.0220 C.ar   86  PHE86      -0.0042
     20  CD2      -16.2910   29.4020    0.3780 C.ar   86  PHE86      -0.0042
     21  CE1      -16.1860   31.8800   -0.8170 C.ar   86  PHE86      -0.0003
     22  CE2      -17.3080   30.3070    0.5850 C.ar   86  PHE86      -0.0003
     23  CZ       -17.2580   31.5470   -0.0130 C.ar   86  PHE86      -0.0000
     24  N        -12.4730   26.9970    1.2350 N.am   87  LEU87      -0.1966
     25  CA       -11.8400   25.7130    1.5000 C.3    87  LEU87       0.1728
     26  C        -12.8100   24.8390    2.2800 C.2    87  LEU87       0.2616
     27  O        -13.5640   25.3270    3.1260 O.2    87  LEU87      -0.2715
     28  CB       -10.5260   25.8710    2.2750 C.3    87  LEU87       0.0311
     29  CG        -9.5430   24.6960    2.1880 C.3    87  LEU87       0.0022
     30  CD1       -9.0030   24.5260    0.7690 C.3    87  LEU87       0.0001
     31  CD2       -8.3930   24.8720    3.1730 C.3    87  LEU87       0.0001
     32  N        -12.7670   23.5420    1.9940 N.am   88  TYR88      -0.1974
     33  CA       -13.6960   22.5750    2.5560 C.3    88  TYR88       0.1639
     34  C        -12.9950   21.6930    3.5810 C.2    88  TYR88       0.2290
     35  O        -11.8230   21.3430    3.4260 O.2    88  TYR88      -0.2864
     36  CB       -14.3030   21.7050    1.4510 C.3    88  TYR88       0.0560
     37  CG       -15.1130   20.5360    1.9640 C.ar   88  TYR88      -0.0198
     38  CD1      -16.3660   20.7290    2.5320 C.ar   88  TYR88      -0.0009
     39  CD2      -14.6280   19.2370    1.8750 C.ar   88  TYR88      -0.0009
     40  CE1      -17.1120   19.6630    3.0020 C.ar   88  TYR88       0.0417
     41  CE2      -15.3670   18.1640    2.3420 C.ar   88  TYR88       0.0417
     42  CZ       -16.6100   18.3830    2.9040 C.ar   88  TYR88       0.1957
     43  OH       -17.3540   17.3220    3.3710 O.3    88  TYR88      -0.2866
     44  N        -17.6080   27.7550    9.7410 N.3   103  ASN103     -0.1240
     45  CA       -17.3690   27.5710    8.3140 C.3   103  ASN103      0.1653
     46  C        -18.6890   27.4300    7.5610 C.2   103  ASN103      0.2266
     47  O        -18.9760   28.1960    6.6410 O.2   103  ASN103     -0.2867
     48  CB       -16.4930   26.3390    8.0720 C.3   103  ASN103      0.1155
     49  CG       -16.0540   26.2100    6.6250 C.2   103  ASN103      0.2627
     50  OD1      -15.9220   27.2060    5.9130 O.2   103  ASN103     -0.2716
     51  ND2      -15.8290   24.9780    6.1820 N.am  103  ASN103     -0.0877
     52  N        -21.3250   31.1450   -0.0630 N.3   129  TYR129     -0.1241
     53  CA       -21.4280   30.1940   -1.1690 C.3   129  TYR129      0.1605
     54  C        -22.4810   29.1530   -0.7850 C.2   129  TYR129      0.2264
     55  O        -22.2130   28.2810    0.0460 O.2   129  TYR129     -0.2867
     56  CB       -20.0780   29.5490   -1.4560 C.3   129  TYR129      0.0534
     57  CG       -19.8850   29.0600   -2.8790 C.ar  129  TYR129     -0.0201
     58  CD1      -20.9700   28.8050   -3.7090 C.ar  129  TYR129     -0.0009
     59  CD2      -18.6090   28.8550   -3.3910 C.ar  129  TYR129     -0.0009
     60  CE1      -20.7890   28.3610   -5.0070 C.ar  129  TYR129      0.0417
     61  CE2      -18.4180   28.4100   -4.6860 C.ar  129  TYR129      0.0417
     62  CZ       -19.5100   28.1640   -5.4900 C.ar  129  TYR129      0.1957
     63  OH       -19.3150   27.7230   -6.7790 O.3   129  TYR129     -0.2866
     64  N        -24.5500   25.8770   -1.3270 N.3   131  GLN131     -0.1245
     65  CA       -24.3970   24.5930   -2.0030 C.3   131  GLN131      0.1566
     66  C        -25.3400   23.6050   -1.3360 C.2   131  GLN131      0.2260
     67  O        -25.1130   23.2040   -0.1910 O.2   131  GLN131     -0.2867
     68  CB       -22.9540   24.0960   -1.9420 C.3   131  GLN131      0.0367
     69  CG       -21.9610   25.0150   -2.6340 C.3   131  GLN131      0.0905
     70  CD       -20.6100   24.3620   -2.8480 C.2   131  GLN131      0.2608
     71  OE1      -20.4300   23.1760   -2.5690 O.2   131  GLN131     -0.2717
     72  NE2      -19.6510   25.1330   -3.3510 N.am  131  GLN131     -0.0878
     73  N        -26.6110   19.1490   -7.5820 N.3   170  LEU170     -0.1245
     74  CA       -26.1280   20.1300   -6.6200 C.3   170  LEU170      0.1561
     75  C        -26.3700   21.5300   -7.1690 C.2   170  LEU170      0.2260
     76  O        -25.9270   21.8510   -8.2770 O.2   170  LEU170     -0.2867
     77  CB       -24.6460   19.9090   -6.3230 C.3   170  LEU170      0.0270
     78  CG       -24.0710   20.7300   -5.1680 C.3   170  LEU170      0.0019
     79  CD1      -24.6560   20.2850   -3.8320 C.3   170  LEU170      0.0001
     80  CD2      -22.5510   20.6330   -5.1490 C.3   170  LEU170      0.0001
     81  N        -25.4330   25.3320   -6.8830 N.3   172  LEU172     -0.1245
     82  CA       -24.3820   26.2140   -6.3950 C.3   172  LEU172      0.1561
     83  C        -24.7280   27.6540   -6.7340 C.2   172  LEU172      0.2260
     84  O        -24.9320   27.9880   -7.9050 O.2   172  LEU172     -0.2867
     85  CB       -23.0210   25.8630   -7.0010 C.3   172  LEU172      0.0270
     86  CG       -22.4600   24.4710   -6.7070 C.3   172  LEU172      0.0019
     87  CD1      -23.0030   23.4480   -7.6890 C.3   172  LEU172      0.0001
     88  CD2      -20.9430   24.4810   -6.7440 C.3   172  LEU172      0.0001
     89  N        -13.2020   28.4430   -5.8150 N.3   180  THR180     -0.1204
     90  CA       -13.1760   27.0640   -5.3580 C.3   180  THR180      0.1979
     91  C        -11.7960   26.5020   -5.6620 C.2   180  THR180      0.2459
     92  O        -11.4580   26.3370   -6.8440 O.2   180  THR180     -0.2732
     93  CB       -14.2580   26.2380   -6.0530 C.3   180  THR180      0.1783
     94  OG1      -15.5420   26.8250   -5.8090 O.3   180  THR180     -0.2211
     95  CG2      -14.2610   24.8130   -5.5330 C.3   180  THR180      0.0376
     96  N        -10.9630   26.2080   -4.6600 N.am  181  PRO181     -0.2728
     97  CA        -9.5730   25.8330   -4.9460 C.3   181  PRO181      0.1401
     98  C         -9.4730   24.5550   -5.7650 C.2   181  PRO181      0.2269
     99  O        -10.4180   23.7700   -5.8750 O.2   181  PRO181     -0.2865
    100  CB        -8.9550   25.6440   -3.5540 C.3   181  PRO181      0.0296
    101  CG        -9.8500   26.3640   -2.6280 C.3   181  PRO181      0.0237
    102  CD       -11.2210   26.2690   -3.2120 C.3   181  PRO181      0.0939
    103  N         -9.0990   21.0160   -6.9110 N.3   183  HIS183     -0.1241
    104  CA        -9.4250   19.7450   -6.2820 C.3   183  HIS183      0.1621
    105  C         -9.9160   18.8090   -7.3740 C.2   183  HIS183      0.2264
    106  O        -10.2630   19.2490   -8.4730 O.2   183  HIS183     -0.2867
    107  CB       -10.4950   19.9150   -5.2010 C.3   183  HIS183      0.0745
    108  CG       -11.8550   20.2170   -5.7520 C.ar  183  HIS183      0.0817
    109  ND1      -12.2630   21.4930   -6.0760 N.ar  183  HIS183     -0.2268
    110  CD2      -12.8930   19.4030   -6.0560 C.ar  183  HIS183      0.1154
    111  CE1      -13.4970   21.4540   -6.5450 C.ar  183  HIS183      0.1986
    112  NE2      -13.9030   20.1980   -6.5440 N.ar  183  HIS183     -0.2212
    113  N        -12.6480   15.3950   -8.0640 N.3   185  ASP185     -0.1239
    114  CA       -13.7650   14.5900   -7.6020 C.3   185  ASP185      0.1674
    115  C        -13.6760   13.2050   -8.2270 C.2   185  ASP185      0.2266
    116  O        -13.0190   13.0030   -9.2520 O.2   185  ASP185     -0.2867
    117  CB       -15.1080   15.2390   -7.9600 C.3   185  ASP185      0.1410
    118  CG       -15.2670   16.6290   -7.3700 C.2   185  ASP185      0.3668
    119  OD1      -14.9770   16.8100   -6.1710 O.co2 185  ASP185     -0.2456
    120  OD2      -15.6860   17.5430   -8.1080 O.co2 185  ASP185     -0.2456
    121  N        -19.0330   14.4420  -13.9380 N.3   189  ASN189     -0.1240
    122  CA       -19.7850   15.6570  -13.6490 C.3   189  ASN189      0.1653
    123  C        -20.0970   16.4110  -14.9300 C.2   189  ASN189      0.2266
    124  O        -19.1950   16.7000  -15.7220 O.2   189  ASN189     -0.2867
    125  CB       -19.0090   16.5750  -12.6980 C.3   189  ASN189      0.1155
    126  CG       -19.7070   17.9040  -12.4740 C.2   189  ASN189      0.2627
    127  OD1      -20.8920   18.0590  -12.7730 O.2   189  ASN189     -0.2716
    128  ND2      -18.9750   18.8710  -11.9400 N.am  189  ASN189     -0.0877
    129  N        -21.3270   20.0370  -15.7320 N.3   191  PHE191     -0.1241
    130  CA       -21.3050   21.3120  -15.0240 C.3   191  PHE191      0.1605
    131  C        -22.1740   22.2850  -15.8160 C.2   191  PHE191      0.2264
    132  O        -21.7330   22.8460  -16.8210 O.2   191  PHE191     -0.2867
    133  CB       -19.8540   21.7720  -14.9090 C.3   191  PHE191      0.0534
    134  CG       -19.6440   23.0110  -14.0890 C.ar  191  PHE191     -0.0203
    135  CD1      -19.8110   24.2660  -14.6460 C.ar  191  PHE191     -0.0042
    136  CD2      -19.2140   22.9170  -12.7790 C.ar  191  PHE191     -0.0042
    137  CE1      -19.5900   25.4060  -13.8960 C.ar  191  PHE191     -0.0003
    138  CE2      -18.9910   24.0490  -12.0260 C.ar  191  PHE191     -0.0003
    139  CZ       -19.1750   25.2970  -12.5850 C.ar  191  PHE191     -0.0000
    140  N        -18.3230   31.7070  -14.8710 N.3   198  LYS198     -0.1245
    141  CA       -17.3330   31.0390  -14.0380 C.3   198  LYS198      0.1561
    142  C        -16.1420   30.6430  -14.8950 C.2   198  LYS198      0.2260
    143  O        -16.3120   30.0540  -15.9680 O.2   198  LYS198     -0.2867
    144  CB       -17.9180   29.7980  -13.3570 C.3   198  LYS198      0.0271
    145  CG       -18.7130   30.0890  -12.0980 C.3   198  LYS198      0.0035
    146  CD       -19.1780   28.8010  -11.4540 C.3   198  LYS198      0.0206
    147  CE       -19.7390   29.0400  -10.0720 C.3   198  LYS198      0.1093
    148  NZ       -20.1700   27.7620   -9.4430 N.3   198  LYS198     -0.1314
    149  N         -8.9290   16.4020    2.1360 N.3   221  ASP221     -0.1225
    150  CA        -8.6850   15.3510    1.1570 C.3   221  ASP221      0.1805
    151  C         -9.2050   15.7640   -0.2140 C.2   221  ASP221      0.2598
    152  O        -10.3020   16.3130   -0.3420 O.2   221  ASP221     -0.2718
    153  CB        -9.3640   14.0550    1.6140 C.3   221  ASP221      0.1424
    154  CG        -9.2250   12.9220    0.6090 C.2   221  ASP221      0.3668
    155  OD1       -8.1990   12.8550   -0.1030 O.co2 221  ASP221     -0.2456
    156  OD2      -10.1510   12.0850    0.5400 O.co2 221  ASP221     -0.2456
    157  N         -8.3950   15.5080   -1.2380 N.am  222  ARG222     -0.1966
    158  CA        -8.6850   15.7220   -2.6490 C.3   222  ARG222      0.1729
    159  C         -8.4300   17.1710   -3.0680 C.2   222  ARG222      0.2616
    160  O         -8.5220   17.4720   -4.2590 O.2   222  ARG222     -0.2715
    161  CB       -10.1260   15.3320   -3.0400 C.3   222  ARG222      0.0348
    162  CG       -10.5960   14.0200   -2.4180 C.3   222  ARG222      0.0492
    163  CD       -11.3470   13.1430   -3.4100 C.3   222  ARG222      0.2205
    164  NE       -12.5170   13.8050   -3.9780 N.pl3 222  ARG222     -0.0865
    165  CZ       -13.7180   13.8400   -3.4050 C.cat 222  ARG222      0.5346
    166  NH1      -13.9220   13.2610   -2.2290 N.pl3 222  ARG222      0.1354
    167  NH2      -14.7190   14.4670   -4.0080 N.pl3 222  ARG222      0.1354
    168  N         -8.1100   18.0730   -2.1450 N.am  223  GLN223     -0.1977
    169  CA        -7.7930   19.4530   -2.4790 C.3   223  GLN223      0.1601
    170  C         -6.2840   19.6470   -2.5560 C.2   223  GLN223      0.2287
    171  O         -5.5150   18.9730   -1.8650 O.2   223  GLN223     -0.2864
    172  CB        -8.3840   20.4100   -1.4450 C.3   223  GLN223      0.0394
    173  CG        -9.8950   20.3920   -1.3950 C.3   223  GLN223      0.0908
    174  CD       -10.4450   21.3210   -0.3340 C.2   223  GLN223      0.2608
    175  OE1      -10.9660   22.3960   -0.6380 O.2   223  GLN223     -0.2717
    176  NE2      -10.3330   20.9120    0.9200 N.am  223  GLN223     -0.0878
    177  N        -10.1230   20.6020  -10.9030 N.3   263  HIS263     -0.1241
    178  CA       -10.7780   21.8070  -11.3930 C.3   263  HIS263      0.1621
    179  C        -10.6410   22.9220  -10.3690 C.2   263  HIS263      0.2264
    180  O        -10.8060   22.7010   -9.1650 O.2   263  HIS263     -0.2867
    181  CB       -12.2600   21.5660  -11.7390 C.3   263  HIS263      0.0745
    182  CG       -12.9970   20.6970  -10.7650 C.ar  263  HIS263      0.0817
    183  ND1      -12.7980   19.3360  -10.6830 N.ar  263  HIS263     -0.2268
    184  CD2      -13.9640   20.9900   -9.8620 C.ar  263  HIS263      0.1154
    185  CE1      -13.5940   18.8310   -9.7570 C.ar  263  HIS263      0.1986
    186  NE2      -14.3130   19.8140   -9.2440 N.ar  263  HIS263     -0.2212
    187  N        -12.3570   26.5280   -9.8650 N.3   265  ILE265     -0.1245
    188  CA       -13.5160   27.2950  -10.3110 C.3   265  ILE265      0.1561
    189  C        -13.5190   28.6340   -9.5900 C.2   265  ILE265      0.2260
    190  O        -13.3450   28.6870   -8.3670 O.2   265  ILE265     -0.2867
    191  CB       -14.8350   26.5490  -10.0450 C.3   265  ILE265      0.0252
    192  CG1      -14.7580   25.0880  -10.5040 C.3   265  ILE265      0.0019
    193  CG2      -15.9780   27.2680  -10.7360 C.3   265  ILE265      0.0019
    194  CD1      -14.5660   24.8960  -11.9900 C.3   265  ILE265      0.0001
    195  N        -24.9390   20.9960  -10.9210 N.3   278  ASN278     -0.1240
    196  CA       -24.0600   19.8910  -11.2710 C.3   278  ASN278      0.1653
    197  C        -24.8570   18.5980  -11.3480 C.2   278  ASN278      0.2266
    198  O        -25.7990   18.3890  -10.5790 O.2   278  ASN278     -0.2867
    199  CB       -22.9330   19.7350  -10.2490 C.3   278  ASN278      0.1155
    200  CG       -21.8080   20.7240  -10.4610 C.2   278  ASN278      0.2627
    201  OD1      -21.4690   21.0670  -11.5950 O.2   278  ASN278     -0.2716
    202  ND2      -21.2160   21.1830   -9.3660 N.am  278  ASN278     -0.0877
    203  N        -24.0580   14.6930  -11.0310 N.3   280  TRP280     -0.1241
    204  CA       -23.0300   13.7610  -10.5860 C.3   280  TRP280      0.1605
    205  C        -23.4110   12.3390  -10.9730 C.2   280  TRP280      0.2264
    206  O        -24.5260   11.8910  -10.6880 O.2   280  TRP280     -0.2867
    207  CB       -22.8330   13.8530   -9.0710 C.3   280  TRP280      0.0550
    208  CG       -22.4200   15.2120   -8.6010 C.ar  280  TRP280      0.0003
    209  CD1      -23.2150   16.1520   -8.0130 C.ar  280  TRP280      0.0946
    210  CD2      -21.1110   15.7870   -8.6830 C.ar  280  TRP280      0.0152
    211  NE1      -22.4820   17.2770   -7.7210 N.ar  280  TRP280     -0.2442
    212  CE2      -21.1880   17.0790   -8.1230 C.ar  280  TRP280      0.0810
    213  CE3      -19.8830   15.3370   -9.1740 C.ar  280  TRP280      0.0012
    214  CZ2      -20.0840   17.9220   -8.0400 C.ar  280  TRP280      0.0191
    215  CZ3      -18.7890   16.1750   -9.0900 C.ar  280  TRP280      0.0001
    216  CH2      -18.8960   17.4530   -8.5280 C.ar  280  TRP280      0.0015
@<TRIPOS>BOND
     1   132   131    2
     2   143   142    2
     3   131   130    1
     4   129   130    1
     5   124   123    2
     6   130   133    1
     7   123   122    1
     8   133   134    1
     9   142   141    1
    10   140   141    1
    11   135   134   ar
    12   135   137   ar
    13   134   136   ar
    14   141   144    1
    15   121   122    1
    16   137   139   ar
    17   122   125    1
    18   144   145    1
    19   136   138   ar
    20   127   126    2
    21   125   126    1
    22   139   138   ar
    23   126   128   am
    24   145   146    1
    25   194   192    1
    26   181   178    1
    27   181   182    1
    28   201   200    2
    29   146   147    1
    30   178   177    1
    31   178   179    1
    32   197   196    1
    33   197   198    2
    34   196   195    1
    35   196   199    1
    36   203   204    1
    37   205   206    2
    38   205   204    1
    39   182   183   ar
    40   182   184   ar
    41   193   191    1
    42   183   185   ar
    43   204   207    1
    44   192   191    1
    45   200   199    1
    46   200   202   am
    47   179   180    2
    48   188   191    1
    49   188   187    1
    50   188   189    1
    51   147   148    1
    52   184   186   ar
    53   185   186   ar
    54   189   190    2
    55   116   115    2
    56   213   215   ar
    57   213   210   ar
    58   215   216   ar
    59   207   208    1
    60   210   208   ar
    61   210   212   ar
    62   208   209   ar
    63   216   214   ar
    64   106   105    2
    65    76    75    2
    66   115   114    1
    67   212   214   ar
    68   212   211   ar
    69   120   118   ar
    70   113   114    1
    71   209   211   ar
    72   117   114    1
    73   117   118    1
    74    84    83    2
    75    87    86    1
    76    73    74    1
    77   105   104    1
    78   118   119   ar
    79    75    74    1
    80    85    86    1
    81    85    82    1
    82   103   104    1
    83    81    82    1
    84    92    91    2
    85    63    62    1
    86    88    86    1
    87    83    82    1
    88    74    77    1
    89   111   112   ar
    90   111   109   ar
    91   112   110   ar
    92    77    78    1
    93   104   107    1
    94   109   108   ar
    95   110   108   ar
    96    93    94    1
    97    93    95    1
    98    93    90    1
    99    99    98    2
   100    89    90    1
   101    98    97    1
   102   108   107    1
   103    91    90    1
   104    91    96   am
   105    62    60   ar
   106    62    61   ar
   107    78    80    1
   108    78    79    1
   109    60    58   ar
   110    97    96    1
   111    97   100    1
   112    61    59   ar
   113    96   102    1
   114   160   159    2
   115   167   165    1
   116   164   163    1
   117   164   165    2
   118    58    57   ar
   119   100   101    1
   120   163   162    1
   121   165   166    1
   122    59    57   ar
   123    72    70   am
   124   102   101    1
   125   159   158    1
   126   159   168   am
   127   161   158    1
   128   161   162    1
   129    57    56    1
   130    70    69    1
   131    70    71    2
   132   158   157    1
   133    69    68    1
   134   170   169    1
   135   170   171    2
   136   169   168    1
   137   169   172    1
   138    65    68    1
   139    65    66    1
   140    65    64    1
   141    56    53    1
   142   172   173    1
   143   173   174    1
   144    66    67    2
   145   157   151   am
   146    53    54    1
   147    53    52    1
   148    19    21   ar
   149    19    18   ar
   150    21    23   ar
   151    54    55    2
   152    13    14    1
   153    17    18    1
   154    17    14    1
   155   175   174    2
   156    18    20   ar
   157   152   151    2
   158   174   176   am
   159    16    15    2
   160   151   150    1
   161   155   154   ar
   162    23    22   ar
   163    14    15    1
   164    15    24   am
   165    20    22   ar
   166   156   154   ar
   167   154   153    1
   168    30    29    1
   169   150   153    1
   170   150   149    1
   171    24    25    1
   172    36    37    1
   173    36    33    1
   174    25    28    1
   175    25    26    1
   176    39    37   ar
   177    39    41   ar
   178     7     9   ar
   179     7     6   ar
   180     9    11   ar
   181    37    38   ar
   182    32    26   am
   183    32    33    1
   184    29    28    1
   185    29    31    1
   186    26    27    2
   187    41    42   ar
   188    38    40   ar
   189    33    34    1
   190     4     3    2
   191     5     6    1
   192     5     2    1
   193     6     8   ar
   194    11    12    1
   195    11    10   ar
   196    42    40   ar
   197    42    43    1
   198     1     2    1
   199    35    34    2
   200     8    10   ar
   201     3     2    1
   202    50    49    2
   203    51    49   am
   204    49    48    1
   205    47    46    2
   206    46    45    1
   207    48    45    1
   208    45    44    1
