@<TRIPOS>MOLECULE
tmp/5op7A00.pdb
 154 144 0 0 0
SMALL
GASTEIGER

@<TRIPOS>ATOM
      1  N          2.6450   -9.1520   28.8050 N.3    10  GLN10      -0.1231
      2  CA         1.6060   -9.4260   27.8050 C.3    10  GLN10       0.1698
      3  C          2.2230   -9.5620   26.4410 C.2    10  GLN10       0.2593
      4  O          3.1350   -8.7940   26.0680 O.2    10  GLN10      -0.2718
      5  CB         0.5980   -8.2730   27.7250 C.3    10  GLN10       0.0381
      6  CG        -0.5050   -8.4530   26.6870 C.3    10  GLN10       0.0905
      7  CD        -1.4110   -7.2480   26.6290 C.2    10  GLN10       0.2608
      8  OE1       -0.9500   -6.1180   26.7280 O.2    10  GLN10      -0.2717
      9  NE2       -2.7060   -7.4790   26.4730 N.am   10  GLN10      -0.0878
     10  N          1.7240  -10.5310   25.6950 N.am   11  THR11      -0.1939
     11  CA         2.2650  -10.8010   24.3900 C.3    11  THR11       0.2028
     12  C          1.5660   -9.8810   23.4150 C.2    11  THR11       0.2642
     13  O          0.3680   -9.9280   23.2560 O.2    11  THR11      -0.2714
     14  CB         2.0760  -12.2610   23.9850 C.3    11  THR11       0.1808
     15  OG1        2.6880  -13.0930   24.9710 O.3    11  THR11      -0.2208
     16  CG2        2.7350  -12.5180   22.6300 C.3    11  THR11       0.0379
     17  N          2.3290   -9.0130   22.7880 N.am   12  LEU12      -0.1963
     18  CA         1.7660   -8.0530   21.8660 C.3    12  LEU12       0.1728
     19  C          1.7060   -8.6210   20.4760 C.2    12  LEU12       0.2616
     20  O          0.7820   -8.2770   19.7380 O.2    12  LEU12      -0.2715
     21  CB         2.5880   -6.7690   21.8520 C.3    12  LEU12       0.0311
     22  CG         2.5560   -6.0910   23.2120 C.3    12  LEU12       0.0022
     23  CD1        3.5390   -4.9530   23.2280 C.3    12  LEU12       0.0001
     24  CD2        1.1500   -5.6360   23.5870 C.3    12  LEU12       0.0001
     25  N          2.6840   -9.4480   20.1120 N.am   13  GLY13      -0.1955
     26  CA         2.6820  -10.0900   18.8020 C.3    13  GLY13       0.1869
     27  C          3.6790  -11.2290   18.7510 C.2    13  GLY13       0.2309
     28  O          4.6410  -11.2550   19.5210 O.2    13  GLY13      -0.2863
     29  N          6.9800  -10.2070   20.6070 N.3    20  VAL20      -0.1245
     30  CA         7.1010   -8.8540   21.1010 C.3    20  VAL20       0.1561
     31  C          6.2850   -8.8610   22.3760 C.2    20  VAL20       0.2260
     32  O          5.1320   -9.2980   22.3630 O.2    20  VAL20      -0.2867
     33  CB         6.5690   -7.8300   20.0680 C.3    20  VAL20       0.0252
     34  CG1        6.4760   -6.4510   20.6780 C.3    20  VAL20       0.0019
     35  CG2        7.4910   -7.8120   18.8480 C.3    20  VAL20       0.0019
     36  N          4.9430   -6.6020   25.9510 N.3    22  LEU22      -0.1245
     37  CA         4.7360   -5.3790   26.7100 C.3    22  LEU22       0.1561
     38  C          5.6350   -5.5040   27.9620 C.2    22  LEU22       0.2260
     39  O          5.4420   -6.4160   28.7580 O.2    22  LEU22      -0.2867
     40  CB         3.2700   -5.2430   27.1530 C.3    22  LEU22       0.0270
     41  CG         2.7090   -3.8200   27.4060 C.3    22  LEU22       0.0019
     42  CD1        1.6820   -3.8390   28.5280 C.3    22  LEU22       0.0001
     43  CD2        3.7370   -2.7290   27.6470 C.3    22  LEU22       0.0001
     44  N          7.9990   -1.5980   24.4910 N.3    33  ALA33      -0.1245
     45  CA         7.9060   -2.8800   23.7920 C.3    33  ALA33       0.1562
     46  C          9.2490   -3.5410   23.7570 C.2    33  ALA33       0.2260
     47  O         10.3010   -2.8660   23.5950 O.2    33  ALA33      -0.2867
     48  CB         7.3770   -2.6810   22.3470 C.3    33  ALA33       0.0290
     49  N         11.2580   -6.8010   21.9010 N.3    35  LYS35      -0.1245
     50  CA        11.2520   -7.8870   20.9420 C.3    35  LYS35       0.1561
     51  C         12.2670   -8.8800   21.4810 C.2    35  LYS35       0.2260
     52  O         13.3940   -8.5000   21.7770 O.2    35  LYS35      -0.2867
     53  CB        11.7170   -7.4310   19.5590 C.3    35  LYS35       0.0271
     54  CG        11.7600   -8.5610   18.5380 C.3    35  LYS35       0.0035
     55  CD        12.5740   -8.1470   17.3120 C.3    35  LYS35       0.0206
     56  CE        12.2040   -8.9750   16.0880 C.3    35  LYS35       0.1093
     57  NZ        12.6330   -8.2800   14.8380 N.3    35  LYS35      -0.1314
     58  N          9.4800    3.8620   14.6920 N.3    59  ILE59      -0.1245
     59  CA         9.6290    3.3020   16.0340 C.3    59  ILE59       0.1561
     60  C         11.0330    3.5800   16.5730 C.2    59  ILE59       0.2260
     61  O         11.9950    3.2100   15.9240 O.2    59  ILE59      -0.2867
     62  CB         9.3520    1.8050   16.1030 C.3    59  ILE59       0.0252
     63  CG1        7.8650    1.5160   16.0540 C.3    59  ILE59       0.0019
     64  CG2        9.8400    1.1750   17.4300 C.3    59  ILE59       0.0019
     65  CD1        7.0350    2.0280   17.2460 C.3    59  ILE59       0.0001
     66  N         12.1250   -0.9850   22.5790 N.3    75  MET75      -0.1230
     67  CA        11.6170   -0.0030   21.6160 C.3    75  MET75       0.1702
     68  C         10.3900    0.7350   22.1260 C.2    75  MET75       0.2592
     69  O          9.6400    0.2580   22.9360 O.2    75  MET75      -0.2718
     70  CB        11.1360   -0.7430   20.3680 C.3    75  MET75       0.0401
     71  CG        12.1880   -1.4860   19.5970 C.3    75  MET75       0.0596
     72  SD        11.2300   -2.6080   18.5270 S.3    75  MET75      -0.1393
     73  CE        12.5770   -3.3800   17.6450 C.3    75  MET75       0.0692
     74  N         10.1530    1.8910   21.5540 N.am   76  GLU76      -0.1966
     75  CA         8.9480    2.6470   21.8170 C.3    76  GLU76       0.1733
     76  C          7.7160    1.7920   21.6710 C.2    76  GLU76       0.2616
     77  O          7.5530    1.0470   20.6870 O.2    76  GLU76      -0.2715
     78  CB         8.9320    3.7860   20.7800 C.3    76  GLU76       0.0429
     79  CG         7.7870    4.7310   20.7980 C.3    76  GLU76       0.1163
     80  CD         7.8440    5.7110   19.6290 C.2    76  GLU76       0.3649
     81  OE1        6.9530    6.5650   19.5760 O.co2  76  GLU76      -0.2457
     82  OE2        8.7300    5.6400   18.7490 O.co2  76  GLU76      -0.2457
     83  N          6.8180    1.8820   22.6270 N.am   77  LEU77      -0.1963
     84  CA         5.5700    1.1810   22.5650 C.3    77  LEU77       0.1728
     85  C          4.5570    1.9680   21.6990 C.2    77  LEU77       0.2616
     86  O          4.5150    3.1830   21.7530 O.2    77  LEU77      -0.2715
     87  CB         5.0220    0.9840   23.9710 C.3    77  LEU77       0.0311
     88  CG         3.6480    0.3530   24.1210 C.3    77  LEU77       0.0022
     89  CD1        3.6540   -1.1270   23.7440 C.3    77  LEU77       0.0001
     90  CD2        3.1830    0.5470   25.5620 C.3    77  LEU77       0.0001
     91  N          3.7300    1.2460   20.9630 N.am   78  ALA78      -0.1963
     92  CA         2.7040    1.8470   20.0770 C.3    78  ALA78       0.1728
     93  C          1.4300    1.2740   20.6220 C.2    78  ALA78       0.2617
     94  O          0.9890    0.1570   20.2920 O.2    78  ALA78      -0.2715
     95  CB         2.9450    1.4480   18.6070 C.3    78  ALA78       0.0334
     96  N          0.8430    2.0170   21.5580 N.am   79  SER79      -0.1936
     97  CA        -0.2330    1.4380   22.3980 C.3    79  SER79       0.2055
     98  C         -1.5740    1.4100   21.6470 C.2    79  SER79       0.2644
     99  O         -2.5130    0.7090   22.0290 O.2    79  SER79      -0.2714
    100  CB        -0.3080    2.1960   23.7560 C.3    79  SER79       0.2130
    101  OG        -0.5790    3.5670   23.5300 O.3    79  SER79      -0.2179
    102  N         -1.6290    2.1140   20.5130 N.am   80  GLY80      -0.1939
    103  CA        -2.7670    1.9920   19.5810 C.3    80  GLY80       0.2014
    104  C         -2.8460    0.7080   18.7490 C.2    80  GLY80       0.2639
    105  O         -3.8510    0.4630   18.0610 O.2    80  GLY80      -0.2714
    106  N         -1.7990   -0.1020   18.7470 N.am   81  GLY81      -0.1939
    107  CA        -1.8450   -1.3470   17.9950 C.3    81  GLY81       0.2014
    108  C         -1.5180   -1.0370   16.5140 C.2    81  GLY81       0.2639
    109  O         -0.8800   -0.0450   16.2390 O.2    81  GLY81      -0.2714
    110  N         -1.9380   -1.9090   15.6460 N.am   82  SER82      -0.1949
    111  CA        -1.5680   -1.8150   14.2060 C.3    82  SER82       0.1924
    112  C         -2.6120   -1.1540   13.3590 C.2    82  SER82       0.2314
    113  O         -3.7840   -1.2070   13.6370 O.2    82  SER82      -0.2863
    114  CB        -1.2260   -3.1840   13.5980 C.3    82  SER82       0.2116
    115  OG        -2.3810   -3.9780   13.5240 O.3    82  SER82      -0.2180
    116  N         -5.5610   -3.5030   12.1920 N.3    85  ASP85      -0.1239
    117  CA        -6.7750   -3.5860   12.9830 C.3    85  ASP85       0.1674
    118  C         -7.7140   -2.4090   12.8770 C.2    85  ASP85       0.2266
    119  O         -8.8530   -2.5310   13.3010 O.2    85  ASP85      -0.2867
    120  CB        -6.4300   -3.8950   14.4780 C.3    85  ASP85       0.1410
    121  CG        -5.7930   -5.2790   14.6510 C.2    85  ASP85       0.3668
    122  OD1       -6.1070   -6.2100   13.8990 O.co2  85  ASP85      -0.2456
    123  OD2       -4.9370   -5.4330   15.4990 O.co2  85  ASP85      -0.2456
    124  N          0.3520   -4.6110    8.9870 N.3   125  HIS125     -0.1241
    125  CA         0.9130   -5.1770   10.2320 C.3   125  HIS125      0.1621
    126  C          2.1350   -4.5470   10.8130 C.2   125  HIS125      0.2264
    127  O          2.3660   -4.6300   12.0430 O.2   125  HIS125     -0.2867
    128  CB         1.2520   -6.7040   10.1350 C.3   125  HIS125      0.0745
    129  CG         0.0730   -7.5810   10.1800 C.ar  125  HIS125      0.0817
    130  ND1       -0.3000   -8.3530    9.1060 N.ar  125  HIS125     -0.2268
    131  CD2       -0.8250   -7.8210   11.1600 C.ar  125  HIS125      0.1154
    132  CE1       -1.3980   -9.0320    9.4170 C.ar  125  HIS125      0.1986
    133  NE2       -1.7300   -8.7410   10.6650 N.ar  125  HIS125     -0.2212
    134  N          2.3480    0.7510   12.9910 N.3   128  LEU128     -0.1245
    135  CA         1.7290    0.8310   14.3410 C.3   128  LEU128      0.1561
    136  C          1.2790    2.2590   14.6870 C.2   128  LEU128      0.2260
    137  O          1.6260    3.2240   14.0360 O.2   128  LEU128     -0.2867
    138  CB         2.7350    0.2880   15.3550 C.3   128  LEU128      0.0270
    139  CG         3.2920   -1.0850   14.9670 C.3   128  LEU128      0.0019
    140  CD1        4.2680   -1.5630   16.0690 C.3   128  LEU128      0.0001
    141  CD2        2.2360   -2.1450   14.7810 C.3   128  LEU128      0.0001
    142  N          7.3830    0.2110   11.8550 N.3   138  ALA138     -0.1231
    143  CA         8.0190   -0.7270   12.7610 C.3   138  ALA138      0.1694
    144  C          8.6340   -1.9140   12.0090 C.2   138  ALA138      0.2592
    145  O          8.2890   -2.2230   10.8720 O.2   138  ALA138     -0.2718
    146  CB         6.9500   -1.2280   13.7410 C.3   138  ALA138      0.0304
    147  N          9.4880   -2.6290   12.7130 N.am  139  ASP139     -0.1974
    148  CA        10.0820   -3.9110   12.2860 C.3   139  ASP139      0.1709
    149  C         11.1530   -3.7470   11.2160 C.2   139  ASP139      0.2293
    150  O         10.8480   -3.6990    9.9910 O.2   139  ASP139     -0.2864
    151  CB         9.0850   -4.9360   11.7690 C.3   139  ASP139      0.1436
    152  CG         9.7300   -6.3790   11.6930 C.2   139  ASP139      0.3671
    153  OD1       10.9640   -6.5070   11.4280 O.co2 139  ASP139     -0.2456
    154  OD2        9.0030   -7.3680   11.8890 O.co2 139  ASP139     -0.2456
@<TRIPOS>BOND
     1   124   125    1
     2   130   132   ar
     3   130   129   ar
     4   132   133   ar
     5   150   149    2
     6   128   129    1
     7   128   125    1
     8   129   131   ar
     9   125   126    1
    10   133   131   ar
    11   126   127    2
    12   145   144    2
    13   149   148    1
    14   153   152   ar
    15   152   151    1
    16   152   154   ar
    17   151   148    1
    18   142   143    1
    19   144   147   am
    20   144   143    1
    21   116   117    1
    22   148   147    1
    23   143   146    1
    24   118   117    1
    25   118   119    2
    26   117   120    1
    27   134   135    1
    28   112   113    2
    29   112   111    1
    30   115   114    1
    31   114   111    1
    32   122   121   ar
    33   137   136    2
    34   111   110    1
    35   135   136    1
    36   135   138    1
    37   120   121    1
    38   121   123   ar
    39    58    59    1
    40   141   139    1
    41    57    56    1
    42   139   138    1
    43   139   140    1
    44   110   108   am
    45    61    60    2
    46    59    62    1
    47    59    60    1
    48    63    62    1
    49    63    65    1
    50    56    55    1
    51    62    64    1
    52   109   108    2
    53   108   107    1
    54    55    54    1
    55    73    72    1
    56   107   106    1
    57   105   104    2
    58    72    71    1
    59    54    53    1
    60    95    92    1
    61   106   104   am
    62   104   103    1
    63    82    80   ar
    64    27    26    1
    65    27    28    2
    66    26    25    1
    67    35    33    1
    68    53    50    1
    69    81    80   ar
    70   103   102    1
    71    71    70    1
    72    80    79    1
    73    20    19    2
    74    33    34    1
    75    33    30    1
    76    92    93    1
    77    92    91    1
    78    25    19   am
    79    94    93    2
    80    70    67    1
    81    19    18    1
    82   102    98   am
    83    29    30    1
    84    93    96   am
    85    77    76    2
    86    78    79    1
    87    78    75    1
    88    50    51    1
    89    50    49    1
    90    91    85   am
    91    30    31    1
    92    51    52    2
    93    74    75    1
    94    74    68   am
    95    96    97    1
    96    67    68    1
    97    67    66    1
    98    98    99    2
    99    98    97    1
   100    76    75    1
   101    76    83   am
   102    85    86    2
   103    85    84    1
   104    21    18    1
   105    21    22    1
   106    18    17    1
   107    68    69    2
   108    48    45    1
   109    32    31    2
   110    97   100    1
   111    84    83    1
   112    84    87    1
   113    16    14    1
   114    17    12   am
   115    22    23    1
   116    22    24    1
   117    13    12    2
   118    12    11    1
   119   101   100    1
   120    47    46    2
   121    89    88    1
   122    46    45    1
   123    45    44    1
   124    87    88    1
   125    14    11    1
   126    14    15    1
   127    88    90    1
   128    11    10    1
   129    10     3   am
   130    36    37    1
   131     4     3    2
   132     3     2    1
   133     9     7   am
   134     7     6    1
   135     7     8    2
   136     6     5    1
   137    37    40    1
   138    37    38    1
   139    40    41    1
   140    41    43    1
   141    41    42    1
   142     5     2    1
   143     2     1    1
   144    38    39    2
