@<TRIPOS>MOLECULE
tmp/5op8A00.pdb
 180 169 0 0 0
SMALL
GASTEIGER

@<TRIPOS>ATOM
      1  N        -22.6670   28.4110    2.5300 N.3    79  TYR79      -0.1241
      2  CA       -21.2770   28.3970    2.9630 C.3    79  TYR79       0.1605
      3  C        -20.7200   29.8130    2.9580 C.2    79  TYR79       0.2264
      4  O        -21.0510   30.6210    2.0850 O.2    79  TYR79      -0.2867
      5  CB       -20.4430   27.4980    2.0510 C.3    79  TYR79       0.0534
      6  CG       -20.7360   26.0240    2.2150 C.ar   79  TYR79      -0.0201
      7  CD1      -21.8490   25.4470    1.6200 C.ar   79  TYR79      -0.0009
      8  CD2      -19.8980   25.2090    2.9640 C.ar   79  TYR79      -0.0009
      9  CE1      -22.1210   24.1010    1.7670 C.ar   79  TYR79       0.0417
     10  CE2      -20.1620   23.8610    3.1160 C.ar   79  TYR79       0.0417
     11  CZ       -21.2730   23.3120    2.5130 C.ar   79  TYR79       0.1957
     12  OH       -21.5400   21.9720    2.6660 O.3    79  TYR79      -0.2866
     13  N        -13.5040   24.1840    1.3220 N.3    88  TYR88      -0.1241
     14  CA       -14.4070   23.0780    1.6050 C.3    88  TYR88       0.1605
     15  C        -13.6700   21.9960    2.3810 C.2    88  TYR88       0.2264
     16  O        -12.4950   21.7200    2.1240 O.2    88  TYR88      -0.2867
     17  CB       -14.9730   22.5040    0.3080 C.3    88  TYR88       0.0534
     18  CG       -15.9560   21.3800    0.4960 C.ar   88  TYR88      -0.0201
     19  CD1      -17.1460   21.5720    1.1550 C.ar   88  TYR88      -0.0009
     20  CD2      -15.6940   20.1300    0.0350 C.ar   88  TYR88      -0.0009
     21  CE1      -18.0650   20.5520    1.3510 C.ar   88  TYR88       0.0417
     22  CE2      -16.6000   19.0870    0.2340 C.ar   88  TYR88       0.0417
     23  CZ       -17.7780   19.3160    0.8350 C.ar   88  TYR88       0.1957
     24  OH       -18.6590   18.2510    1.0220 O.3    88  TYR88      -0.2866
     25  N        -21.8660   31.3840   -0.6720 N.3   131  TYR131     -0.1241
     26  CA       -22.1130   30.3710   -1.6920 C.3   131  TYR131      0.1605
     27  C        -23.2800   29.5060   -1.2430 C.2   131  TYR131      0.2264
     28  O        -23.1890   28.8360   -0.2110 O.2   131  TYR131     -0.2867
     29  CB       -20.8660   29.5090   -1.9160 C.3   131  TYR131      0.0534
     30  CG       -20.5010   29.2850   -3.3680 C.ar  131  TYR131     -0.0201
     31  CD1      -21.4810   29.0920   -4.3340 C.ar  131  TYR131     -0.0009
     32  CD2      -19.1730   29.2670   -3.7710 C.ar  131  TYR131     -0.0009
     33  CE1      -21.1470   28.8890   -5.6600 C.ar  131  TYR131      0.0417
     34  CE2      -18.8290   29.0650   -5.0940 C.ar  131  TYR131      0.0417
     35  CZ       -19.8190   28.8760   -6.0340 C.ar  131  TYR131      0.1957
     36  OH       -19.4820   28.6740   -7.3530 O.3   131  TYR131     -0.2866
     37  N        -25.2980   26.2070   -1.8570 N.3   133  GLN133     -0.1245
     38  CA       -24.9750   24.9050   -2.4540 C.3   133  GLN133      0.1566
     39  C        -25.9680   23.8770   -1.9150 C.2   133  GLN133      0.2260
     40  O        -25.7000   23.2230   -0.9050 O.2   133  GLN133     -0.2867
     41  CB       -23.5400   24.4970   -2.1320 C.3   133  GLN133      0.0367
     42  CG       -22.4790   25.5550   -2.4070 C.3   133  GLN133      0.0905
     43  CD       -21.0900   24.9520   -2.5390 C.2   133  GLN133      0.2608
     44  OE1      -20.9430   23.7700   -2.8480 O.2   133  GLN133     -0.2717
     45  NE2      -20.0650   25.7600   -2.2960 N.am  133  GLN133     -0.0878
     46  N        -27.0150   19.4440   -8.0300 N.3   172  LEU172     -0.1245
     47  CA       -26.6230   20.4780   -7.0880 C.3   172  LEU172      0.1561
     48  C        -26.8350   21.8520   -7.7000 C.2   172  LEU172      0.2260
     49  O        -26.3450   22.1350   -8.7960 O.2   172  LEU172     -0.2867
     50  CB       -25.1710   20.2850   -6.6540 C.3   172  LEU172      0.0270
     51  CG       -24.8080   21.1400   -5.4490 C.3   172  LEU172      0.0019
     52  CD1      -23.7620   20.4740   -4.5850 C.3   172  LEU172      0.0001
     53  CD2      -24.2920   22.4300   -5.9320 C.3   172  LEU172      0.0001
     54  N        -25.9180   25.6990   -7.4010 N.3   174  LEU174     -0.1245
     55  CA       -24.9260   26.6160   -6.8540 C.3   174  LEU174      0.1561
     56  C        -25.3160   28.0420   -7.2100 C.2   174  LEU174      0.2260
     57  O        -25.5270   28.3570   -8.3870 O.2   174  LEU174     -0.2867
     58  CB       -23.5130   26.3380   -7.3880 C.3   174  LEU174      0.0270
     59  CG       -22.8820   24.9830   -7.0950 C.3   174  LEU174      0.0019
     60  CD1      -21.6760   24.7370   -7.9640 C.3   174  LEU174      0.0001
     61  CD2      -22.4860   24.8760   -5.6210 C.3   174  LEU174      0.0001
     62  N        -13.6210   28.4490   -6.0780 N.3   182  THR182     -0.1218
     63  CA       -13.5510   27.1000   -5.5360 C.3   182  THR182      0.1862
     64  C        -12.1920   26.5260   -5.9090 C.2   182  THR182      0.2287
     65  O        -11.9620   26.2330   -7.0930 O.2   182  THR182     -0.2866
     66  CB       -14.6770   26.2260   -6.0860 C.3   182  THR182      0.1770
     67  OG1      -15.9370   26.8350   -5.7790 O.3   182  THR182     -0.2211
     68  CG2      -14.6280   24.8370   -5.4620 C.3   182  THR182      0.0375
     69  N         -9.4250   20.9930   -7.0370 N.3   185  HIS185     -0.1241
     70  CA        -9.6680   19.6960   -6.4250 C.3   185  HIS185      0.1621
     71  C        -10.1020   18.7640   -7.5420 C.2   185  HIS185      0.2264
     72  O        -10.3960   19.2030   -8.6560 O.2   185  HIS185     -0.2867
     73  CB       -10.7430   19.7720   -5.3400 C.3   185  HIS185      0.0745
     74  CG       -12.1080   20.0950   -5.8700 C.ar  185  HIS185      0.0817
     75  ND1      -12.4430   21.3430   -6.3490 N.ar  185  HIS185     -0.2268
     76  CD2      -13.2180   19.3310   -6.0020 C.ar  185  HIS185      0.1154
     77  CE1      -13.7010   21.3340   -6.7480 C.ar  185  HIS185      0.1986
     78  NE2      -14.1940   20.1260   -6.5500 N.ar  185  HIS185     -0.2212
     79  N        -12.7290   15.2280   -8.3080 N.3   187  ASP187     -0.1239
     80  CA       -13.8630   14.4510   -7.8350 C.3   187  ASP187      0.1674
     81  C        -13.7720   13.0510   -8.4240 C.2   187  ASP187      0.2266
     82  O        -13.1600   12.8430   -9.4780 O.2   187  ASP187     -0.2867
     83  CB       -15.1970   15.1020   -8.2310 C.3   187  ASP187      0.1410
     84  CG       -15.3270   16.5350   -7.7270 C.2   187  ASP187      0.3668
     85  OD1      -14.9370   16.7980   -6.5680 O.co2 187  ASP187     -0.2456
     86  OD2      -15.8170   17.3930   -8.4960 O.co2 187  ASP187     -0.2456
     87  N        -19.0800   14.5450  -14.1680 N.3   191  ASN191     -0.1240
     88  CA       -19.8180   15.7800  -13.9140 C.3   191  ASN191      0.1653
     89  C        -20.1440   16.4890  -15.2170 C.2   191  ASN191      0.2266
     90  O        -19.2390   16.8510  -15.9760 O.2   191  ASN191     -0.2867
     91  CB       -19.0240   16.7210  -13.0030 C.3   191  ASN191      0.1155
     92  CG       -19.8080   17.9690  -12.6330 C.2   191  ASN191      0.2627
     93  OD1      -21.0140   18.0520  -12.8710 O.2   191  ASN191     -0.2716
     94  ND2      -19.1290   18.9500  -12.0510 N.am  191  ASN191     -0.0877
     95  N        -21.5730   20.0260  -16.0660 N.3   193  PHE193     -0.1241
     96  CA       -21.5780   21.2980  -15.3580 C.3   193  PHE193      0.1605
     97  C        -22.4110   22.2820  -16.1810 C.2   193  PHE193      0.2264
     98  O        -21.9410   22.8110  -17.1900 O.2   193  PHE193     -0.2867
     99  CB       -20.1190   21.7200  -15.1890 C.3   193  PHE193      0.0534
    100  CG       -19.9190   23.0800  -14.6240 C.ar  193  PHE193     -0.0203
    101  CD1      -19.8240   23.2570  -13.2730 C.ar  193  PHE193     -0.0042
    102  CD2      -19.7610   24.1770  -15.4450 C.ar  193  PHE193     -0.0042
    103  CE1      -19.6140   24.4790  -12.7550 C.ar  193  PHE193     -0.0003
    104  CE2      -19.5500   25.4200  -14.8990 C.ar  193  PHE193     -0.0003
    105  CZ       -19.4810   25.5550  -13.5500 C.ar  193  PHE193     -0.0000
    106  N        -18.4560   31.6410  -15.3340 N.3   200  LYS200     -0.1245
    107  CA       -17.4750   30.9660  -14.4990 C.3   200  LYS200      0.1561
    108  C        -16.2920   30.5470  -15.3520 C.2   200  LYS200      0.2260
    109  O        -16.4610   29.8810  -16.3780 O.2   200  LYS200     -0.2867
    110  CB       -18.0800   29.7460  -13.8140 C.3   200  LYS200      0.0271
    111  CG       -18.7890   30.0900  -12.5340 C.3   200  LYS200      0.0035
    112  CD       -19.3670   28.8630  -11.8760 C.3   200  LYS200      0.0206
    113  CE       -19.8090   29.1790  -10.4630 C.3   200  LYS200      0.1093
    114  NZ       -20.8770   28.2610  -10.0070 N.3   200  LYS200     -0.1314
    115  N         -8.4860   15.3880   -1.6030 N.3   224  ARG224     -0.1245
    116  CA        -8.7530   15.6330   -3.0170 C.3   224  ARG224      0.1563
    117  C         -8.5210   17.0900   -3.3960 C.2   224  ARG224      0.2260
    118  O         -8.5930   17.4210   -4.5820 O.2   224  ARG224     -0.2867
    119  CB       -10.1750   15.2280   -3.4520 C.3   224  ARG224      0.0307
    120  CG       -10.4400   13.7500   -3.2720 C.3   224  ARG224      0.0489
    121  CD       -11.8090   13.3270   -3.7620 C.3   224  ARG224      0.2205
    122  NE       -12.8370   13.5860   -2.7560 N.pl3 224  ARG224     -0.0865
    123  CZ       -13.7290   14.5720   -2.8020 C.cat 224  ARG224      0.5346
    124  NH1      -13.7560   15.4230   -3.8200 N.pl3 224  ARG224      0.1354
    125  NH2      -14.6110   14.7020   -1.8200 N.pl3 224  ARG224      0.1354
    126  N        -16.7090   17.7920  -16.9850 N.3   259  ILE259     -0.1245
    127  CA       -15.5180   17.6110  -16.1620 C.3   259  ILE259      0.1561
    128  C        -15.3480   16.1110  -15.9420 C.2   259  ILE259      0.2260
    129  O        -16.1050   15.5250  -15.1490 O.2   259  ILE259     -0.2867
    130  CB       -15.6240   18.3520  -14.8250 C.3   259  ILE259      0.0252
    131  CG1      -15.9390   19.8320  -15.0620 C.3   259  ILE259      0.0019
    132  CG2      -14.3140   18.1970  -14.0500 C.3   259  ILE259      0.0019
    133  CD1      -16.1640   20.6270  -13.7940 C.3   259  ILE259      0.0001
    134  N        -10.1750   20.5240  -11.1300 N.3   265  HIS265     -0.1241
    135  CA       -10.8460   21.7170  -11.6250 C.3   265  HIS265      0.1621
    136  C        -10.7660   22.8450  -10.6110 C.2   265  HIS265      0.2264
    137  O        -10.9530   22.6460   -9.4070 O.2   265  HIS265     -0.2867
    138  CB       -12.3200   21.4650  -11.9940 C.3   265  HIS265      0.0745
    139  CG       -13.0710   20.6150  -11.0180 C.ar  265  HIS265      0.0817
    140  ND1      -12.8850   19.2530  -10.9210 N.ar  265  HIS265     -0.2268
    141  CD2      -14.0440   20.9260  -10.1260 C.ar  265  HIS265      0.1154
    142  CE1      -13.6910   18.7650   -9.9950 C.ar  265  HIS265      0.1986
    143  NE2      -14.4060   19.7580   -9.4960 N.ar  265  HIS265     -0.2212
    144  N        -12.3890   26.6980  -10.2470 N.3   267  ILE267     -0.1245
    145  CA       -13.5710   27.3770  -10.7640 C.3   267  ILE267      0.1561
    146  C        -13.7180   28.7080  -10.0480 C.2   267  ILE267      0.2260
    147  O        -13.7450   28.7520   -8.8130 O.2   267  ILE267     -0.2867
    148  CB       -14.8370   26.5180  -10.5830 C.3   267  ILE267      0.0252
    149  CG1      -14.7150   25.2260  -11.4000 C.3   267  ILE267      0.0019
    150  CG2      -16.0790   27.3040  -10.9910 C.3   267  ILE267      0.0019
    151  CD1      -15.8060   24.2250  -11.1270 C.3   267  ILE267      0.0001
    152  N        -25.5000   27.8460  -11.1660 N.3   278  THR278     -0.1218
    153  CA       -25.0250   26.6540  -11.8430 C.3   278  THR278      0.1862
    154  C        -25.7630   25.4450  -11.2950 C.2   278  THR278      0.2287
    155  O        -26.1560   25.4160  -10.1250 O.2   278  THR278     -0.2866
    156  CB       -23.5130   26.4720  -11.6520 C.3   278  THR278      0.1770
    157  OG1      -22.8280   27.6810  -12.0040 O.3   278  THR278     -0.2211
    158  CG2      -22.9970   25.3380  -12.5110 C.3   278  THR278      0.0375
    159  N        -24.9900   21.2710  -11.2740 N.3   280  ASN280     -0.1240
    160  CA       -24.1250   20.1470  -11.5890 C.3   280  ASN280      0.1653
    161  C        -24.9310   18.8540  -11.6070 C.2   280  ASN280      0.2266
    162  O        -25.8520   18.6700  -10.8050 O.2   280  ASN280     -0.2867
    163  CB       -22.9840   20.0390  -10.5750 C.3   280  ASN280      0.1155
    164  CG       -21.9520   21.1430  -10.7350 C.2   280  ASN280      0.2627
    165  OD1      -21.1300   21.1070  -11.6470 O.2   280  ASN280     -0.2716
    166  ND2      -21.9770   22.1160   -9.8320 N.am  280  ASN280     -0.0877
    167  N        -24.0230   14.9190  -11.2420 N.3   282  TRP282     -0.1241
    168  CA       -22.9540   13.9960  -10.8750 C.3   282  TRP282      0.1605
    169  C        -23.4030   12.5590  -11.0930 C.2   282  TRP282      0.2264
    170  O        -24.4750   12.1570  -10.6240 O.2   282  TRP282     -0.2867
    171  CB       -22.5140   14.1930   -9.4240 C.3   282  TRP282      0.0550
    172  CG       -21.4320   15.2160   -9.2840 C.ar  282  TRP282      0.0003
    173  CD1      -20.1490   15.1150   -9.7310 C.ar  282  TRP282      0.0946
    174  CD2      -21.5400   16.4980   -8.6600 C.ar  282  TRP282      0.0152
    175  NE1      -19.4480   16.2560   -9.4250 N.ar  282  TRP282     -0.2442
    176  CE2      -20.2810   17.1220   -8.7650 C.ar  282  TRP282      0.0810
    177  CE3      -22.5810   17.1800   -8.0200 C.ar  282  TRP282      0.0012
    178  CZ2      -20.0340   18.3940   -8.2540 C.ar  282  TRP282      0.0191
    179  CZ3      -22.3330   18.4430   -7.5140 C.ar  282  TRP282      0.0001
    180  CH2      -21.0720   19.0360   -7.6340 C.ar  282  TRP282      0.0015
@<TRIPOS>BOND
     1    98    97    2
     2   126   127    1
     3   109   108    2
     4    97    96    1
     5   127   128    1
     6   127   130    1
     7    95    96    1
     8    90    89    2
     9   128   129    2
    10   102   104   ar
    11   102   100   ar
    12    96    99    1
    13   108   107    1
    14   106   107    1
    15    89    88    1
    16    99   100    1
    17   131   130    1
    18   131   133    1
    19   104   105   ar
    20   130   132    1
    21   100   101   ar
    22   107   110    1
    23    87    88    1
    24    88    91    1
    25   110   111    1
    26   105   103   ar
    27   101   103   ar
    28    91    92    1
    29    93    92    2
    30    92    94   am
    31   111   112    1
    32   158   156    1
    33   157   156    1
    34   138   135    1
    35   138   139    1
    36   112   113    1
    37   153   156    1
    38   153   154    1
    39   153   152    1
    40   165   164    2
    41   135   134    1
    42   135   136    1
    43   161   160    1
    44   161   162    2
    45   160   159    1
    46   160   163    1
    47   149   151    1
    48   149   148    1
    49   154   155    2
    50   167   168    1
    51   169   168    1
    52   169   170    2
    53   139   140   ar
    54   139   141   ar
    55   150   148    1
    56   140   142   ar
    57   168   171    1
    58   145   148    1
    59   145   144    1
    60   145   146    1
    61   164   163    1
    62   164   166   am
    63   136   137    2
    64   113   114    1
    65   141   143   ar
    66   146   147    2
    67   142   143   ar
    68   173   175   ar
    69   173   172   ar
    70    82    81    2
    71   175   176   ar
    72   171   172    1
    73   172   174   ar
    74    49    48    2
    75   176   174   ar
    76   176   178   ar
    77   174   177   ar
    78    72    71    2
    79    86    84   ar
    80    81    80    1
    81    57    56    2
    82    79    80    1
    83   178   180   ar
    84    83    80    1
    85    83    84    1
    86    46    47    1
    87   177   179   ar
    88    60    59    1
    89    84    85   ar
    90    48    47    1
    91   180   179   ar
    92    71    70    1
    93    54    55    1
    94    58    59    1
    95    58    55    1
    96    36    35    1
    97    56    55    1
    98    59    61    1
    99    65    64    2
   100    47    50    1
   101    69    70    1
   102    77    78   ar
   103    77    75   ar
   104    50    51    1
   105    78    76   ar
   106    70    73    1
   107    75    74   ar
   108    66    67    1
   109    66    63    1
   110    66    68    1
   111    62    63    1
   112    35    33   ar
   113    35    34   ar
   114    76    74   ar
   115    53    51    1
   116    64    63    1
   117    74    73    1
   118    33    31   ar
   119    51    52    1
   120    34    32   ar
   121   118   117    2
   122    31    30   ar
   123   124   123    1
   124    32    30   ar
   125   121   120    1
   126   121   122    1
   127   119   120    1
   128   119   116    1
   129   117   116    1
   130    30    29    1
   131   116   115    1
   132    44    43    2
   133   123   122    2
   134   123   125    1
   135    43    42    1
   136    43    45   am
   137    38    41    1
   138    38    39    1
   139    38    37    1
   140    42    41    1
   141    29    26    1
   142    39    40    2
   143    26    27    1
   144    26    25    1
   145    27    28    2
   146    20    22   ar
   147    20    18   ar
   148    22    23   ar
   149    17    18    1
   150    17    14    1
   151    18    19   ar
   152    23    24    1
   153    23    21   ar
   154    19    21   ar
   155    13    14    1
   156    14    15    1
   157     7     9   ar
   158     7     6   ar
   159     9    11   ar
   160     5     6    1
   161     5     2    1
   162     4     3    2
   163    16    15    2
   164     6     8   ar
   165    11    12    1
   166    11    10   ar
   167     1     2    1
   168     3     2    1
   169     8    10   ar
