@<TRIPOS>MOLECULE
tmp/5op9A01.pdb
 213 206 0 0 0
SMALL
GASTEIGER

@<TRIPOS>ATOM
      1  N          1.2080   17.6270  260.7340 N.3    60  MET60      -0.1245
      2  CA        -0.0260   17.2120  261.4010 C.3    60  MET60       0.1570
      3  C         -0.9660   16.5290  260.4180 C.2    60  MET60       0.2261
      4  O         -1.4850   15.4420  260.6930 O.2    60  MET60      -0.2867
      5  CB        -0.7370   18.4070  262.0470 C.3    60  MET60       0.0387
      6  CG        -2.1650   18.0810  262.5750 C.3    60  MET60       0.0595
      7  SD        -3.0050   19.5230  263.2560 S.3    60  MET60      -0.1393
      8  CE        -2.1030   19.7510  264.7710 C.3    60  MET60       0.0692
      9  N         -0.0080    5.0360  263.9300 N.3    70  ARG70      -0.1245
     10  CA        -0.9660    5.8690  264.6500 C.3    70  ARG70       0.1563
     11  C         -0.7030    5.8980  266.1520 C.2    70  ARG70       0.2260
     12  O         -0.4530    4.8620  266.7830 O.2    70  ARG70      -0.2867
     13  CB        -2.4120    5.3870  264.4400 C.3    70  ARG70       0.0307
     14  CG        -2.9130    5.3610  262.9760 C.3    70  ARG70       0.0489
     15  CD        -4.4480    5.5060  262.8830 C.3    70  ARG70       0.2205
     16  NE        -4.7490    6.8060  263.4270 N.pl3  70  ARG70      -0.0865
     17  CZ        -4.5510    7.9520  262.8020 C.cat  70  ARG70       0.5346
     18  NH1       -4.2410    7.9670  261.5110 N.pl3  70  ARG70       0.1354
     19  NH2       -4.6850    9.0790  263.4820 N.pl3  70  ARG70       0.1354
     20  N         -3.2720    6.8920  268.0540 N.3    72  ASN72      -0.1225
     21  CA        -4.6060    6.4850  268.4800 C.3    72  ASN72       0.1785
     22  C         -5.5100    6.5620  267.2540 C.2    72  ASN72       0.2597
     23  O         -5.1020    7.0280  266.1880 O.2    72  ASN72      -0.2718
     24  CB        -5.1220    7.3350  269.6530 C.3    72  ASN72       0.1169
     25  CG        -5.1100    8.8190  269.3560 C.2    72  ASN72       0.2627
     26  OD1       -5.2250    9.2340  268.2060 O.2    72  ASN72      -0.2716
     27  ND2       -5.0000    9.6270  270.4080 N.am   72  ASN72      -0.0877
     28  N         -6.7360    6.0800  267.4030 N.am   73  ALA73      -0.1966
     29  CA        -7.6840    6.0640  266.2980 C.3    73  ALA73       0.1728
     30  C         -8.2840    7.4500  266.0580 C.2    73  ALA73       0.2616
     31  O         -8.5180    8.2240  266.9870 O.2    73  ALA73      -0.2715
     32  CB        -8.8160    5.0790  266.5880 C.3    73  ALA73       0.0334
     33  N         -8.5680    7.7500  264.7940 N.am   74  LEU74      -0.1963
     34  CA        -9.2980    8.9710  264.4860 C.3    74  LEU74       0.1728
     35  C        -10.6840    8.9320  265.1150 C.2    74  LEU74       0.2617
     36  O        -11.3730    7.9100  265.0690 O.2    74  LEU74      -0.2715
     37  CB        -9.4610    9.1240  262.9700 C.3    74  LEU74       0.0311
     38  CG        -8.1710    9.3630  262.1950 C.3    74  LEU74       0.0022
     39  CD1       -8.4340    9.1950  260.6930 C.3    74  LEU74       0.0001
     40  CD2       -7.6230   10.7430  262.4950 C.3    74  LEU74       0.0001
     41  N        -11.1160   10.0570  265.6780 N.am   75  THR75      -0.1937
     42  CA       -12.4980   10.2000  266.1200 C.3    75  THR75       0.2028
     43  C        -13.2470   11.2500  265.3230 C.2    75  THR75       0.2642
     44  O        -14.3960   11.5590  265.6520 O.2    75  THR75      -0.2714
     45  CB       -12.5910   10.5060  267.6140 C.3    75  THR75       0.1808
     46  OG1      -11.9590   11.7530  267.8900 O.3    75  THR75      -0.2208
     47  CG2      -11.9470    9.4110  268.4360 C.3    75  THR75       0.0379
     48  N        -12.6190   11.7830  264.2780 N.am   76  VAL76      -0.1977
     49  CA       -13.2220   12.7240  263.3380 C.3    76  VAL76       0.1596
     50  C        -12.8660   12.2530  261.9370 C.2    76  VAL76       0.2287
     51  O        -11.9380   11.4490  261.7510 O.2    76  VAL76      -0.2864
     52  CB       -12.7080   14.1680  263.5600 C.3    76  VAL76       0.0276
     53  CG1      -13.0720   14.6800  264.9480 C.3    76  VAL76       0.0022
     54  CG2      -11.2070   14.2510  263.3390 C.3    76  VAL76       0.0022
     55  N        -10.6270   16.4680  258.7280 N.3    80  VAL80      -0.1231
     56  CA       -10.7510   17.3880  259.8520 C.3    80  VAL80       0.1692
     57  C         -9.4460   17.4750  260.6340 C.2    80  VAL80       0.2591
     58  O         -9.2200   18.4470  261.3640 O.2    80  VAL80      -0.2718
     59  CB       -11.9550   16.9640  260.7180 C.3    80  VAL80       0.0266
     60  CG1      -12.0960   17.8540  261.9350 C.3    80  VAL80       0.0020
     61  CG2      -13.2360   17.0110  259.8930 C.3    80  VAL80       0.0020
     62  N         -8.5590   16.4950  260.4850 N.am   81  VAL81      -0.1980
     63  CA        -7.2410   16.6170  261.0980 C.3    81  VAL81       0.1595
     64  C         -6.5280   17.8480  260.5570 C.2    81  VAL81       0.2287
     65  O         -5.7410   18.4850  261.2670 O.2    81  VAL81      -0.2864
     66  CB        -6.4470   15.3090  260.8950 C.3    81  VAL81       0.0276
     67  CG1       -5.0030   15.4650  261.3560 C.3    81  VAL81       0.0022
     68  CG2       -7.1160   14.1740  261.6650 C.3    81  VAL81       0.0022
     69  N         -8.0060   20.6670  259.9500 N.3    83  ASN83      -0.1225
     70  CA        -9.0490   21.6720  260.1460 C.3    83  ASN83       0.1785
     71  C         -8.5290   23.0950  259.9380 C.2    83  ASN83       0.2597
     72  O         -9.1470   23.9010  259.2310 O.2    83  ASN83      -0.2718
     73  CB        -9.6020   21.4990  261.5670 C.3    83  ASN83       0.1169
     74  CG       -10.8980   22.2440  261.8030 C.2    83  ASN83       0.2627
     75  OD1      -11.7620   22.3380  260.9310 O.2    83  ASN83      -0.2716
     76  ND2      -11.0450   22.7660  263.0050 N.am   83  ASN83      -0.0877
     77  N         -7.4110   23.4460  260.5700 N.am   84  MET84      -0.1979
     78  CA        -6.9490   24.8270  260.4640 C.3    84  MET84       0.1605
     79  C         -6.4670   25.1480  259.0520 C.2    84  MET84       0.2287
     80  O         -6.6720   26.2680  258.5630 O.2    84  MET84      -0.2864
     81  CB        -5.8720   25.1270  261.5000 C.3    84  MET84       0.0413
     82  CG        -6.4140   25.3600  262.9080 C.3    84  MET84       0.0598
     83  SD        -7.5920   26.7010  263.1530 S.3    84  MET84      -0.1393
     84  CE        -7.0040   27.9360  261.9800 C.3    84  MET84       0.0692
     85  N        -21.0650   15.0510  274.4960 N.3   161  SER161     -0.1202
     86  CA       -20.3120   14.3100  273.4880 C.3   161  SER161      0.2020
     87  C        -18.8460   14.1250  273.8630 C.2   161  SER161      0.2618
     88  O        -18.2000   13.2040  273.3470 O.2   161  SER161     -0.2717
     89  CB       -20.3740   15.0210  272.1430 C.3   161  SER161      0.2103
     90  OG       -21.7040   15.0750  271.6700 O.3   161  SER161     -0.2182
     91  N        -18.3070   14.9560  274.7550 N.am  162  LEU162     -0.1979
     92  CA       -16.8550   15.1270  274.8220 C.3   162  LEU162      0.1596
     93  C        -16.1090   13.9840  275.5230 C.2   162  LEU162      0.2287
     94  O        -14.9390   13.7330  275.1970 O.2   162  LEU162     -0.2864
     95  CB       -16.5270   16.5080  275.3920 C.3   162  LEU162      0.0297
     96  CG       -17.1440   17.6840  274.6130 C.3   162  LEU162      0.0022
     97  CD1      -16.6730   18.9780  275.2350 C.3   162  LEU162      0.0001
     98  CD2      -16.8220   17.6720  273.1160 C.3   162  LEU162      0.0001
     99  N        -15.7050   11.8850  272.3900 N.3   165  ALA165     -0.1231
    100  CA       -15.0990   12.5230  271.2260 C.3   165  ALA165      0.1694
    101  C        -13.6050   12.6630  271.4090 C.2   165  ALA165      0.2592
    102  O        -12.8300   12.5960  270.4400 O.2   165  ALA165     -0.2718
    103  CB       -15.7040   13.9110  271.0190 C.3   165  ALA165      0.0304
    104  N        -13.1920   12.8960  272.6400 N.am  166  PHE166     -0.1976
    105  CA       -11.8010   13.1230  272.9630 C.3   166  PHE166      0.1639
    106  C        -11.1540   11.9110  273.6060 C.2   166  PHE166      0.2290
    107  O        -10.1230   12.0460  274.2570 O.2   166  PHE166     -0.2864
    108  CB       -11.6620   14.4090  273.7740 C.3   166  PHE166      0.0560
    109  CG       -11.7830   15.6200  272.9120 C.ar  166  PHE166     -0.0200
    110  CD1      -13.0250   16.1390  272.5750 C.ar  166  PHE166     -0.0042
    111  CD2      -10.6600   16.1860  272.3530 C.ar  166  PHE166     -0.0042
    112  CE1      -13.1270   17.2270  271.7230 C.ar  166  PHE166     -0.0003
    113  CE2      -10.7620   17.2760  271.5150 C.ar  166  PHE166     -0.0003
    114  CZ       -11.9980   17.7930  271.1990 C.ar  166  PHE166     -0.0000
    115  N        -18.4080    7.7120  268.6280 N.3   176  ALA176     -0.1245
    116  CA       -17.8310    8.9840  268.2040 C.3   176  ALA176      0.1562
    117  C        -18.4790    9.4850  266.9190 C.2   176  ALA176      0.2260
    118  O        -18.7600   10.6800  266.7860 O.2   176  ALA176     -0.2867
    119  CB       -16.3160    8.8710  268.0540 C.3   176  ALA176      0.0290
    120  N        -22.1050   10.8070  267.6510 N.3   179  ASN179     -0.1225
    121  CA       -22.0890   12.1330  268.2540 C.3   179  ASN179      0.1785
    122  C        -21.5860   13.1860  267.2720 C.2   179  ASN179      0.2597
    123  O        -22.1110   14.3020  267.2380 O.2   179  ASN179     -0.2718
    124  CB       -21.2030   12.1300  269.5030 C.3   179  ASN179      0.1169
    125  CG       -21.8330   11.4130  270.7070 C.2   179  ASN179      0.2627
    126  OD1      -23.0570   11.3090  270.8450 O.2   179  ASN179     -0.2716
    127  ND2      -20.9840   10.9560  271.6020 N.am  179  ASN179     -0.0877
    128  N        -20.5590   12.8550  266.4800 N.am  180  TRP180     -0.1976
    129  CA       -20.0410   13.7920  265.4810 C.3   180  TRP180      0.1640
    130  C        -21.1380   14.1910  264.5040 C.2   180  TRP180      0.2290
    131  O        -21.3650   15.3810  264.2500 O.2   180  TRP180     -0.2864
    132  CB       -18.8590   13.1670  264.7310 C.3   180  TRP180      0.0576
    133  CG       -18.3740   14.0270  263.5950 C.ar  180  TRP180      0.0006
    134  CD1      -18.7010   13.9050  262.2740 C.ar  180  TRP180      0.0946
    135  CD2      -17.4900   15.1510  263.6850 C.ar  180  TRP180      0.0152
    136  NE1      -18.0650   14.8750  261.5370 N.ar  180  TRP180     -0.2442
    137  CE2      -17.3240   15.6590  262.3820 C.ar  180  TRP180      0.0810
    138  CE3      -16.8230   15.7780  264.7420 C.ar  180  TRP180      0.0012
    139  CZ2      -16.5180   16.7670  262.1100 C.ar  180  TRP180      0.0191
    140  CZ3      -16.0230   16.8840  264.4660 C.ar  180  TRP180      0.0001
    141  CH2      -15.8810   17.3600  263.1630 C.ar  180  TRP180      0.0015
    142  N        -23.7510   16.4050  266.1380 N.3   183  ASP183     -0.1239
    143  CA       -23.2680   17.7500  266.4230 C.3   183  ASP183      0.1674
    144  C        -23.1080   18.5620  265.1420 C.2   183  ASP183      0.2266
    145  O        -23.3870   19.7700  265.1290 O.2   183  ASP183     -0.2867
    146  CB       -21.9640   17.6690  267.2140 C.3   183  ASP183      0.1410
    147  CG       -22.1690   17.1350  268.6280 C.2   183  ASP183      0.3668
    148  OD1      -23.3310   17.0320  269.0770 O.co2 183  ASP183     -0.2456
    149  OD2      -21.1640   16.8120  269.3040 O.co2 183  ASP183     -0.2456
    150  N        -18.3060   22.7360  265.4510 N.3   226  VAL226     -0.1231
    151  CA       -18.1600   21.5290  266.2730 C.3   226  VAL226      0.1692
    152  C        -16.7570   21.4470  266.8600 C.2   226  VAL226      0.2593
    153  O        -16.5800   21.1850  268.0570 O.2   226  VAL226     -0.2718
    154  CB       -18.4950   20.2600  265.4630 C.3   226  VAL226      0.0266
    155  CG1      -18.2510   19.0150  266.3120 C.3   226  VAL226      0.0020
    156  CG2      -19.9290   20.2780  264.9760 C.3   226  VAL226      0.0020
    157  N        -15.7410   21.6690  266.0200 N.am  227  THR227     -0.1939
    158  CA       -14.3540   21.4970  266.4410 C.3   227  THR227      0.2028
    159  C        -13.9260   22.5650  267.4380 C.2   227  THR227      0.2642
    160  O        -13.1880   22.2700  268.3820 O.2   227  THR227     -0.2714
    161  CB       -13.3980   21.4870  265.2490 C.3   227  THR227      0.1808
    162  OG1      -13.5320   22.6860  264.4900 O.3   227  THR227     -0.2208
    163  CG2      -13.6660   20.3080  264.3560 C.3   227  THR227      0.0379
    164  N        -14.3560   23.8130  267.2400 N.am  228  PHE228     -0.1959
    165  CA       -13.9520   24.8720  268.1630 C.3   228  PHE228      0.1771
    166  C        -14.6780   24.7510  269.4960 C.2   228  PHE228      0.2620
    167  O        -14.0670   24.9270  270.5560 O.2   228  PHE228     -0.2715
    168  CB       -14.0850   26.2540  267.5100 C.3   228  PHE228      0.0574
    169  CG       -12.8710   26.6240  266.7090 C.ar  228  PHE228     -0.0200
    170  CD1      -12.5690   25.9470  265.5360 C.ar  228  PHE228     -0.0042
    171  CD2      -11.9850   27.5860  267.1630 C.ar  228  PHE228     -0.0042
    172  CE1      -11.4320   26.2500  264.8120 C.ar  228  PHE228     -0.0003
    173  CE2      -10.8400   27.8970  266.4370 C.ar  228  PHE228     -0.0003
    174  CZ       -10.5660   27.2260  265.2650 C.ar  228  PHE228     -0.0000
    175  N        -15.9610   24.3930  269.4770 N.am  229  PHE229     -0.1960
    176  CA       -16.6460   24.1220  270.7370 C.3   229  PHE229      0.1771
    177  C        -15.9570   22.9890  271.4830 C.2   229  PHE229      0.2620
    178  O        -15.6650   23.1000  272.6780 O.2   229  PHE229     -0.2715
    179  CB       -18.1190   23.7770  270.5040 C.3   229  PHE229      0.0574
    180  CG       -18.8780   23.5100  271.7820 C.ar  229  PHE229     -0.0200
    181  CD1      -18.8850   22.2430  272.3440 C.ar  229  PHE229     -0.0042
    182  CD2      -19.5590   24.5280  272.4410 C.ar  229  PHE229     -0.0042
    183  CE1      -19.5610   21.9900  273.5280 C.ar  229  PHE229     -0.0003
    184  CE2      -20.2440   24.2760  273.6170 C.ar  229  PHE229     -0.0003
    185  CZ       -20.2370   23.0030  274.1610 C.ar  229  PHE229     -0.0000
    186  N        -15.7090   21.8750  270.7960 N.am  230  GLY230     -0.1940
    187  CA       -15.1790   20.7070  271.4770 C.3   230  GLY230      0.2014
    188  C        -13.7640   20.9190  271.9780 C.2   230  GLY230      0.2638
    189  O        -13.4550   20.6540  273.1410 O.2   230  GLY230     -0.2714
    190  N        -12.8740   21.3840  271.0990 N.am  231  ALA231     -0.1977
    191  CA       -11.5020   21.6190  271.5200 C.3   231  ALA231      0.1597
    192  C        -11.4450   22.6530  272.6390 C.2   231  ALA231      0.2287
    193  O        -10.7080   22.4850  273.6180 O.2   231  ALA231     -0.2864
    194  CB       -10.6410   22.0520  270.3350 C.3   231  ALA231      0.0319
    195  N          0.8730   25.2050  264.1560 N.3   341  HIS341     -0.1241
    196  CA        -0.3750   24.7730  264.7800 C.3   341  HIS341      0.1621
    197  C         -0.5710   25.3250  266.1880 C.2   341  HIS341      0.2264
    198  O         -1.3710   24.7780  266.9520 O.2   341  HIS341     -0.2867
    199  CB        -0.4780   23.2500  264.7490 C.3   341  HIS341      0.0745
    200  CG        -0.5240   22.7100  263.3630 C.ar  341  HIS341      0.0817
    201  ND1       -1.6530   22.7910  262.5800 N.ar  341  HIS341     -0.2268
    202  CD2        0.4320   22.1510  262.5860 C.ar  341  HIS341      0.1154
    203  CE1       -1.4000   22.2770  261.3900 C.ar  341  HIS341      0.1986
    204  NE2       -0.1420   21.8830  261.3660 N.ar  341  HIS341     -0.2212
    205  N         -7.7760   11.9530  275.6960 N.3   383  GLN383     -0.1245
    206  CA        -6.7890   12.8870  275.1710 C.3   383  GLN383      0.1566
    207  C         -6.3550   13.9150  276.2060 C.2   383  GLN383      0.2260
    208  O         -5.3820   14.6460  275.9730 O.2   383  GLN383     -0.2867
    209  CB        -7.3180   13.5750  273.9060 C.3   383  GLN383      0.0367
    210  CG        -7.4880   12.6190  272.7300 C.3   383  GLN383      0.0905
    211  CD        -8.0820   13.2700  271.5030 C.2   383  GLN383      0.2608
    212  OE1       -7.7850   14.4270  271.1780 O.2   383  GLN383     -0.2717
    213  NE2       -8.9340   12.5270  270.8010 N.am  383  GLN383     -0.0878
@<TRIPOS>BOND
     1    80    79    2
     2    55    56    1
     3    79    78    1
     4    72    71    2
     5    56    57    1
     6    56    59    1
     7    61    59    1
     8    71    70    1
     9    71    77   am
    10    69    70    1
    11    70    73    1
    12     3     4    2
    13     3     2    1
    14    78    77    1
    15    78    81    1
    16    62    57   am
    17    62    63    1
    18    64    63    1
    19    64    65    2
    20    57    58    2
    21    39    38    1
    22    59    60    1
    23     1     2    1
    24    66    63    1
    25    66    67    1
    26    66    68    1
    27    75    74    2
    28   204   203   ar
    29   204   202   ar
    30   203   201   ar
    31     2     5    1
    32    81    82    1
    33    18    17    1
    34   136   134   ar
    35   136   137   ar
    36    73    74    1
    37    51    50    2
    38    74    76   am
    39    50    49    1
    40    84    83    1
    41     5     6    1
    42   139   137   ar
    43   139   141   ar
    44    38    40    1
    45    38    37    1
    46   134   133   ar
    47   137   135   ar
    48     6     7    1
    49   201   200   ar
    50   202   200   ar
    51    17    16    2
    52    17    19    1
    53    15    14    1
    54    15    16    1
    55    82    83    1
    56    37    34    1
    57    14    13    1
    58   141   140   ar
    59     7     8    1
    60    49    52    1
    61    49    48    1
    62    54    52    1
    63   200   199    1
    64    52    53    1
    65   133   135   ar
    66   133   132    1
    67   135   138   ar
    68     9    10    1
    69   195   196    1
    70   131   130    2
    71    48    43   am
    72   163   161    1
    73    13    10    1
    74   140   138   ar
    75    34    33    1
    76    34    35    1
    77   162   161    1
    78   130   129    1
    79    10    11    1
    80   132   129    1
    81   199   196    1
    82   196   197    1
    83    33    30   am
    84   172   174   ar
    85   172   170   ar
    86   156   154    1
    87    36    35    2
    88    35    41   am
    89   145   144    2
    90   144   143    1
    91   161   158    1
    92   174   173   ar
    93    43    44    2
    94    43    42    1
    95   150   151    1
    96   154   151    1
    97   154   155    1
    98   129   128    1
    99   170   169   ar
   100    41    42    1
   101   157   158    1
   102   157   152   am
   103    30    29    1
   104    30    31    2
   105    42    45    1
   106   142   143    1
   107    11    12    2
   108    23    22    2
   109   197   198    2
   110   151   152    1
   111    29    32    1
   112    29    28    1
   113   143   146    1
   114   173   171   ar
   115   158   159    1
   116   128   122   am
   117   169   171   ar
   118   169   168    1
   119   118   117    2
   120   152   153    2
   121   117   116    1
   122   146   147    1
   123   123   122    2
   124   164   159   am
   125   164   165    1
   126    22    28   am
   127    22    21    1
   128   122   121    1
   129   159   160    2
   130   168   165    1
   131    45    46    1
   132    45    47    1
   133   120   121    1
   134   119   116    1
   135    20    21    1
   136   165   166    1
   137   116   115    1
   138    26    25    2
   139   121   124    1
   140    21    24    1
   141   147   148   ar
   142   147   149   ar
   143    25    24    1
   144    25    27   am
   145   175   166   am
   146   175   176    1
   147   166   167    2
   148   124   125    1
   149   194   191    1
   150   102   101    2
   151   179   176    1
   152   179   180    1
   153   125   126    2
   154   125   127   am
   155   176   177    1
   156   186   187    1
   157   186   177   am
   158   213   211   am
   159   103   100    1
   160   190   191    1
   161   190   188   am
   162   212   211    2
   163   114   113   ar
   164   114   112   ar
   165   100   101    1
   166   100    99    1
   167   101   104   am
   168   187   188    1
   169   177   178    2
   170   211   210    1
   171   113   111   ar
   172   191   192    1
   173    90    89    1
   174   112   110   ar
   175   180   181   ar
   176   180   182   ar
   177   188   189    2
   178    89    86    1
   179   181   183   ar
   180   111   109   ar
   181   182   184   ar
   182   110   109   ar
   183   192   193    2
   184   104   105    1
   185   210   209    1
   186   109   108    1
   187   105   106    1
   188   105   108    1
   189    98    96    1
   190    88    87    2
   191    86    87    1
   192    86    85    1
   193   183   185   ar
   194   106   107    2
   195   184   185   ar
   196    87    91   am
   197   209   206    1
   198    96    97    1
   199    96    95    1
   200    91    92    1
   201    92    95    1
   202    92    93    1
   203   206   205    1
   204   206   207    1
   205    94    93    2
   206   208   207    2
