@<TRIPOS>MOLECULE
tmp/5opaA01.pdb
 190 183 0 0 0
SMALL
GASTEIGER

@<TRIPOS>ATOM
      1  N          1.1320   17.6400   -3.6050 N.3    59  MET59      -0.1245
      2  CA        -0.1020   17.2480   -2.9270 C.3    59  MET59       0.1570
      3  C         -1.0290   16.5540   -3.9220 C.2    59  MET59       0.2261
      4  O         -1.5900   15.4820   -3.6590 O.2    59  MET59      -0.2867
      5  CB        -0.8200   18.4590   -2.2940 C.3    59  MET59       0.0387
      6  CG        -2.3750   18.1140   -1.7820 C.3    59  MET59       0.0595
      7  SD        -3.1300   19.5790   -1.1570 S.3    59  MET59      -0.1393
      8  CE        -2.2890   19.7660    0.4130 C.3    59  MET59       0.0692
      9  N        -11.1050   10.1910    1.2160 N.3    74  THR74      -0.1203
     10  CA       -12.4330   10.4020    1.7690 C.3    74  THR74       0.1994
     11  C        -13.2610   11.3590    0.9570 C.2    74  THR74       0.2617
     12  O        -14.4090   11.6180    1.3070 O.2    74  THR74      -0.2717
     13  CB       -12.3580   10.8980    3.1920 C.3    74  THR74       0.1784
     14  OG1      -11.7850   12.1920    3.1680 O.3    74  THR74      -0.2211
     15  CG2      -11.5790    9.9800    4.0750 C.3    74  THR74       0.0376
     16  N        -12.7420   11.7740   -0.1890 N.am   75  VAL75      -0.1979
     17  CA       -13.3750   12.7180   -1.1000 C.3    75  VAL75       0.1595
     18  C        -13.0950   12.2020   -2.5040 C.2    75  VAL75       0.2287
     19  O        -12.1360   11.4580   -2.7030 O.2    75  VAL75      -0.2864
     20  CB       -12.8730   14.1720   -0.9330 C.3    75  VAL75       0.0276
     21  CG1      -13.2670   14.7250    0.4320 C.3    75  VAL75       0.0022
     22  CG2      -11.3780   14.2670   -1.1550 C.3    75  VAL75       0.0022
     23  N        -10.8920   16.4550   -5.8020 N.3    79  VAL79      -0.1231
     24  CA       -11.0430   17.3630   -4.6660 C.3    79  VAL79       0.1692
     25  C         -9.7620   17.4530   -3.8490 C.2    79  VAL79       0.2591
     26  O         -9.5530   18.4170   -3.1140 O.2    79  VAL79      -0.2718
     27  CB       -12.3000   16.9890   -3.8570 C.3    79  VAL79       0.0266
     28  CG1      -12.4850   17.8560   -2.6070 C.3    79  VAL79       0.0020
     29  CG2      -13.5490   17.0480   -4.7080 C.3    79  VAL79       0.0020
     30  N         -8.8420   16.5070   -4.0290 N.am   80  VAL80      -0.1980
     31  CA        -7.5390   16.6240   -3.3920 C.3    80  VAL80       0.1595
     32  C         -6.8420   17.8960   -3.8600 C.2    80  VAL80       0.2287
     33  O         -6.1190   18.5290   -3.0930 O.2    80  VAL80      -0.2864
     34  CB        -6.7230   15.3300   -3.6190 C.3    80  VAL80       0.0276
     35  CG1       -5.2980   15.4910   -3.0840 C.3    80  VAL80       0.0022
     36  CG2       -7.4420   14.1630   -2.9610 C.3    80  VAL80       0.0022
     37  N         -8.2540   20.7180   -4.4410 N.3    82  ASN82      -0.1225
     38  CA        -9.2840   21.7350   -4.2330 C.3    82  ASN82       0.1785
     39  C         -8.7670   23.1720   -4.3640 C.2    82  ASN82       0.2597
     40  O         -9.3610   23.9920   -5.0710 O.2    82  ASN82      -0.2718
     41  CB        -9.8870   21.4860   -2.8350 C.3    82  ASN82       0.1169
     42  CG       -11.1440   22.2850   -2.5630 C.2    82  ASN82       0.2627
     43  OD1      -12.0820   22.3580   -3.3660 O.2    82  ASN82      -0.2716
     44  ND2      -11.1890   22.8580   -1.3700 N.am   82  ASN82      -0.0877
     45  N         -7.6860   23.5110   -3.7050 N.am   83  MET83      -0.1979
     46  CA        -7.1830   24.8690   -3.7820 C.3    83  MET83       0.1605
     47  C         -6.7170   25.2380   -5.1930 C.2    83  MET83       0.2287
     48  O         -6.9510   26.3550   -5.6680 O.2    83  MET83      -0.2864
     49  CB        -6.0900   25.1070   -2.7740 C.3    83  MET83       0.0413
     50  CG        -6.6600   25.4020   -1.4690 C.3    83  MET83       0.0598
     51  SD        -7.7050   26.8430   -1.1330 S.3    83  MET83      -0.1393
     52  CE        -7.2280   27.9670   -2.4950 C.3    83  MET83       0.0692
     53  N        -24.1540   19.3580    9.6420 N.3   157  LEU157     -0.1245
     54  CA       -22.8990   19.3800    8.9030 C.3   157  LEU157      0.1561
     55  C        -21.7730   18.9110    9.7910 C.2   157  LEU157      0.2260
     56  O        -20.8960   18.1590    9.3530 O.2   157  LEU157     -0.2867
     57  CB       -22.6120   20.7940    8.3510 C.3   157  LEU157      0.0270
     58  CG       -23.5770   21.3020    7.2750 C.3   157  LEU157      0.0019
     59  CD1      -23.4110   22.7800    7.0750 C.3   157  LEU157      0.0001
     60  CD2      -23.3660   20.5270    5.9410 C.3   157  LEU157      0.0001
     61  N        -21.0890   15.0880   10.1710 N.3   160  SER160     -0.1202
     62  CA       -20.3360   14.3420    9.1610 C.3   160  SER160      0.2020
     63  C        -18.8730   14.1550    9.5340 C.2   160  SER160      0.2618
     64  O        -18.1870   13.2750    8.9930 O.2   160  SER160     -0.2717
     65  CB       -20.3510   15.0690    7.8230 C.3   160  SER160      0.2103
     66  OG       -21.6550   15.1170    7.2740 O.3   160  SER160     -0.2182
     67  N        -18.3340   15.0090   10.4170 N.am  161  LEU161     -0.1979
     68  CA       -16.8770   15.1830   10.5080 C.3   161  LEU161      0.1596
     69  C        -16.1540   14.0280   11.2040 C.2   161  LEU161      0.2287
     70  O        -15.0030   13.7610   10.8650 O.2   161  LEU161     -0.2864
     71  CB       -16.5230   16.5390   11.0730 C.3   161  LEU161      0.0297
     72  CG       -17.0710   17.7470   10.3060 C.3   161  LEU161      0.0022
     73  CD1      -16.6010   19.0270   10.9830 C.3   161  LEU161      0.0001
     74  CD2      -16.7250   17.6910    8.7820 C.3   161  LEU161      0.0001
     75  N        -15.7320   12.0110    8.1200 N.3   164  ALA164     -0.1231
     76  CA       -15.1420   12.6490    6.9610 C.3   164  ALA164      0.1694
     77  C        -13.6370   12.8200    7.1090 C.2   164  ALA164      0.2592
     78  O        -12.9150   12.8050    6.1000 O.2   164  ALA164     -0.2718
     79  CB       -15.7620   14.0330    6.7150 C.3   164  ALA164      0.0304
     80  N        -13.1610   13.0240    8.3480 N.am  165  PHE165     -0.1976
     81  CA       -11.7510   13.2350    8.6210 C.3   165  PHE165      0.1639
     82  C        -11.1170   12.0160    9.2550 C.2   165  PHE165      0.2290
     83  O        -10.0330   12.1030    9.8360 O.2   165  PHE165     -0.2864
     84  CB       -11.5100   14.5190    9.3990 C.3   165  PHE165      0.0560
     85  CG       -11.6930   15.7300    8.5290 C.ar  165  PHE165     -0.0200
     86  CD1      -10.6200   16.2430    7.8180 C.ar  165  PHE165     -0.0042
     87  CD2      -12.9280   16.3010    8.3590 C.ar  165  PHE165     -0.0042
     88  CE1      -10.8190   17.3370    6.9760 C.ar  165  PHE165     -0.0003
     89  CE2      -13.1090   17.3740    7.5000 C.ar  165  PHE165     -0.0003
     90  CZ       -12.0660   17.8410    6.7880 C.ar  165  PHE165     -0.0000
     91  N        -18.4340    7.9060    4.4020 N.3   175  ALA175     -0.1245
     92  CA       -17.8930    9.1850    3.9520 C.3   175  ALA175      0.1562
     93  C        -18.5320    9.6110    2.6580 C.2   175  ALA175      0.2260
     94  O        -18.8250   10.7910    2.4840 O.2   175  ALA175     -0.2867
     95  CB       -16.3840    9.1180    3.8350 C.3   175  ALA175      0.0290
     96  N        -22.2100   10.8760    3.3780 N.3   178  ASN178     -0.1225
     97  CA       -22.2580   12.2020    3.9780 C.3   178  ASN178      0.1785
     98  C        -21.7780   13.2510    2.9920 C.2   178  ASN178      0.2597
     99  O        -22.3280   14.3470    2.9570 O.2   178  ASN178     -0.2718
    100  CB       -21.4060   12.2230    5.2430 C.3   178  ASN178      0.1169
    101  CG       -22.0150   11.4510    6.3990 C.2   178  ASN178      0.2627
    102  OD1      -23.2510   11.3400    6.5340 O.2   178  ASN178     -0.2716
    103  ND2      -21.1740   11.0370    7.2830 N.am  178  ASN178     -0.0877
    104  N        -20.7250   12.9350    2.2060 N.am  179  TRP179     -0.1976
    105  CA       -20.2070   13.8710    1.2070 C.3   179  TRP179      0.1640
    106  C        -21.2980   14.2530    0.2100 C.2   179  TRP179      0.2290
    107  O        -21.5620   15.4370   -0.0380 O.2   179  TRP179     -0.2864
    108  CB       -19.0010   13.2570    0.4860 C.3   179  TRP179      0.0576
    109  CG       -18.4970   14.1120   -0.6520 C.ar  179  TRP179      0.0006
    110  CD1      -18.8160   13.9730   -1.9680 C.ar  179  TRP179      0.0946
    111  CD2      -17.6540   15.2530   -0.5460 C.ar  179  TRP179      0.0152
    112  NE1      -18.1700   14.9270   -2.6860 N.ar  179  TRP179     -0.2442
    113  CE2      -17.4540   15.7430   -1.8440 C.ar  179  TRP179      0.0810
    114  CE3      -16.9940   15.8770    0.5320 C.ar  179  TRP179      0.0012
    115  CZ2      -16.6420   16.8480   -2.1130 C.ar  179  TRP179      0.0191
    116  CZ3      -16.1660   16.9920    0.2470 C.ar  179  TRP179      0.0001
    117  CH2      -16.0250   17.4540   -1.0650 C.ar  179  TRP179      0.0015
    118  N        -23.9260   16.4510    1.8400 N.3   182  ASP182     -0.1239
    119  CA       -23.4670   17.7910    2.1840 C.3   182  ASP182      0.1674
    120  C        -23.2880   18.6250    0.9170 C.2   182  ASP182      0.2266
    121  O        -23.5550   19.8350    0.9190 O.2   182  ASP182     -0.2867
    122  CB       -22.2250   17.7080    3.0460 C.3   182  ASP182      0.1410
    123  CG       -22.5070   17.1240    4.4120 C.2   182  ASP182      0.3668
    124  OD1      -23.6760   16.9790    4.8340 O.co2 182  ASP182     -0.2456
    125  OD2      -21.4960   16.7610    5.0900 O.co2 182  ASP182     -0.2456
    126  N        -18.4890   22.8340    1.2000 N.3   225  VAL225     -0.1231
    127  CA       -18.3370   21.6130    2.0250 C.3   225  VAL225      0.1692
    128  C        -16.9200   21.5130    2.5800 C.2   225  VAL225      0.2593
    129  O        -16.7210   21.2670    3.7830 O.2   225  VAL225     -0.2718
    130  CB       -18.6890   20.3180    1.2400 C.3   225  VAL225      0.0266
    131  CG1      -18.4200   19.1090    2.1250 C.3   225  VAL225      0.0020
    132  CG2      -20.1270   20.3370    0.7900 C.3   225  VAL225      0.0020
    133  N        -15.9310   21.7540    1.7240 N.am  226  THR226     -0.1939
    134  CA       -14.5260   21.5930    2.1090 C.3   226  THR226      0.2028
    135  C        -14.0800   22.6540    3.1120 C.2   226  THR226      0.2642
    136  O        -13.3410   22.3330    4.0560 O.2   226  THR226     -0.2714
    137  CB       -13.6000   21.5950    0.8990 C.3   226  THR226      0.1808
    138  OG1      -13.7310   22.7840    0.1500 O.3   226  THR226     -0.2208
    139  CG2      -13.8350   20.4270    0.0030 C.3   226  THR226      0.0379
    140  N        -14.4830   23.9060    2.9280 N.am  227  PHE227     -0.1959
    141  CA       -14.0830   24.9540    3.8550 C.3   227  PHE227      0.1771
    142  C        -14.7940   24.8260    5.1920 C.2   227  PHE227      0.2620
    143  O        -14.1620   24.9840    6.2390 O.2   227  PHE227     -0.2715
    144  CB       -14.2210   26.3540    3.2210 C.3   227  PHE227      0.0574
    145  CG       -13.0120   26.7230    2.3950 C.ar  227  PHE227     -0.0200
    146  CD1      -12.7090   26.0370    1.2100 C.ar  227  PHE227     -0.0042
    147  CD2      -12.1150   27.6770    2.8080 C.ar  227  PHE227     -0.0042
    148  CE1      -11.5810   26.3350    0.4950 C.ar  227  PHE227     -0.0003
    149  CE2      -10.9590   27.9410    2.0750 C.ar  227  PHE227     -0.0003
    150  CZ       -10.7090   27.2910    0.9190 C.ar  227  PHE227     -0.0000
    151  N        -16.0660   24.4940    5.2000 N.am  228  PHE228     -0.1960
    152  CA       -16.7280   24.2030    6.4660 C.3   228  PHE228      0.1771
    153  C        -16.0180   23.0900    7.1960 C.2   228  PHE228      0.2620
    154  O        -15.7070   23.1880    8.3910 O.2   228  PHE228     -0.2715
    155  CB       -18.2060   23.8520    6.2490 C.3   228  PHE228      0.0574
    156  CG       -18.9600   23.5910    7.5520 C.ar  228  PHE228     -0.0200
    157  CD1      -18.9400   22.3270    8.1280 C.ar  228  PHE228     -0.0042
    158  CD2      -19.6180   24.6160    8.2090 C.ar  228  PHE228     -0.0042
    159  CE1      -19.5710   22.0790    9.3440 C.ar  228  PHE228     -0.0003
    160  CE2      -20.2920   24.3440    9.4110 C.ar  228  PHE228     -0.0003
    161  CZ       -20.2530   23.0840    9.9620 C.ar  228  PHE228     -0.0000
    162  N        -15.7700   21.9730    6.5200 N.am  229  GLY229     -0.1940
    163  CA       -15.2070   20.8320    7.2060 C.3   229  GLY229      0.2014
    164  C        -13.8000   21.0510    7.6910 C.2   229  GLY229      0.2638
    165  O        -13.4850   20.7490    8.8470 O.2   229  GLY229     -0.2714
    166  N        -12.9140   21.5180    6.8110 N.am  230  ALA230     -0.1977
    167  CA       -11.5260   21.7820    7.2000 C.3   230  ALA230      0.1597
    168  C        -11.4710   22.7980    8.3190 C.2   230  ALA230      0.2287
    169  O        -10.7620   22.6120    9.3040 O.2   230  ALA230     -0.2864
    170  CB       -10.7150   22.2410    6.0070 C.3   230  ALA230      0.0319
    171  N         -7.6850   11.9960   11.3700 N.3   382  GLN382     -0.1231
    172  CA        -6.6980   12.9470   10.8670 C.3   382  GLN382      0.1698
    173  C         -6.3150   13.9990   11.8850 C.2   382  GLN382      0.2592
    174  O         -5.3520   14.7450   11.6860 O.2   382  GLN382     -0.2718
    175  CB        -7.2050   13.6280    9.5940 C.3   382  GLN382      0.0381
    176  CG        -7.2900   12.6810    8.3910 C.3   382  GLN382      0.0905
    177  CD        -7.9530   13.3150    7.1980 C.2   382  GLN382      0.2608
    178  OE1       -7.6790   14.4740    6.8860 O.2   382  GLN382     -0.2717
    179  NE2       -8.8020   12.5870    6.5160 N.am  382  GLN382     -0.0878
    180  N         -7.0200   14.0640   13.0080 N.am  383  ARG383     -0.1980
    181  CA        -6.6600   14.8960   14.1500 C.3   383  ARG383      0.1597
    182  C         -6.5650   14.0320   15.3960 C.2   383  ARG383      0.2287
    183  O         -7.1750   12.9550   15.5020 O.2   383  ARG383     -0.2864
    184  CB        -7.7000   16.0000   14.4110 C.3   383  ARG383      0.0334
    185  CG        -7.8540   16.9670   13.2400 C.3   383  ARG383      0.0492
    186  CD        -6.5870   17.8250   13.0130 C.3   383  ARG383      0.2205
    187  NE        -6.8010   18.7840   11.9400 N.pl3 383  ARG383     -0.0865
    188  CZ        -6.7240   18.5140   10.6360 C.cat 383  ARG383      0.5346
    189  NH1       -6.3650   17.2970   10.2630 N.pl3 383  ARG383      0.1354
    190  NH2       -7.0240   19.4560    9.7400 N.pl3 383  ARG383      0.1354
@<TRIPOS>BOND
     1    23    24    1
     2    48    47    2
     3    47    46    1
     4    40    39    2
     5    29    27    1
     6    24    27    1
     7    24    25    1
     8    37    38    1
     9    39    38    1
    10    39    45   am
    11    38    41    1
    12    30    25   am
    13    30    31    1
    14     3     4    2
    15     3     2    1
    16    32    31    1
    17    32    33    2
    18    27    28    1
    19    25    26    2
    20    46    45    1
    21    46    49    1
    22    34    31    1
    23    34    35    1
    24    34    36    1
    25     1     2    1
    26    43    42    2
    27     2     5    1
    28    41    42    1
    29    49    50    1
    30    19    18    2
    31   112   110   ar
    32   112   113   ar
    33    42    44   am
    34    18    17    1
    35    52    51    1
    36     5     6    1
    37   115   113   ar
    38   115   117   ar
    39   110   109   ar
    40   113   111   ar
    41     6     7    1
    42    50    51    1
    43     7     8    1
    44    22    20    1
    45    17    20    1
    46    17    16    1
    47   117   116   ar
    48    20    21    1
    49   109   111   ar
    50   109   108    1
    51   111   114   ar
    52    16    11   am
    53   107   106    2
    54   139   137    1
    55   138   137    1
    56   106   105    1
    57   116   114   ar
    58   108   105    1
    59   148   150   ar
    60   148   146   ar
    61   132   130    1
    62   137   134    1
    63   120   121    2
    64   120   119    1
    65   150   149   ar
    66    11    12    2
    67    11    10    1
    68   126   127    1
    69   105   104    1
    70   146   145   ar
    71     9    10    1
    72   130   127    1
    73   130   131    1
    74   133   134    1
    75   133   128   am
    76    10    13    1
    77   118   119    1
    78   127   128    1
    79   149   147   ar
    80   134   135    1
    81   119   122    1
    82   104    98   am
    83   145   147   ar
    84   145   144    1
    85    94    93    2
    86   128   129    2
    87    93    92    1
    88   140   135   am
    89   140   141    1
    90    99    98    2
    91    98    97    1
    92   122   123    1
    93   135   136    2
    94    14    13    1
    95    13    15    1
    96   144   141    1
    97    96    97    1
    98    95    92    1
    99   141   142    1
   100    92    91    1
   101    97   100    1
   102   123   124   ar
   103   123   125   ar
   104   142   151   am
   105   142   143    2
   106   151   152    1
   107   100   101    1
   108    60    58    1
   109   170   167    1
   110    78    77    2
   111   155   152    1
   112   155   156    1
   113   101   102    2
   114   101   103   am
   115   152   153    1
   116   179   177   am
   117   162   153   am
   118   162   163    1
   119    79    76    1
   120    90    88   ar
   121    90    89   ar
   122   166   167    1
   123   166   164   am
   124   178   177    2
   125    76    77    1
   126    76    75    1
   127    88    86   ar
   128    59    58    1
   129    77    80   am
   130   153   154    2
   131   177   176    1
   132   167   168    1
   133   163   164    1
   134    66    65    1
   135    58    57    1
   136    89    87   ar
   137   156   157   ar
   138   156   158   ar
   139   164   165    2
   140    86    85   ar
   141    65    62    1
   142   157   159   ar
   143   158   160   ar
   144   168   169    2
   145    80    81    1
   146    57    54    1
   147    87    85   ar
   148   176   175    1
   149    85    84    1
   150    81    82    1
   151    81    84    1
   152    74    72    1
   153    54    53    1
   154    54    55    1
   155    64    63    2
   156    62    63    1
   157    62    61    1
   158    82    83    2
   159   159   161   ar
   160    56    55    2
   161   160   161   ar
   162    63    67   am
   163   175   172    1
   164   190   188    1
   165   189   188    1
   166    72    73    1
   167    72    71    1
   168    67    68    1
   169    68    71    1
   170    68    69    1
   171   188   187    2
   172    70    69    2
   173   172   171    1
   174   172   173    1
   175   174   173    2
   176   173   180   am
   177   187   186    1
   178   180   181    1
   179   186   185    1
   180   185   184    1
   181   181   184    1
   182   181   182    1
   183   182   183    2
