@<TRIPOS>MOLECULE
tmp/5opbA00.pdb
 159 149 0 0 0
SMALL
GASTEIGER

@<TRIPOS>ATOM
      1  N          1.4940  -12.9990   25.3000 N.3     9  GLN9       -0.1245
      2  CA         0.8030  -13.4020   24.0810 C.3     9  GLN9        0.1566
      3  C          1.6020  -13.0650   22.8140 C.2     9  GLN9        0.2260
      4  O          2.5150  -12.2550   22.8170 O.2     9  GLN9       -0.2867
      5  CB        -0.5450  -12.7060   23.9750 C.3     9  GLN9        0.0367
      6  CG        -0.4150  -11.2140   23.7680 C.3     9  GLN9        0.0905
      7  CD        -1.7210  -10.5000   23.9190 C.2     9  GLN9        0.2608
      8  OE1       -2.3670  -10.1400   22.9350 O.2     9  GLN9       -0.2717
      9  NE2       -2.1100  -10.2550   25.1640 N.am    9  GLN9       -0.0878
     10  N          2.1750  -11.4290   19.3580 N.3    11  LEU11      -0.1231
     11  CA         1.8210  -10.1840   18.7130 C.3    11  LEU11       0.1693
     12  C          1.8130  -10.3500   17.1960 C.2    11  LEU11       0.2593
     13  O          0.9020   -9.8990   16.5200 O.2    11  LEU11      -0.2718
     14  CB         2.8520   -9.1450   19.1160 C.3    11  LEU11       0.0284
     15  CG         2.3950   -8.1670   20.2110 C.3    11  LEU11       0.0019
     16  CD1        1.1050   -8.4160   20.9680 C.3    11  LEU11       0.0001
     17  CD2        3.5760   -7.7270   21.0520 C.3    11  LEU11       0.0001
     18  N          2.8500  -10.9520   16.6780 N.am   12  GLY12      -0.1942
     19  CA         2.8150  -11.3440   15.2860 C.3    12  GLY12       0.2014
     20  C          4.1130  -12.0000   14.9560 C.2    12  GLY12       0.2639
     21  O          4.9380  -12.1840   15.8390 O.2    12  GLY12      -0.2714
     22  N          4.2930  -12.3490   13.6790 N.am   13  GLU13      -0.1963
     23  CA         5.6130  -12.6890   13.1540 C.3    13  GLU13       0.1733
     24  C          6.0420  -11.5920   12.1650 C.2    13  GLU13       0.2616
     25  O          5.2020  -10.9550   11.5080 O.2    13  GLU13      -0.2715
     26  CB         5.6260  -14.0660   12.5090 C.3    13  GLU13       0.0429
     27  CG         5.4430  -15.2060   13.4380 C.3    13  GLU13       0.1163
     28  CD         5.1720  -16.5350   12.7600 C.2    13  GLU13       0.3649
     29  OE1        5.0000  -16.5910   11.5170 O.co2  13  GLU13      -0.2457
     30  OE2        5.0210  -17.5370   13.4220 O.co2  13  GLU13      -0.2457
     31  N          7.3530  -11.3270   12.1380 N.am   14  GLY14      -0.1955
     32  CA         8.0000  -10.5350   11.0760 C.3    14  GLY14       0.1869
     33  C          8.3490  -11.4560    9.9090 C.2    14  GLY14       0.2309
     34  O          7.8490  -12.6130    9.8270 O.2    14  GLY14      -0.2863
     35  N          7.2930  -12.1870   17.5500 N.3    19  VAL19      -0.1245
     36  CA         7.3720  -11.1790   18.6070 C.3    19  VAL19       0.1561
     37  C          6.2800  -11.3930   19.6360 C.2    19  VAL19       0.2260
     38  O          5.1220  -11.7170   19.3340 O.2    19  VAL19      -0.2867
     39  CB         7.5550   -9.7010   18.1260 C.3    19  VAL19       0.0252
     40  CG1        7.8950   -9.6210   16.6340 C.3    19  VAL19       0.0019
     41  CG2        6.4180   -8.7850   18.5530 C.3    19  VAL19       0.0019
     42  N          4.3200  -10.1560   23.4230 N.3    21  LEU21      -0.1245
     43  CA         4.0250   -9.1190   24.4250 C.3    21  LEU21       0.1561
     44  C          4.6410   -9.6950   25.7180 C.2    21  LEU21       0.2260
     45  O          4.1800  -10.7430   26.1420 O.2    21  LEU21      -0.2867
     46  CB         2.5440   -8.9260   24.5950 C.3    21  LEU21       0.0270
     47  CG         2.1850   -7.5430   25.2160 C.3    21  LEU21       0.0019
     48  CD1        0.6910   -7.3540   25.1300 C.3    21  LEU21       0.0001
     49  CD2        2.6660   -7.3610   26.6560 C.3    21  LEU21       0.0001
     50  N          7.2630   -5.0810   23.6610 N.3    32  ALA32      -0.1245
     51  CA         7.2860   -6.1020   22.6430 C.3    32  ALA32       0.1562
     52  C          8.6720   -6.6470   22.5570 C.2    32  ALA32       0.2260
     53  O          9.6880   -5.8880   22.5980 O.2    32  ALA32      -0.2867
     54  CB         6.8850   -5.4580   21.2840 C.3    32  ALA32       0.0290
     55  N          8.9900    2.6840   14.9470 N.3    59  ILE59      -0.1245
     56  CA         8.8110    2.1000   16.3200 C.3    59  ILE59       0.1561
     57  C         10.1380    2.2230   17.1060 C.2    59  ILE59       0.2260
     58  O         11.2310    2.1640   16.6040 O.2    59  ILE59      -0.2867
     59  CB         8.2640    0.6590   16.2690 C.3    59  ILE59       0.0252
     60  CG1        7.6020    0.2120   17.5680 C.3    59  ILE59       0.0019
     61  CG2        9.3520   -0.2670   15.9240 C.3    59  ILE59       0.0019
     62  CD1        6.1850    0.7140   17.8000 C.3    59  ILE59       0.0001
     63  N         11.3240   -3.6740   22.1040 N.3    75  MET75      -0.1230
     64  CA        10.7480   -2.4910   21.4970 C.3    75  MET75       0.1702
     65  C          9.5770   -1.9540   22.2180 C.2    75  MET75       0.2592
     66  O          8.8950   -2.7030   22.8990 O.2    75  MET75      -0.2718
     67  CB        10.2320   -2.8530   20.0430 C.3    75  MET75       0.0401
     68  CG        11.3390   -2.9540   19.0790 C.3    75  MET75       0.0596
     69  SD        11.9220   -4.6170   18.8230 S.3    75  MET75      -0.1393
     70  CE        10.5220   -5.6740   18.6320 C.3    75  MET75       0.0692
     71  N          9.2540   -0.7130   21.9320 N.am   76  GLU76      -0.1966
     72  CA         7.9640   -0.1350   22.4010 C.3    76  GLU76       0.1733
     73  C          6.7370   -0.9240   21.9820 C.2    76  GLU76       0.2616
     74  O          6.6830   -1.4440   20.8520 O.2    76  GLU76      -0.2715
     75  CB         7.8230    1.3270   22.0290 C.3    76  GLU76       0.0429
     76  CG         7.6260    1.6590   20.5830 C.3    76  GLU76       0.1163
     77  CD         7.2290    3.1190   20.3140 C.2    76  GLU76       0.3649
     78  OE1        6.4700    3.7240   21.1210 O.co2  76  GLU76      -0.2457
     79  OE2        7.7090    3.6880   19.3000 O.co2  76  GLU76      -0.2457
     80  N          5.8460   -1.1670   22.9150 N.am   77  LEU77      -0.1963
     81  CA         4.6240   -1.8520   22.5960 C.3    77  LEU77       0.1728
     82  C          3.6400   -0.8350   22.0330 C.2    77  LEU77       0.2616
     83  O          3.4680    0.2390   22.5900 O.2    77  LEU77      -0.2715
     84  CB         4.0360   -2.5010   23.8170 C.3    77  LEU77       0.0311
     85  CG         2.7470   -3.2370   23.7030 C.3    77  LEU77       0.0022
     86  CD1        2.8780   -4.4980   22.8540 C.3    77  LEU77       0.0001
     87  CD2        2.3250   -3.6900   25.1150 C.3    77  LEU77       0.0001
     88  N          3.0020   -1.1490   20.9050 N.am   78  ALA78      -0.1963
     89  CA         2.0890   -0.1960   20.2740 C.3    78  ALA78       0.1728
     90  C          0.7490   -0.4190   20.8330 C.2    78  ALA78       0.2617
     91  O          0.0720   -1.3810   20.4980 O.2    78  ALA78      -0.2715
     92  CB         2.1020   -0.4290   18.7690 C.3    78  ALA78       0.0334
     93  N          0.2820    0.5240   21.6720 N.am   79  SER79      -0.1936
     94  CA        -0.9510    0.2620   22.4100 C.3    79  SER79       0.2055
     95  C         -2.1880    0.2480   21.5730 C.2    79  SER79       0.2644
     96  O         -3.1720   -0.3590   21.9320 O.2    79  SER79      -0.2714
     97  CB        -1.1270    1.2430   23.5900 C.3    79  SER79       0.2130
     98  OG        -1.3450    2.5440   23.1340 O.3    79  SER79      -0.2179
     99  N         -2.1250    0.8640   20.3900 N.am   80  GLY80      -0.1939
    100  CA        -3.1810    0.8030   19.4270 C.3    80  GLY80       0.2014
    101  C         -3.1560   -0.3690   18.4140 C.2    80  GLY80       0.2639
    102  O         -4.0880   -0.4570   17.6300 O.2    80  GLY80      -0.2714
    103  N         -2.1970   -1.3210   18.5540 N.am   81  GLY81      -0.1939
    104  CA        -2.1640   -2.4990   17.6850 C.3    81  GLY81       0.2014
    105  C         -1.7790   -2.0490   16.2870 C.2    81  GLY81       0.2639
    106  O         -1.0220   -1.0810   16.1110 O.2    81  GLY81      -0.2714
    107  N         -2.2150   -2.8160   15.3190 N.am   82  SER82      -0.1949
    108  CA        -1.7480   -2.5800   13.9150 C.3    82  SER82       0.1924
    109  C         -2.7960   -1.9240   13.0910 C.2    82  SER82       0.2314
    110  O         -4.0030   -2.0110   13.2660 O.2    82  SER82      -0.2863
    111  CB        -1.3050   -3.8560   13.1960 C.3    82  SER82       0.2116
    112  OG        -2.3970   -4.6990   13.0780 O.3    82  SER82      -0.2180
    113  N         -5.6910   -4.0790   11.6910 N.3    85  ASP85      -0.1239
    114  CA        -6.9130   -4.2100   12.4980 C.3    85  ASP85       0.1674
    115  C         -7.8430   -3.0320   12.4540 C.2    85  ASP85       0.2266
    116  O         -9.0170   -3.1380   12.8800 O.2    85  ASP85      -0.2867
    117  CB        -6.5040   -4.6380   13.9510 C.3    85  ASP85       0.1410
    118  CG        -6.0270   -6.0920   13.9990 C.2    85  ASP85       0.3668
    119  OD1       -6.5270   -6.9230   13.1980 O.co2  85  ASP85      -0.2456
    120  OD2       -5.2610   -6.4110   14.8740 O.co2  85  ASP85      -0.2456
    121  N          0.1310   -5.0350    8.4710 N.3   125  HIS125     -0.1226
    122  CA         0.6260   -5.7340    9.6590 C.3   125  HIS125      0.1752
    123  C          1.8700   -5.1470   10.3280 C.2   125  HIS125      0.2596
    124  O          2.1060   -5.3190   11.5530 O.2   125  HIS125     -0.2718
    125  CB         0.9280   -7.2180    9.3470 C.3   125  HIS125      0.0759
    126  CG        -0.2820   -8.0710    9.3520 C.ar  125  HIS125      0.0818
    127  ND1       -0.7060   -8.8000    8.2580 N.ar  125  HIS125     -0.2268
    128  CD2       -1.1490   -8.3470   10.3550 C.ar  125  HIS125      0.1154
    129  CE1       -1.8230   -9.4410    8.5780 C.ar  125  HIS125      0.1986
    130  NE2       -2.0930   -9.2030    9.8490 N.ar  125  HIS125     -0.2212
    131  N          2.6990   -4.4320    9.5670 N.am  126  ASN126     -0.1974
    132  CA         3.9490   -3.8670   10.0200 C.3   126  ASN126      0.1688
    133  C          3.7880   -2.3640   10.2690 C.2   126  ASN126      0.2292
    134  O          4.8130   -1.6860   10.5220 O.2   126  ASN126     -0.2864
    135  CB         5.0900   -4.0520    8.9850 C.3   126  ASN126      0.1181
    136  CG         5.5210   -5.5060    8.8780 C.2   126  ASN126      0.2629
    137  OD1        5.3190   -6.2620    9.8610 O.2   126  ASN126     -0.2716
    138  ND2        6.0950   -5.8960    7.7640 N.am  126  ASN126     -0.0877
    139  N          2.1050    0.2100   12.9030 N.3   128  LEU128     -0.1245
    140  CA         1.5800    0.0700   14.2740 C.3   128  LEU128      0.1561
    141  C          1.0400    1.4320   14.6880 C.2   128  LEU128      0.2260
    142  O          1.3570    2.4370   14.0590 O.2   128  LEU128     -0.2867
    143  CB         2.6660   -0.4220   15.1820 C.3   128  LEU128      0.0270
    144  CG         3.2650   -1.7930   14.8290 C.3   128  LEU128      0.0019
    145  CD1        4.3110   -2.1050   15.8700 C.3   128  LEU128      0.0001
    146  CD2        2.1950   -2.8550   14.7620 C.3   128  LEU128      0.0001
    147  N          7.2230   -0.6450   11.6870 N.3   138  ALA138     -0.1231
    148  CA         7.8880   -1.6900   12.4980 C.3   138  ALA138      0.1694
    149  C          8.3790   -2.8440   11.5620 C.2   138  ALA138      0.2592
    150  O          8.0570   -2.8530   10.3780 O.2   138  ALA138     -0.2718
    151  CB         6.8990   -2.1860   13.5270 C.3   138  ALA138      0.0304
    152  N          9.1640   -3.7430   12.1560 N.am  139  ASP139     -0.1974
    153  CA         9.6930   -4.9840   11.5790 C.3   139  ASP139      0.1709
    154  C         10.7780   -4.6190   10.5940 C.2   139  ASP139      0.2293
    155  O         10.4960   -4.3900    9.4060 O.2   139  ASP139     -0.2864
    156  CB         8.6540   -5.8990   10.9110 C.3   139  ASP139      0.1436
    157  CG         9.2960   -7.1950   10.3360 C.2   139  ASP139      0.3671
    158  OD1       10.4790   -7.4580   10.6780 O.co2 139  ASP139     -0.2456
    159  OD2        8.5520   -7.8850    9.5690 O.co2 139  ASP139     -0.2456
@<TRIPOS>BOND
     1   138   136   am
     2   127   129   ar
     3   127   126   ar
     4   121   122    1
     5   129   130   ar
     6   136   135    1
     7   136   137    2
     8   135   132    1
     9   125   126    1
    10   125   122    1
    11   126   128   ar
    12   155   154    2
    13   131   132    1
    14   131   123   am
    15   159   157   ar
    16   122   123    1
    17    34    33    2
    18   130   128   ar
    19    33    32    1
    20   132   133    1
    21   133   134    2
    22   123   124    2
    23   157   158   ar
    24   157   156    1
    25   150   149    2
    26   154   153    1
    27   156   153    1
    28    32    31    1
    29    25    24    2
    30    29    28   ar
    31   149   152   am
    32   149   148    1
    33   153   152    1
    34   147   148    1
    35   113   114    1
    36    31    24   am
    37    24    23    1
    38   115   114    1
    39   115   116    2
    40   114   117    1
    41   148   151    1
    42    26    23    1
    43    26    27    1
    44    28    30   ar
    45    28    27    1
    46   139   140    1
    47   112   111    1
    48   109   110    2
    49   109   108    1
    50    23    22    1
    51   111   108    1
    52   119   118   ar
    53    22    20   am
    54   108   107    1
    55   117   118    1
    56   118   120   ar
    57   142   141    2
    58   140   141    1
    59   140   143    1
    60   146   144    1
    61   144   143    1
    62   144   145    1
    63    55    56    1
    64    20    19    1
    65    20    21    2
    66    19    18    1
    67   107   105   am
    68    61    59    1
    69   106   105    2
    70    59    56    1
    71    59    60    1
    72   105   104    1
    73    56    57    1
    74    13    12    2
    75    58    57    2
    76    40    39    1
    77    18    12   am
    78    12    11    1
    79    35    36    1
    80    60    62    1
    81   102   101    2
    82   104   103    1
    83    39    41    1
    84    39    36    1
    85   101   103   am
    86   101   100    1
    87    36    37    1
    88    70    69    1
    89    11    14    1
    90    11    10    1
    91    92    89    1
    92    69    68    1
    93    68    67    1
    94    14    15    1
    95    79    77   ar
    96    38    37    2
    97   100    99    1
    98    67    64    1
    99    15    16    1
   100    15    17    1
   101    89    90    1
   102    89    88    1
   103    77    76    1
   104    77    78   ar
   105    99    95   am
   106    91    90    2
   107    76    75    1
   108    90    93   am
   109    74    73    2
   110    88    82   am
   111    54    51    1
   112    64    63    1
   113    64    65    1
   114    95    96    2
   115    95    94    1
   116    93    94    1
   117    71    65   am
   118    71    72    1
   119    73    72    1
   120    73    80   am
   121    75    72    1
   122    82    83    2
   123    82    81    1
   124    65    66    2
   125    94    97    1
   126    52    53    2
   127    52    51    1
   128    81    80    1
   129    81    84    1
   130    51    50    1
   131     3     4    2
   132     3     2    1
   133    86    85    1
   134     8     7    2
   135    98    97    1
   136    42    43    1
   137    85    84    1
   138    85    87    1
   139     6     7    1
   140     6     5    1
   141     7     9   am
   142     5     2    1
   143     2     1    1
   144    43    46    1
   145    43    44    1
   146    46    47    1
   147    48    47    1
   148    47    49    1
   149    44    45    2
