@<TRIPOS>MOLECULE
tmp/5opcA00.pdb
 133 125 0 0 0
SMALL
GASTEIGER

@<TRIPOS>ATOM
      1  N        -22.1320   11.5670   -0.6470 N.3   135  TYR135     -0.1241
      2  CA       -22.0060   12.5630   -1.7070 C.3   135  TYR135      0.1605
      3  C        -20.9310   13.5550   -1.2890 C.2   135  TYR135      0.2264
      4  O        -21.1130   14.2850   -0.3100 O.2   135  TYR135     -0.2867
      5  CB       -23.3400   13.2650   -1.9510 C.3   135  TYR135      0.0534
      6  CG       -23.5990   13.6340   -3.3940 C.ar  135  TYR135     -0.0201
      7  CD1      -22.5540   13.9440   -4.2560 C.ar  135  TYR135     -0.0009
      8  CD2      -24.8970   13.6700   -3.8980 C.ar  135  TYR135     -0.0009
      9  CE1      -22.7920   14.2780   -5.5790 C.ar  135  TYR135      0.0417
     10  CE2      -25.1440   14.0020   -5.2160 C.ar  135  TYR135      0.0417
     11  CZ       -24.0870   14.3050   -6.0520 C.ar  135  TYR135      0.1957
     12  OH       -24.3260   14.6380   -7.3640 O.3   135  TYR135     -0.2866
     13  N        -18.9200   16.9390   -1.8700 N.3   137  GLN137     -0.1245
     14  CA       -19.1830   18.2450   -2.4860 C.3   137  GLN137      0.1566
     15  C        -18.2080   19.2390   -1.8580 C.2   137  GLN137      0.2260
     16  O        -18.4820   19.8000   -0.7940 O.2   137  GLN137     -0.2867
     17  CB       -20.6310   18.6750   -2.2830 C.3   137  GLN137      0.0367
     18  CG       -21.6620   17.6120   -2.6410 C.3   137  GLN137      0.0905
     19  CD       -23.0900   18.0940   -2.4440 C.2   137  GLN137      0.2608
     20  OE1      -23.3270   19.2650   -2.1460 O.2   137  GLN137     -0.2717
     21  NE2      -24.0490   17.1900   -2.6080 N.am  137  GLN137     -0.0878
     22  N        -17.0770   23.8580   -7.8780 N.3   176  LEU176     -0.1245
     23  CA       -17.4100   22.8130   -6.9200 C.3   176  LEU176      0.1561
     24  C        -17.1910   21.4470   -7.5570 C.2   176  LEU176      0.2260
     25  O        -17.5920   21.2210   -8.7030 O.2   176  LEU176     -0.2867
     26  CB       -18.8600   22.9650   -6.4510 C.3   176  LEU176      0.0270
     27  CG       -19.3680   22.0260   -5.3560 C.3   176  LEU176      0.0019
     28  CD1      -18.6580   22.2910   -4.0450 C.3   176  LEU176      0.0001
     29  CD2      -20.8770   22.1730   -5.1830 C.3   176  LEU176      0.0001
     30  N        -18.0680   17.4850   -7.4430 N.3   178  LEU178     -0.1245
     31  CA       -19.1630   16.6300   -7.0010 C.3   178  LEU178      0.1561
     32  C        -18.8300   15.1810   -7.3210 C.2   178  LEU178      0.2260
     33  O        -18.6190   14.8320   -8.4870 O.2   178  LEU178     -0.2867
     34  CB       -20.4730   17.0330   -7.6780 C.3   178  LEU178      0.0270
     35  CG       -21.4570   17.8460   -6.8380 C.3   178  LEU178      0.0019
     36  CD1      -20.8010   19.0890   -6.2690 C.3   178  LEU178      0.0001
     37  CD2      -22.6540   18.2180   -7.6920 C.3   178  LEU178      0.0001
     38  N        -30.2060   14.8110   -6.4110 N.3   186  THR186     -0.1218
     39  CA       -30.2360   16.1570   -5.8600 C.3   186  THR186      0.1862
     40  C        -31.5820   16.7680   -6.2240 C.2   186  THR186      0.2287
     41  O        -31.8130   17.0550   -7.4080 O.2   186  THR186     -0.2866
     42  CB       -29.0880   17.0010   -6.4140 C.3   186  THR186      0.1770
     43  OG1      -27.8410   16.4160   -6.0150 O.3   186  THR186     -0.2211
     44  CG2      -29.1570   18.4270   -5.8850 C.3   186  THR186      0.0375
     45  N        -34.2850   22.2940   -7.4370 N.3   189  HIS189     -0.1241
     46  CA       -33.9820   23.5750   -6.8210 C.3   189  HIS189      0.1621
     47  C        -33.5140   24.5240   -7.9120 C.2   189  HIS189      0.2264
     48  O        -33.1960   24.1060   -9.0280 O.2   189  HIS189     -0.2867
     49  CB       -32.9140   23.4320   -5.7380 C.3   189  HIS189      0.0745
     50  CG       -31.5590   23.1080   -6.2780 C.ar  189  HIS189      0.0817
     51  ND1      -31.2000   21.8360   -6.6630 N.ar  189  HIS189     -0.2268
     52  CD2      -30.4800   23.8910   -6.5080 C.ar  189  HIS189      0.1154
     53  CE1      -29.9530   21.8460   -7.1000 C.ar  189  HIS189      0.1986
     54  NE2      -29.4920   23.0810   -7.0130 N.ar  189  HIS189     -0.2212
     55  N        -30.8650   28.0750   -8.5740 N.3   191  ASP191     -0.1239
     56  CA       -29.7560   28.8830   -8.0990 C.3   191  ASP191      0.1674
     57  C        -29.8880   30.2820   -8.6800 C.2   191  ASP191      0.2266
     58  O        -30.5560   30.4950   -9.6960 O.2   191  ASP191     -0.2867
     59  CB       -28.4000   28.2750   -8.4980 C.3   191  ASP191      0.1410
     60  CG       -28.1900   26.8860   -7.9220 C.2   191  ASP191      0.3668
     61  OD1      -28.2820   26.7250   -6.6870 O.co2 191  ASP191     -0.2456
     62  OD2      -27.9480   25.9460   -8.7080 O.co2 191  ASP191     -0.2456
     63  N        -22.1580   23.1200  -16.1060 N.3   197  PHE197     -0.1241
     64  CA       -22.1870   21.8300  -15.4250 C.3   197  PHE197      0.1605
     65  C        -21.3610   20.8570  -16.2670 C.2   197  PHE197      0.2264
     66  O        -21.8170   20.3850  -17.3120 O.2   197  PHE197     -0.2867
     67  CB       -23.6470   21.4080  -15.2670 C.3   197  PHE197      0.0534
     68  CG       -23.8570   20.0560  -14.6620 C.ar  197  PHE197     -0.0203
     69  CD1      -23.7200   18.9090  -15.4240 C.ar  197  PHE197     -0.0042
     70  CD2      -24.2700   19.9320  -13.3480 C.ar  197  PHE197     -0.0042
     71  CE1      -23.9470   17.6640  -14.8720 C.ar  197  PHE197     -0.0003
     72  CE2      -24.5000   18.6890  -12.7950 C.ar  197  PHE197     -0.0003
     73  CZ       -24.3400   17.5550  -13.5600 C.ar  197  PHE197     -0.0000
     74  N        -25.3660   11.5060  -15.7250 N.3   204  LYS204     -0.1245
     75  CA       -26.3540   12.1470  -14.8710 C.3   204  LYS204      0.1561
     76  C        -27.5400   12.5760  -15.7160 C.2   204  LYS204      0.2260
     77  O        -27.3650   13.1570  -16.7930 O.2   204  LYS204     -0.2867
     78  CB       -25.7720   13.3630  -14.1460 C.3   204  LYS204      0.0271
     79  CG       -25.0180   13.0270  -12.8740 C.3   204  LYS204      0.0035
     80  CD       -24.4930   14.2830  -12.2050 C.3   204  LYS204      0.0206
     81  CE       -23.9780   13.9940  -10.8160 C.3   204  LYS204      0.1093
     82  NZ       -23.3140   15.1870  -10.2420 N.3   204  LYS204     -0.1314
     83  N        -35.0730   27.6470   -1.7020 N.3   228  ARG228     -0.1245
     84  CA       -34.7570   27.4650   -3.1270 C.3   228  ARG228      0.1563
     85  C        -35.0470   26.0470   -3.6080 C.2   228  ARG228      0.2260
     86  O        -34.9260   25.7870   -4.8130 O.2   228  ARG228     -0.2867
     87  CB       -33.3010   27.8200   -3.4800 C.3   228  ARG228      0.0307
     88  CG       -32.9610   29.2850   -3.2410 C.3   228  ARG228      0.0489
     89  CD       -31.5800   29.6470   -3.7660 C.3   228  ARG228      0.2205
     90  NE       -30.5210   29.2390   -2.8400 N.pl3 228  ARG228     -0.0865
     91  CZ       -29.6660   28.2390   -3.0410 C.cat 228  ARG228      0.5346
     92  NH1      -29.7140   27.5080   -4.1480 N.pl3 228  ARG228      0.1354
     93  NH2      -28.7440   27.9700   -2.1230 N.pl3 228  ARG228      0.1354
     94  N        -33.4620   22.7990  -11.4700 N.3   269  HIS269     -0.1241
     95  CA       -32.8280   21.5910  -11.9700 C.3   269  HIS269      0.1621
     96  C        -32.9620   20.4820  -10.9400 C.2   269  HIS269      0.2264
     97  O        -32.8480   20.7130   -9.7340 O.2   269  HIS269     -0.2867
     98  CB       -31.3470   21.8060  -12.3380 C.3   269  HIS269      0.0745
     99  CG       -30.6300   22.7820  -11.4640 C.ar  269  HIS269      0.0817
    100  ND1      -30.9330   24.1260  -11.4440 N.ar  269  HIS269     -0.2268
    101  CD2      -29.5960   22.6150  -10.6070 C.ar  269  HIS269      0.1154
    102  CE1      -30.1330   24.7420  -10.5910 C.ar  269  HIS269      0.1986
    103  NE2      -29.3110   23.8480  -10.0720 N.ar  269  HIS269     -0.2212
    104  N        -31.3730   16.5810  -10.5360 N.3   271  ILE271     -0.1245
    105  CA       -30.2080   15.8720  -11.0590 C.3   271  ILE271      0.1561
    106  C        -30.0720   14.5400  -10.3370 C.2   271  ILE271      0.2260
    107  O        -30.0690   14.4970   -9.1020 O.2   271  ILE271     -0.2867
    108  CB       -28.9220   16.7110  -10.9030 C.3   271  ILE271      0.0252
    109  CG1      -29.0410   18.0000  -11.7220 C.3   271  ILE271      0.0019
    110  CG2      -27.7030   15.9150  -11.3610 C.3   271  ILE271      0.0019
    111  CD1      -27.9610   19.0110  -11.4480 C.3   271  ILE271      0.0001
    112  N        -18.7480   21.9930  -11.3400 N.3   284  ASN284     -0.1240
    113  CA       -19.6450   23.0880  -11.6670 C.3   284  ASN284      0.1653
    114  C        -18.8930   24.4070  -11.6270 C.2   284  ASN284      0.2266
    115  O        -17.9680   24.5910  -10.8350 O.2   284  ASN284     -0.2867
    116  CB       -20.8270   23.1530  -10.7000 C.3   284  ASN284      0.1155
    117  CG       -21.8910   22.1400  -11.0200 C.2   284  ASN284      0.2627
    118  OD1      -22.5350   22.2120  -12.0670 O.2   284  ASN284     -0.2716
    119  ND2      -22.0930   21.1890  -10.1160 N.am  284  ASN284     -0.0877
    120  N        -19.8550   28.5420  -11.4430 N.3   286  TRP286     -0.1241
    121  CA       -20.9040   29.5280  -11.2190 C.3   286  TRP286      0.1605
    122  C        -20.3770   30.9290  -11.4880 C.2   286  TRP286      0.2264
    123  O        -19.2770   31.2880  -11.0520 O.2   286  TRP286     -0.2867
    124  CB       -21.4590   29.4460   -9.7950 C.3   286  TRP286      0.0550
    125  CG       -22.3940   28.3060   -9.5920 C.ar  286  TRP286      0.0003
    126  CD1      -23.7150   28.2510   -9.9420 C.ar  286  TRP286      0.0946
    127  CD2      -22.0870   27.0480   -8.9860 C.ar  286  TRP286      0.0152
    128  NE1      -24.2470   27.0360   -9.5900 N.ar  286  TRP286     -0.2442
    129  CE2      -23.2680   26.2790   -9.0010 C.ar  286  TRP286      0.0810
    130  CE3      -20.9280   26.4980   -8.4290 C.ar  286  TRP286      0.0012
    131  CZ2      -23.3220   24.9890   -8.4850 C.ar  286  TRP286      0.0191
    132  CZ3      -20.9850   25.2180   -7.9150 C.ar  286  TRP286      0.0001
    133  CH2      -22.1760   24.4780   -7.9450 C.ar  286  TRP286      0.0015
@<TRIPOS>BOND
     1    66    65    2
     2    77    76    2
     3    65    64    1
     4    63    64    1
     5    74    75    1
     6    76    75    1
     7    64    67    1
     8    69    71   ar
     9    69    68   ar
    10    67    68    1
    11    71    73   ar
    12    75    78    1
    13    68    70   ar
    14    78    79    1
    15    73    72   ar
    16    70    72   ar
    17    79    80    1
    18    98    95    1
    19    98    99    1
    20    80    81    1
    21   118   117    2
    22    95    94    1
    23    95    96    1
    24   109   111    1
    25   109   108    1
    26   113   114    1
    27   113   112    1
    28   113   116    1
    29   114   115    2
    30   122   121    1
    31   122   123    2
    32    99   100   ar
    33    99   101   ar
    34   100   102   ar
    35   120   121    1
    36   110   108    1
    37   121   124    1
    38   105   108    1
    39   105   104    1
    40   105   106    1
    41   117   116    1
    42   117   119   am
    43    96    97    2
    44    81    82    1
    45   101   103   ar
    46   102   103   ar
    47   106   107    2
    48   126   125   ar
    49   126   128   ar
    50   124   125    1
    51    58    57    2
    52   125   127   ar
    53   128   129   ar
    54    48    47    2
    55   129   127   ar
    56   129   131   ar
    57   127   130   ar
    58    62    60   ar
    59    25    24    2
    60    57    56    1
    61    55    56    1
    62    59    56    1
    63    59    60    1
    64    33    32    2
    65   131   133   ar
    66   130   132   ar
    67   133   132   ar
    68    60    61   ar
    69    47    46    1
    70    22    23    1
    71    37    35    1
    72    34    31    1
    73    34    35    1
    74    24    23    1
    75    30    31    1
    76    45    46    1
    77    41    40    2
    78    12    11    1
    79    32    31    1
    80    53    54   ar
    81    53    51   ar
    82    54    52   ar
    83    23    26    1
    84    35    36    1
    85    46    49    1
    86    51    50   ar
    87    52    50   ar
    88    26    27    1
    89    42    43    1
    90    42    44    1
    91    42    39    1
    92    38    39    1
    93    50    49    1
    94    40    39    1
    95    11     9   ar
    96    11    10   ar
    97     9     7   ar
    98    27    29    1
    99    27    28    1
   100    10     8   ar
   101    86    85    2
   102     7     6   ar
   103    92    91    1
   104     8     6   ar
   105    89    88    1
   106    89    90    1
   107    85    84    1
   108    87    88    1
   109    87    84    1
   110     6     5    1
   111    84    83    1
   112    91    90    2
   113    91    93    1
   114    18    19    1
   115    18    17    1
   116    21    19   am
   117    14    17    1
   118    14    13    1
   119    14    15    1
   120    19    20    2
   121     5     2    1
   122    15    16    2
   123     2     3    1
   124     2     1    1
   125     3     4    2
