@<TRIPOS>MOLECULE
tmp/5opdA00.pdb
 136 132 0 0 0
SMALL
GASTEIGER

@<TRIPOS>ATOM
      1  N         18.8950   10.3250   75.8230 N.3    11  VAL11      -0.1231
      2  CA        19.6820    9.0920   75.7560 C.3    11  VAL11       0.1692
      3  C         19.0210    7.9790   76.6040 C.2    11  VAL11       0.2592
      4  O         18.5280    8.2610   77.6960 O.2    11  VAL11      -0.2718
      5  CB        21.1770    9.3620   76.1130 C.3    11  VAL11       0.0266
      6  CG1       21.3610    9.8200   77.5580 C.3    11  VAL11       0.0020
      7  CG2       22.0580    8.1600   75.8060 C.3    11  VAL11       0.0020
      8  N         18.9430    6.7490   76.0640 N.am   12  ASP12      -0.1960
      9  CA        18.3470    5.5760   76.7060 C.3    12  ASP12       0.1840
     10  C         16.8050    5.6290   76.8740 C.2    12  ASP12       0.2622
     11  O         16.2520    4.7150   77.4910 O.2    12  ASP12      -0.2715
     12  CB        19.0310    5.2610   78.0520 C.3    12  ASP12       0.1450
     13  CG        20.2500    4.3750   77.9110 C.2    12  ASP12       0.3671
     14  OD1       21.3210    4.8940   77.5210 O.co2  12  ASP12      -0.2456
     15  OD2       20.1360    3.1590   78.1960 O.co2  12  ASP12      -0.2456
     16  N         16.1020    6.6260   76.2900 N.am   13  HIS13      -0.1959
     17  CA        14.6360    6.7220   76.4410 C.3    13  HIS13       0.1787
     18  C         13.8410    5.7920   75.4790 C.2    13  HIS13       0.2621
     19  O         12.6060    5.7080   75.5770 O.2    13  HIS13      -0.2715
     20  CB        14.1450    8.1820   76.3740 C.3    13  HIS13       0.0785
     21  CG        14.1830    8.8940   77.7030 C.ar   13  HIS13       0.0821
     22  ND1       13.3160    9.9380   77.9890 N.ar   13  HIS13      -0.2267
     23  CD2       14.9790    8.6880   78.7820 C.ar   13  HIS13       0.1154
     24  CE1       13.6230   10.3370   79.2150 C.ar   13  HIS13       0.1986
     25  NE2       14.6140    9.6140   79.7320 N.ar   13  HIS13      -0.2212
     26  N         14.5640    5.0710   74.6170 N.am   14  GLY14      -0.1940
     27  CA        13.9850    4.1020   73.6970 C.3    14  GLY14       0.2014
     28  C         13.7390    4.5970   72.2930 C.2    14  GLY14       0.2639
     29  O         12.7620    4.1730   71.6660 O.2    14  GLY14      -0.2714
     30  N         14.6330    5.4670   71.7690 N.am   15  LYS15      -0.1963
     31  CA        14.4710    5.9990   70.4110 C.3    15  LYS15       0.1728
     32  C         14.7300    4.9210   69.3560 C.2    15  LYS15       0.2617
     33  O         13.8810    4.7060   68.4870 O.2    15  LYS15      -0.2715
     34  CB        15.3640    7.2250   70.1560 C.3    15  LYS15       0.0311
     35  CG        15.1560    8.4160   71.0990 C.3    15  LYS15       0.0038
     36  CD        16.0810    9.5880   70.7390 C.3    15  LYS15       0.0206
     37  CE        17.5620    9.3120   70.9430 C.3    15  LYS15       0.1093
     38  NZ        17.9540    9.2640   72.3690 N.3    15  LYS15      -0.1314
     39  N         15.8870    4.2330   69.4460 N.am   16  THR16      -0.1937
     40  CA        16.2720    3.1490   68.5260 C.3    16  THR16       0.2028
     41  C         15.2630    2.0020   68.5510 C.2    16  THR16       0.2642
     42  O         14.8760    1.5120   67.4880 O.2    16  THR16      -0.2714
     43  CB        17.7030    2.6880   68.8010 C.3    16  THR16       0.1808
     44  OG1       18.5470    3.8420   68.9000 O.3    16  THR16      -0.2208
     45  CG2       18.2390    1.7350   67.7360 C.3    16  THR16       0.0379
     46  N         14.8110    1.6120   69.7610 N.am   17  THR17      -0.1950
     47  CA        13.8270    0.5420   69.9640 C.3    17  THR17       0.1897
     48  C         12.5360    0.8780   69.2130 C.2    17  THR17       0.2313
     49  O         11.9650    0.0000   68.5720 O.2    17  THR17      -0.2863
     50  CB        13.6130    0.2690   71.4680 C.3    17  THR17       0.1794
     51  OG1       14.8610   -0.0420   72.0700 O.3    17  THR17      -0.2208
     52  CG2       12.6710   -0.8860   71.7300 C.3    17  THR17       0.0378
     53  N         17.2050   -3.5910   66.1790 N.3    36  PHE36      -0.1241
     54  CA        18.0350   -2.7380   67.0320 C.3    36  PHE36       0.1605
     55  C         19.5130   -2.6520   66.5960 C.2    36  PHE36       0.2264
     56  O         20.0010   -1.5410   66.3890 O.2    36  PHE36      -0.2867
     57  CB        17.9070   -3.1810   68.4990 C.3    36  PHE36       0.0534
     58  CG        18.5690   -2.2790   69.5120 C.ar   36  PHE36      -0.0203
     59  CD1       17.8830   -1.2010   70.0620 C.ar   36  PHE36      -0.0042
     60  CD2       19.8690   -2.5270   69.9450 C.ar   36  PHE36      -0.0042
     61  CE1       18.4950   -0.3760   71.0110 C.ar   36  PHE36      -0.0003
     62  CE2       20.4800   -1.6980   70.8920 C.ar   36  PHE36      -0.0003
     63  CZ        19.7870   -0.6370   71.4270 C.ar   36  PHE36      -0.0000
     64  N         21.1440    0.8980   65.7720 N.3    40  ASP40      -0.1239
     65  CA        22.0680    1.3580   66.8170 C.3    40  ASP40       0.1674
     66  C         23.4360    1.6820   66.1910 C.2    40  ASP40       0.2266
     67  O         24.0070    2.7380   66.4760 O.2    40  ASP40      -0.2867
     68  CB        22.1870    0.3240   67.9430 C.3    40  ASP40       0.1410
     69  CG        22.9210    0.8440   69.1550 C.2    40  ASP40       0.3668
     70  OD1       22.2880    1.5410   69.9760 O.co2  40  ASP40      -0.2456
     71  OD2       24.1240    0.5440   69.2900 O.co2  40  ASP40      -0.2456
     72  N         19.7220    8.8880   65.6080 N.3    66  CYS66      -0.1221
     73  CA        21.1220    9.0900   65.9940 C.3    66  CYS66       0.1794
     74  C         21.4760    8.5120   67.3770 C.2    66  CYS66       0.2443
     75  O         20.6260    8.5110   68.2780 O.2    66  CYS66      -0.2733
     76  CB        21.4860   10.5670   65.8990 C.3    66  CYS66       0.0970
     77  SG        21.1830   11.3000   64.2710 S.3    66  CYS66      -0.0800
     78  N         22.7490    8.0720   67.5680 N.am   67  PRO67      -0.2729
     79  CA        23.1490    7.4680   68.8540 C.3    67  PRO67       0.1401
     80  C         23.1690    8.3760   70.0930 C.2    67  PRO67       0.2269
     81  O         22.8230    7.9020   71.1810 O.2    67  PRO67      -0.2865
     82  CB        24.5510    6.9180   68.5600 C.3    67  PRO67       0.0296
     83  CG        24.6160    6.8070   67.0790 C.3    67  PRO67       0.0237
     84  CD        23.8480    7.9740   66.5900 C.3    67  PRO67       0.0939
     85  N          7.0090    6.1630   75.9540 N.3   120  ASN120     -0.1225
     86  CA         7.5660    4.8220   76.0310 C.3   120  ASN120      0.1785
     87  C          7.7010    4.3110   77.4680 C.2   120  ASN120      0.2597
     88  O          7.4570    5.0580   78.4220 O.2   120  ASN120     -0.2718
     89  CB         8.9120    4.8200   75.3400 C.3   120  ASN120      0.1169
     90  CG         9.3360    3.4750   74.8680 C.2   120  ASN120      0.2627
     91  OD1        8.5130    2.6150   74.5940 O.2   120  ASN120     -0.2716
     92  ND2       10.6370    3.2600   74.8140 N.am  120  ASN120     -0.0877
     93  N          8.0720    3.0180   77.6000 N.am  121  LYS121     -0.1980
     94  CA         8.3070    2.2570   78.8370 C.3   121  LYS121      0.1596
     95  C          7.0840    2.2250   79.7410 C.2   121  LYS121      0.2287
     96  O          7.2240    2.3600   80.9530 O.2   121  LYS121     -0.2864
     97  CB         9.5760    2.7390   79.5820 C.3   121  LYS121      0.0298
     98  CG        10.8340    2.6900   78.7200 C.3   121  LYS121      0.0038
     99  CD        12.0950    3.1470   79.4370 C.3   121  LYS121      0.0206
    100  CE        13.2900    2.8420   78.5600 C.3   121  LYS121      0.1093
    101  NZ        14.5670    3.2890   79.1590 N.3   121  LYS121     -0.1314
    102  N          5.1260   -0.4010   79.9400 N.3   123  ASP123     -0.1225
    103  CA         5.1610   -1.7840   80.4090 C.3   123  ASP123      0.1805
    104  C          5.7530   -1.8060   81.8340 C.2   123  ASP123      0.2597
    105  O          5.4330   -2.6870   82.6260 O.2   123  ASP123     -0.2718
    106  CB         6.0180   -2.6430   79.4430 C.3   123  ASP123      0.1424
    107  CG         7.4940   -2.2550   79.3440 C.2   123  ASP123      0.3668
    108  OD1        7.7850   -1.1380   78.8870 O.co2 123  ASP123     -0.2456
    109  OD2        8.3490   -3.0800   79.7090 O.co2 123  ASP123     -0.2456
    110  N          6.5940   -0.8090   82.1450 N.am  124  MET124     -0.1979
    111  CA         7.2800   -0.6340   83.4230 C.3   124  MET124      0.1605
    112  C          6.5540    0.3230   84.4010 C.2   124  MET124      0.2287
    113  O          7.0160    0.5050   85.5280 O.2   124  MET124     -0.2864
    114  CB         8.7380   -0.2010   83.1790 C.3   124  MET124      0.0413
    115  CG         9.5790   -1.2870   82.5300 C.3   124  MET124      0.0598
    116  SD        10.0110   -2.6170   83.6890 S.3   124  MET124     -0.1393
    117  CE        10.0610   -4.0330   82.5570 C.3   124  MET124      0.0692
    118  N          4.8870    0.9850   74.6410 N.3   158  SER158     -0.1202
    119  CA         6.1020    0.2330   74.9110 C.3   158  SER158      0.2020
    120  C          6.6220   -0.1800   73.5440 C.2   158  SER158      0.2619
    121  O          5.9670   -0.9400   72.8220 O.2   158  SER158     -0.2717
    122  CB         5.8100   -0.9990   75.7730 C.3   158  SER158      0.2103
    123  OG         6.9090   -1.8980   75.7930 O.3   158  SER158     -0.2182
    124  N          7.7690    0.3750   73.1740 N.am  159  ALA159     -0.1965
    125  CA         8.4430    0.1210   71.9120 C.3   159  ALA159      0.1728
    126  C          9.0100   -1.2910   71.9120 C.2   159  ALA159      0.2616
    127  O          8.8710   -1.9760   70.8970 O.2   159  ALA159     -0.2715
    128  CB         9.5530    1.1390   71.7010 C.3   159  ALA159      0.0334
    129  N          9.5990   -1.7410   73.0620 N.am  160  LEU160     -0.1977
    130  CA        10.1940   -3.0720   73.2620 C.3   160  LEU160      0.1596
    131  C          9.1660   -4.1980   73.2920 C.2   160  LEU160      0.2287
    132  O          9.3380   -5.1640   72.5550 O.2   160  LEU160     -0.2864
    133  CB        11.0940   -3.0960   74.5120 C.3   160  LEU160      0.0297
    134  CG        11.7390   -4.4200   74.9240 C.3   160  LEU160      0.0022
    135  CD1       12.7170   -4.9360   73.8710 C.3   160  LEU160      0.0001
    136  CD2       12.4470   -4.2690   76.2420 C.3   160  LEU160      0.0001
@<TRIPOS>BOND
     1    77    76    1
     2    72    73    1
     3    64    65    1
     4    76    73    1
     5    73    74    1
     6    53    54    1
     7    66    67    2
     8    66    65    1
     9    56    55    2
    10    84    83    1
    11    84    78    1
    12    55    54    1
    13    65    68    1
    14    54    57    1
    15    83    82    1
    16    74    78   am
    17    74    75    2
    18    42    41    2
    19    78    79    1
    20    45    43    1
    21    68    69    1
    22    33    32    2
    23    57    58    1
    24    40    41    1
    25    40    43    1
    26    40    39    1
    27    41    46   am
    28    82    79    1
    29    49    48    2
    30    43    44    1
    31    79    80    1
    32    69    71   ar
    33    69    70   ar
    34    48    47    1
    35    32    39   am
    36    32    31    1
    37    58    60   ar
    38    58    59   ar
    39    46    47    1
    40    60    62   ar
    41    47    50    1
    42    59    61   ar
    43    80    81    2
    44    34    31    1
    45    34    35    1
    46    31    30    1
    47    36    37    1
    48    36    35    1
    49    62    63   ar
    50   127   126    2
    51    37    38    1
    52    61    63   ar
    53    50    52    1
    54    50    51    1
    55    29    28    2
    56   128   125    1
    57    30    28   am
    58   125   126    1
    59   125   124    1
    60   126   129   am
    61    28    27    1
    62   132   131    2
    63   121   120    2
    64   129   130    1
    65   124   120   am
    66   130   131    1
    67   130   133    1
    68   120   119    1
    69    27    26    1
    70   135   134    1
    71   133   134    1
    72    91    90    2
    73    26    18   am
    74   118   119    1
    75    92    90   am
    76    90    89    1
    77   119   122    1
    78   134   136    1
    79    89    86    1
    80    18    19    2
    81    18    17    1
    82     2     1    1
    83     2     5    1
    84     2     3    1
    85   122   123    1
    86     7     5    1
    87    85    86    1
    88    86    87    1
    89     8     3   am
    90     8     9    1
    91     5     6    1
    92    16    17    1
    93    16    10   am
    94    20    17    1
    95    20    21    1
    96     3     4    2
    97     9    10    1
    98     9    12    1
    99    10    11    2
   100    87    93   am
   101    87    88    2
   102    14    13   ar
   103    93    94    1
   104    21    22   ar
   105    21    23   ar
   106    13    12    1
   107    13    15   ar
   108    22    24   ar
   109   100   101    1
   110   100    99    1
   111    98    99    1
   112    98    97    1
   113    23    25   ar
   114    94    97    1
   115    94    95    1
   116   108   107   ar
   117    24    25   ar
   118   107   106    1
   119   107   109   ar
   120   106   103    1
   121    95    96    2
   122   102   103    1
   123   103   104    1
   124   104   110   am
   125   104   105    2
   126   110   111    1
   127   115   114    1
   128   115   116    1
   129   117   116    1
   130   114   111    1
   131   111   112    1
   132   112   113    2
