@<TRIPOS>MOLECULE
tmp/5opgA00.pdb
 90 92 0 0 0
SMALL
GASTEIGER

@<TRIPOS>ATOM
      1  N         18.9440   29.0950   57.1990 N.3    28  PRO28      -0.2116
      2  CA        19.4890   29.3740   58.5330 C.3    28  PRO28       0.1372
      3  C         20.5300   30.4830   58.5070 C.2    28  PRO28       0.2244
      4  O         21.3540   30.5720   57.5940 O.2    28  PRO28      -0.2868
      5  CB        20.1150   28.0360   58.9490 C.3    28  PRO28       0.0268
      6  CG        19.4730   27.0140   58.0700 C.3    28  PRO28       0.0207
      7  CD        19.2180   27.7120   56.7730 C.3    28  PRO28       0.0892
      8  N         21.5380   26.4810   76.1990 N.3    62  TRP62      -0.1241
      9  CA        22.2910   25.4420   76.8830 C.3    62  TRP62       0.1605
     10  C         23.7160   25.4150   76.3500 C.2    62  TRP62       0.2264
     11  O         23.9810   25.8330   75.2180 O.2    62  TRP62      -0.2867
     12  CB        21.6340   24.0570   76.7340 C.3    62  TRP62       0.0550
     13  CG        21.7120   23.4450   75.3640 C.ar   62  TRP62       0.0003
     14  CD1       20.7740   23.5250   74.3760 C.ar   62  TRP62       0.0946
     15  CD2       22.7740   22.6330   74.8440 C.ar   62  TRP62       0.0152
     16  NE1       21.1890   22.8240   73.2700 N.ar   62  TRP62      -0.2442
     17  CE2       22.4140   22.2680   73.5300 C.ar   62  TRP62       0.0810
     18  CE3       23.9950   22.1850   75.3580 C.ar   62  TRP62       0.0012
     19  CZ2       23.2310   21.4760   72.7240 C.ar   62  TRP62       0.0191
     20  CZ3       24.8060   21.3990   74.5560 C.ar   62  TRP62       0.0001
     21  CH2       24.4210   21.0530   73.2540 C.ar   62  TRP62       0.0015
     22  N         18.5350   26.2760   66.5330 N.3   114  ASN114     -0.1225
     23  CA        19.2820   25.4130   67.4280 C.3   114  ASN114      0.1785
     24  C         20.2420   26.2930   68.2360 C.2   114  ASN114      0.2598
     25  O         20.0190   27.5000   68.3780 O.2   114  ASN114     -0.2718
     26  CB        19.9720   24.2830   66.6420 C.3   114  ASN114      0.1169
     27  CG        21.0640   24.7730   65.6960 C.2   114  ASN114      0.2627
     28  OD1       21.4110   25.9530   65.6550 O.2   114  ASN114     -0.2716
     29  ND2       21.6150   23.8380   64.9290 N.am  114  ASN114     -0.0877
     30  N         21.3160   25.7050   68.7610 N.am  115  SER115     -0.1938
     31  CA        22.2180   26.4710   69.6130 C.3   115  SER115      0.2055
     32  C         23.0050   27.5280   68.8460 C.2   115  SER115      0.2644
     33  O         23.4700   28.4940   69.4600 O.2   115  SER115     -0.2714
     34  CB        23.1850   25.5320   70.3370 C.3   115  SER115      0.2130
     35  OG        22.5090   24.7680   71.3200 O.3   115  SER115     -0.2179
     36  N         23.1590   27.3810   67.5290 N.am  116  THR116     -0.1936
     37  CA        24.0410   28.2590   66.7660 C.3   116  THR116      0.2028
     38  C         23.3980   28.9420   65.5650 C.2   116  THR116      0.2642
     39  O         23.9010   29.9920   65.1480 O.2   116  THR116     -0.2714
     40  CB        25.2750   27.4840   66.2760 C.3   116  THR116      0.1808
     41  OG1       24.8530   26.3310   65.5370 O.3   116  THR116     -0.2208
     42  CG2       26.1320   27.0410   67.4540 C.3   116  THR116      0.0379
     43  N         22.3280   28.3990   64.9910 N.am  117  PHE117     -0.1973
     44  CA        21.7280   28.9690   63.7930 C.3   117  PHE117      0.1639
     45  C         20.2160   29.0440   63.9480 C.2   117  PHE117      0.2290
     46  O         19.6120   28.2980   64.7230 O.2   117  PHE117     -0.2864
     47  CB        22.0940   28.1590   62.5420 C.3   117  PHE117      0.0560
     48  CG        23.5070   28.3680   62.0790 C.ar  117  PHE117     -0.0200
     49  CD1       24.5380   27.5950   62.5840 C.ar  117  PHE117     -0.0042
     50  CD2       23.8040   29.3430   61.1420 C.ar  117  PHE117     -0.0042
     51  CE1       25.8400   27.7890   62.1610 C.ar  117  PHE117     -0.0003
     52  CE2       25.1030   29.5420   60.7140 C.ar  117  PHE117     -0.0003
     53  CZ        26.1220   28.7640   61.2240 C.ar  117  PHE117     -0.0000
     54  N         18.6120   19.8180   72.6640 N.3   279  TYR279     -0.1227
     55  CA        18.7380   18.9280   71.5220 C.3   279  TYR279      0.1736
     56  C         19.8530   19.4060   70.6060 C.2   279  TYR279      0.2596
     57  O         20.2970   20.5560   70.6690 O.2   279  TYR279     -0.2718
     58  CB        17.4230   18.8250   70.7300 C.3   279  TYR279      0.0548
     59  CG        17.0640   20.0660   69.9360 C.ar  279  TYR279     -0.0200
     60  CD1       16.3050   21.0820   70.5030 C.ar  279  TYR279     -0.0009
     61  CD2       17.4740   20.2150   68.6160 C.ar  279  TYR279     -0.0009
     62  CE1       15.9730   22.2140   69.7800 C.ar  279  TYR279      0.0417
     63  CE2       17.1490   21.3440   67.8880 C.ar  279  TYR279      0.0417
     64  CZ        16.3980   22.3400   68.4740 C.ar  279  TYR279      0.1957
     65  OH        16.0700   23.4640   67.7510 O.3   279  TYR279     -0.2866
     66  N         20.3010   18.4930   69.7520 N.am  280  SER280     -0.1938
     67  CA        21.1800   18.8030   68.6370 C.3   280  SER280      0.2055
     68  C         20.4840   18.4000   67.3460 C.2   280  SER280      0.2644
     69  O         19.7960   17.3750   67.2960 O.2   280  SER280     -0.2714
     70  CB        22.5260   18.0840   68.7590 C.3   280  SER280      0.2130
     71  OG        23.3250   18.6770   69.7660 O.3   280  SER280     -0.2179
     72  N         20.6600   19.2160   66.3190 N.am  281  GLY281     -0.1939
     73  CA        20.0170   18.9970   65.0390 C.3   281  GLY281      0.2014
     74  C         19.8630   20.3010   64.2960 C.2   281  GLY281      0.2639
     75  O         20.0120   21.3870   64.8550 O.2   281  GLY281     -0.2714
     76  N         19.5660   20.1760   63.0070 N.am  282  ILE282     -0.1963
     77  CA        19.3140   21.3480   62.1740 C.3   282  ILE282      0.1712
     78  C         18.0470   22.0170   62.6930 C.2   282  ILE282      0.2458
     79  O         17.1760   21.3350   63.2530 O.2   282  ILE282     -0.2730
     80  CB        19.1970   20.9730   60.6880 C.3   282  ILE282      0.0289
     81  CG1       17.9570   20.1110   60.4400 C.3   282  ILE282      0.0022
     82  CG2       20.4510   20.2480   60.2220 C.3   282  ILE282      0.0023
     83  CD1       17.8000   19.6710   59.0000 C.3   282  ILE282      0.0001
     84  N         17.9140   23.3370   62.5640 N.am  283  PRO283     -0.2727
     85  CA        16.7170   24.0120   63.0820 C.3   283  PRO283      0.1402
     86  C         15.4470   23.4520   62.4600 C.2   283  PRO283      0.2269
     87  O         15.3780   23.2010   61.2550 O.2   283  PRO283     -0.2865
     88  CB        16.9420   25.4760   62.6900 C.3   283  PRO283      0.0296
     89  CG        18.4250   25.6070   62.5750 C.3   283  PRO283      0.0237
     90  CD        18.9020   24.2920   62.0350 C.3   283  PRO283      0.0939
@<TRIPOS>BOND
     1     7     1    1
     2     7     6    1
     3     1     2    1
     4     4     3    2
     5     6     5    1
     6     3     2    1
     7     2     5    1
     8    83    81    1
     9    82    80    1
    10    81    80    1
    11    80    77    1
    12    52    50   ar
    13    52    53   ar
    14    50    48   ar
    15    53    51   ar
    16    87    86    2
    17    90    84    1
    18    90    89    1
    19    48    47    1
    20    48    49   ar
    21    51    49   ar
    22    77    78    1
    23    77    76    1
    24    86    85    1
    25    47    44    1
    26    84    78   am
    27    84    85    1
    28    89    88    1
    29    88    85    1
    30    78    79    2
    31    76    74   am
    32    44    45    1
    33    44    43    1
    34    45    46    2
    35    74    75    2
    36    74    73    1
    37    29    27   am
    38    43    38   am
    39    73    72    1
    40    39    38    2
    41    41    40    1
    42    38    37    1
    43    28    27    2
    44    27    26    1
    45    40    37    1
    46    40    42    1
    47    72    68   am
    48    22    23    1
    49    26    23    1
    50    37    36    1
    51    69    68    2
    52    68    67    1
    53    23    24    1
    54    36    32   am
    55    65    64    1
    56    63    64   ar
    57    63    61   ar
    58    24    25    2
    59    24    30   am
    60    64    62   ar
    61    61    59   ar
    62    67    70    1
    63    67    66    1
    64    70    71    1
    65    30    31    1
    66    32    33    2
    67    32    31    1
    68    31    34    1
    69    66    56   am
    70    62    60   ar
    71    59    60   ar
    72    59    58    1
    73    34    35    1
    74    56    57    2
    75    56    55    1
    76    58    55    1
    77    55    54    1
    78    19    21   ar
    79    19    17   ar
    80    21    20   ar
    81    16    17   ar
    82    16    14   ar
    83    17    15   ar
    84    14    13   ar
    85    20    18   ar
    86    15    18   ar
    87    15    13   ar
    88    11    10    2
    89    13    12    1
    90     8     9    1
    91    10     9    1
    92    12     9    1
