@<TRIPOS>MOLECULE
tmp/5opjA00.pdb
 136 131 0 0 0
SMALL
GASTEIGER

@<TRIPOS>ATOM
      1  N         30.4420   20.6610   57.1150 N.3    57  TRP57      -0.1241
      2  CA        30.5410   19.5140   56.2190 C.3    57  TRP57       0.1605
      3  C         31.5720   19.6500   55.0920 C.2    57  TRP57       0.2264
      4  O         31.9760   18.6400   54.5030 O.2    57  TRP57      -0.2867
      5  CB        29.1890   19.2020   55.5740 C.3    57  TRP57       0.0550
      6  CG        28.0690   18.8240   56.4840 C.ar   57  TRP57       0.0003
      7  CD1       27.9810   18.9960   57.8390 C.ar   57  TRP57       0.0946
      8  CD2       26.8420   18.2550   56.0720 C.ar   57  TRP57       0.0152
      9  NE1       26.7660   18.5510   58.2950 N.ar   57  TRP57      -0.2442
     10  CE2       26.0410   18.1010   57.2200 C.ar   57  TRP57       0.0810
     11  CE3       26.3240   17.8690   54.8270 C.ar   57  TRP57       0.0012
     12  CZ2       24.7680   17.5550   57.1590 C.ar   57  TRP57       0.0191
     13  CZ3       25.0760   17.3350   54.7720 C.ar   57  TRP57       0.0001
     14  CH2       24.2950   17.1890   55.9220 C.ar   57  TRP57       0.0015
     15  N         32.4700   16.1110   52.9850 N.3    62  LEU62      -0.1245
     16  CA        31.6020   16.4760   51.8450 C.3    62  LEU62       0.1561
     17  C         32.1110   17.6900   51.0480 C.2    62  LEU62       0.2260
     18  O         31.3900   18.2330   50.1750 O.2    62  LEU62      -0.2867
     19  CB        30.1400   16.6560   52.2770 C.3    62  LEU62       0.0270
     20  CG        29.2970   15.4650   51.8300 C.3    62  LEU62       0.0019
     21  CD1       27.9500   15.4260   52.5490 C.3    62  LEU62       0.0001
     22  CD2       29.1040   15.4220   50.3180 C.3    62  LEU62       0.0001
     23  N         32.8630   10.0120   52.3200 N.3   135  TRP135     -0.1227
     24  CA        31.4670   10.3510   52.5950 C.3   135  TRP135      0.1737
     25  C         30.6710   10.6830   51.2950 C.2   135  TRP135      0.2595
     26  O         30.9010   11.7090   50.6330 O.2   135  TRP135     -0.2718
     27  CB        31.4470   11.4940   53.6140 C.3   135  TRP135      0.0564
     28  CG        30.1150   11.8340   54.1670 C.ar  135  TRP135      0.0003
     29  CD1       28.9650   11.0710   54.1600 C.ar  135  TRP135      0.0946
     30  CD2       29.7990   13.0280   54.8720 C.ar  135  TRP135      0.0152
     31  NE1       27.9430   11.7520   54.7870 N.ar  135  TRP135     -0.2442
     32  CE2       28.4270   12.9530   55.2380 C.ar  135  TRP135      0.0810
     33  CE3       30.5380   14.1660   55.2200 C.ar  135  TRP135      0.0012
     34  CZ2       27.7830   13.9790   55.9490 C.ar  135  TRP135      0.0191
     35  CZ3       29.9050   15.1880   55.9110 C.ar  135  TRP135      0.0001
     36  CH2       28.5340   15.0850   56.2800 C.ar  135  TRP135      0.0015
     37  N         29.7690    9.7730   50.9330 N.am  136  VAL136     -0.1980
     38  CA        28.8770    9.8660   49.7630 C.3   136  VAL136      0.1595
     39  C         29.4730   10.6330   48.5810 C.2   136  VAL136      0.2287
     40  O         28.8910   11.6310   48.1240 O.2   136  VAL136     -0.2864
     41  CB        27.4680   10.4170   50.1510 C.3   136  VAL136      0.0276
     42  CG1       26.7700    9.4390   51.0870 C.3   136  VAL136      0.0022
     43  CG2       27.5280   11.7920   50.8290 C.3   136  VAL136      0.0022
     44  N         27.1530   11.2720   45.5400 N.3   139  TYR139     -0.1241
     45  CA        26.2320   12.3850   45.8270 C.3   139  TYR139      0.1605
     46  C         26.9300   13.7400   45.6610 C.2   139  TYR139      0.2264
     47  O         26.3370   14.6840   45.1390 O.2   139  TYR139     -0.2867
     48  CB        25.6650   12.2310   47.2490 C.3   139  TYR139      0.0534
     49  CG        24.8820   13.3890   47.8250 C.ar  139  TYR139     -0.0201
     50  CD1       25.5270   14.4630   48.4170 C.ar  139  TYR139     -0.0009
     51  CD2       23.4910   13.3670   47.8580 C.ar  139  TYR139     -0.0009
     52  CE1       24.8110   15.5150   48.9780 C.ar  139  TYR139      0.0417
     53  CE2       22.7670   14.4200   48.4250 C.ar  139  TYR139      0.0417
     54  CZ        23.4240   15.4850   48.9790 C.ar  139  TYR139      0.1957
     55  OH        22.7230   16.5330   49.5320 O.3   139  TYR139     -0.2866
     56  N         24.8400    6.2240   48.6410 N.3   186  GLU186     -0.1245
     57  CA        23.9660    7.3300   48.2070 C.3   186  GLU186      0.1567
     58  C         24.6760    8.1230   47.1060 C.2   186  GLU186      0.2260
     59  O         25.8100    8.5490   47.2700 O.2   186  GLU186     -0.2867
     60  CB        23.5870    8.2660   49.3780 C.3   186  GLU186      0.0388
     61  CG        22.7530    9.4930   48.9350 C.3   186  GLU186      0.1160
     62  CD        22.3940   10.4390   50.0710 C.2   186  GLU186      0.3649
     63  OE1       23.0600   10.3990   51.1260 O.co2 186  GLU186     -0.2457
     64  OE2       21.4910   11.2760   49.8660 O.co2 186  GLU186     -0.2457
     65  N         16.4220    5.6140   53.9860 N.3   232  HIS232     -0.1241
     66  CA        16.8190    7.0250   54.0460 C.3   232  HIS232      0.1621
     67  C         16.1160    7.7080   52.8610 C.2   232  HIS232      0.2264
     68  O         16.2720    7.2440   51.7270 O.2   232  HIS232     -0.2867
     69  CB        18.3420    7.1910   53.9490 C.3   232  HIS232      0.0745
     70  CG        18.7710    8.6110   54.0570 C.ar  232  HIS232      0.0817
     71  ND1       18.8560    9.4420   52.9620 N.ar  232  HIS232     -0.2268
     72  CD2       19.0590    9.3770   55.1390 C.ar  232  HIS232      0.1154
     73  CE1       19.1970   10.6560   53.3580 C.ar  232  HIS232      0.1986
     74  NE2       19.3420   10.6430   54.6730 N.ar  232  HIS232     -0.2212
     75  N         15.8050   11.0950   51.4550 N.3   234  ASN234     -0.1240
     76  CA        16.4150   11.9710   50.4430 C.3   234  ASN234      0.1653
     77  C         17.4110   11.2350   49.5450 C.2   234  ASN234      0.2266
     78  O         17.7660   11.7500   48.4990 O.2   234  ASN234     -0.2867
     79  CB        17.0880   13.1960   51.0570 C.3   234  ASN234      0.1155
     80  CG        17.3470   14.2960   50.0230 C.2   234  ASN234      0.2627
     81  OD1       16.4280   14.6990   49.2880 O.2   234  ASN234     -0.2716
     82  ND2       18.5860   14.7850   49.9630 N.am  234  ASN234     -0.0877
     83  N         15.3820   11.9120   58.8860 N.3   288  GLU288     -0.1245
     84  CA        15.7890   11.6780   57.4880 C.3   288  GLU288      0.1567
     85  C         15.3040   10.3770   56.8590 C.2   288  GLU288      0.2260
     86  O         15.6220   10.1200   55.7110 O.2   288  GLU288     -0.2867
     87  CB        17.3060   11.7850   57.3140 C.3   288  GLU288      0.0388
     88  CG        17.9240   12.9800   58.0160 C.3   288  GLU288      0.1160
     89  CD        19.4190   13.1410   57.7660 C.2   288  GLU288      0.3649
     90  OE1       20.0450   12.3030   57.0560 O.co2 288  GLU288     -0.2457
     91  OE2       19.9630   14.1250   58.3200 O.co2 288  GLU288     -0.2457
     92  N         12.7750   16.7080   56.4960 N.3   306  GLU306     -0.1245
     93  CA        13.9820   17.3160   55.9800 C.3   306  GLU306      0.1567
     94  C         13.5790   18.1620   54.7540 C.2   306  GLU306      0.2260
     95  O         12.8030   17.7110   53.9140 O.2   306  GLU306     -0.2867
     96  CB        15.0420   16.2510   55.6390 C.3   306  GLU306      0.0388
     97  CG        16.2120   16.8330   54.8770 C.3   306  GLU306      0.1160
     98  CD        17.3030   15.8610   54.5060 C.2   306  GLU306      0.3649
     99  OE1       18.2250   16.3270   53.8000 O.co2 306  GLU306     -0.2457
    100  OE2       17.2710   14.6810   54.9050 O.co2 306  GLU306     -0.2457
    101  N         16.7840   22.8900   58.0160 N.3   360  TYR360     -0.1241
    102  CA        17.0610   21.5110   57.7040 C.3   360  TYR360      0.1605
    103  C         15.8760   20.6370   58.1380 C.2   360  TYR360      0.2264
    104  O         15.2860   19.9080   57.3210 O.2   360  TYR360     -0.2867
    105  CB        18.3450   21.1020   58.4690 C.3   360  TYR360      0.0534
    106  CG        19.0450   19.8100   58.0570 C.ar  360  TYR360     -0.0201
    107  CD1       18.4300   18.5790   58.2210 C.ar  360  TYR360     -0.0009
    108  CD2       20.3760   19.8250   57.5990 C.ar  360  TYR360     -0.0009
    109  CE1       19.0830   17.3910   57.9010 C.ar  360  TYR360      0.0417
    110  CE2       21.0500   18.6460   57.3070 C.ar  360  TYR360      0.0417
    111  CZ        20.3980   17.4200   57.4430 C.ar  360  TYR360      0.1957
    112  OH        21.0520   16.2200   57.1530 O.3   360  TYR360     -0.2866
    113  N         23.3760   19.8800   53.4450 N.3   379  CYS379     -0.1235
    114  CA        22.5570   19.5830   52.2520 C.3   379  CYS379      0.1677
    115  C         21.3800   20.5780   52.0840 C.2   379  CYS379      0.2270
    116  O         21.1740   21.1340   50.9860 O.2   379  CYS379     -0.2867
    117  CB        22.0490   18.1420   52.3500 C.3   379  CYS379      0.0956
    118  SG        21.2640   17.7790   53.9450 S.3   379  CYS379     -0.0801
    119  N         22.6870    7.3000   58.8220 N.3   638  GLN638     -0.1231
    120  CA        23.9240    7.9370   58.2740 C.3   638  GLN638      0.1698
    121  C         24.3270    9.2730   58.8680 C.2   638  GLN638      0.2592
    122  O         25.5180    9.4650   59.1980 O.2   638  GLN638     -0.2718
    123  CB        23.8790    8.0650   56.7820 C.3   638  GLN638      0.0381
    124  CG        22.7520    8.9250   56.2480 C.3   638  GLN638      0.0905
    125  CD        22.5740    8.6550   54.7820 C.2   638  GLN638      0.2608
    126  OE1       22.1920    7.5420   54.3910 O.2   638  GLN638     -0.2717
    127  NE2       22.8810    9.6440   53.9590 N.am  638  GLN638     -0.0878
    128  N         23.3720   10.1870   59.0570 N.am  639  GLN639     -0.1979
    129  CA        23.7700   11.4970   59.5600 C.3   639  GLN639      0.1601
    130  C         24.2100   11.5220   61.0280 C.2   639  GLN639      0.2287
    131  O         25.2620   12.0900   61.3380 O.2   639  GLN639     -0.2864
    132  CB        22.7420   12.5860   59.2180 C.3   639  GLN639      0.0394
    133  CG        23.3210   13.9800   59.2320 C.3   639  GLN639      0.0908
    134  CD        24.4750   14.1580   58.2440 C.2   639  GLN639      0.2608
    135  OE1       25.5630   14.6190   58.6210 O.2   639  GLN639     -0.2717
    136  NE2       24.2480   13.7880   57.0020 N.am  639  GLN639     -0.0878
@<TRIPOS>BOND
     1    47    46    2
     2    44    45    1
     3    46    45    1
     4    45    48    1
     5    58    59    2
     6    58    57    1
     7    48    49    1
     8    49    51   ar
     9    49    50   ar
    10    51    53   ar
    11    40    39    2
    12    57    56    1
    13    57    60    1
    14    50    52   ar
    15    53    54   ar
    16    78    77    2
    17    39    38    1
    18    61    60    1
    19    61    62    1
    20    52    54   ar
    21    54    55    1
    22    81    80    2
    23    77    76    1
    24    38    41    1
    25    38    37    1
    26    64    62   ar
    27    82    80   am
    28    80    79    1
    29    62    63   ar
    30    41    43    1
    31    41    42    1
    32    18    17    2
    33    22    20    1
    34    76    79    1
    35    76    75    1
    36    26    25    2
    37    37    25   am
    38   116   115    2
    39    17    16    1
    40    25    24    1
    41    68    67    2
    42    20    19    1
    43    20    21    1
    44    16    19    1
    45    16    15    1
    46   115   114    1
    47   114   117    1
    48   114   113    1
    49    23    24    1
    50   117   118    1
    51    24    27    1
    52    67    66    1
    53    71    73   ar
    54    71    70   ar
    55    73    74   ar
    56    27    28    1
    57    99    98   ar
    58    95    94    2
    59    69    66    1
    60    69    70    1
    61   127   125   am
    62    65    66    1
    63    70    72   ar
    64    29    28   ar
    65    29    31   ar
    66    28    30   ar
    67   126   125    2
    68     4     3    2
    69    98    97    1
    70    98   100   ar
    71    74    72   ar
    72    94    93    1
    73    13    11   ar
    74    13    14   ar
    75   125   124    1
    76    31    32   ar
    77    11     8   ar
    78    30    33   ar
    79    30    32   ar
    80    97    96    1
    81     3     2    1
    82    33    35   ar
    83    32    34   ar
    84     5     2    1
    85     5     6    1
    86    96    93    1
    87    86    85    2
    88    35    36   ar
    89    14    12   ar
    90    34    36   ar
    91    93    92    1
    92     8     6   ar
    93     8    10   ar
    94     2     1    1
    95   124   123    1
    96     6     7   ar
    97   123   120    1
    98    85    84    1
    99   136   134   am
   100    90    89   ar
   101   112   111    1
   102    12    10   ar
   103    10     9   ar
   104   110   111   ar
   105   110   108   ar
   106    87    84    1
   107    87    88    1
   108   104   103    2
   109   111   109   ar
   110    84    83    1
   111   108   106   ar
   112   102   101    1
   113   102   103    1
   114   102   105    1
   115    89    88    1
   116    89    91   ar
   117     7     9   ar
   118   109   107   ar
   119   106   107   ar
   120   106   105    1
   121   134   135    2
   122   134   133    1
   123   120   119    1
   124   120   121    1
   125   121   128   am
   126   121   122    2
   127   128   129    1
   128   132   133    1
   129   132   129    1
   130   129   130    1
   131   130   131    2
