@<TRIPOS>MOLECULE
tmp/5opqB00.pdb
 117 116 0 0 0
SMALL
GASTEIGER

@<TRIPOS>ATOM
      1  N        -40.4710   35.5280   27.9660 N.3   312  PRO312     -0.2102
      2  CA       -39.6230   35.5690   29.1730 C.3   312  PRO312      0.1504
      3  C        -40.3100   35.7500   30.5090 C.2   312  PRO312      0.2575
      4  O        -39.6810   35.7220   31.5560 O.2   312  PRO312     -0.2718
      5  CB       -38.7320   36.7590   28.8420 C.3   312  PRO312      0.0282
      6  CG       -39.5760   37.6970   28.1090 C.3   312  PRO312      0.0208
      7  CD       -40.2500   36.7530   27.1600 C.3   312  PRO312      0.0893
      8  N        -41.6220   35.9650   30.4560 N.am  313  HIS313     -0.1976
      9  CA       -42.3430   36.3590   31.6330 C.3   313  HIS313      0.1656
     10  C        -42.3340   35.3020   32.7620 C.2   313  HIS313      0.2291
     11  O        -42.3510   35.6150   33.9200 O.2   313  HIS313     -0.2864
     12  CB       -43.7790   36.6720   31.2440 C.3   313  HIS313      0.0771
     13  CG       -43.8790   37.8170   30.2800 C.ar  313  HIS313      0.0820
     14  ND1      -43.3890   37.7460   28.9870 N.ar  313  HIS313     -0.2267
     15  CD2      -44.1890   39.1020   30.4900 C.ar  313  HIS313      0.1154
     16  CE1      -43.4960   38.9110   28.4190 C.ar  313  HIS313      0.1986
     17  NE2      -43.9470   39.7670   29.3070 N.ar  313  HIS313     -0.2212
     18  N        -40.4290   31.6200   21.6380 N.3   348  TRP348     -0.1241
     19  CA       -40.2840   32.2620   22.9010 C.3   348  TRP348      0.1605
     20  C        -40.4520   31.3140   24.0740 C.2   348  TRP348      0.2264
     21  O        -41.6260   31.0590   24.5270 O.2   348  TRP348     -0.2867
     22  CB       -41.3140   33.4170   23.0360 C.3   348  TRP348      0.0550
     23  CG       -41.1890   34.5580   22.0550 C.ar  348  TRP348      0.0003
     24  CD1      -40.9290   34.5240   20.6950 C.ar  348  TRP348      0.0946
     25  CD2      -41.3810   35.9830   22.3730 C.ar  348  TRP348      0.0152
     26  NE1      -40.9610   35.8070   20.1870 N.ar  348  TRP348     -0.2442
     27  CE2      -41.2020   36.7120   21.1950 C.ar  348  TRP348      0.0810
     28  CE3      -41.6570   36.6920   23.5610 C.ar  348  TRP348      0.0012
     29  CZ2      -41.2330   38.1200   21.1720 C.ar  348  TRP348      0.0191
     30  CZ3      -41.7490   38.0900   23.4860 C.ar  348  TRP348      0.0001
     31  CH2      -41.5260   38.7670   22.2910 C.ar  348  TRP348      0.0015
     32  N        -36.0380   33.3980   21.6270 N.3   388  TYR388     -0.1241
     33  CA       -36.1690   34.7040   22.3060 C.3   388  TYR388      0.1605
     34  C        -34.9240   34.9600   23.1060 C.2   388  TYR388      0.2264
     35  O        -34.5070   34.0860   23.9270 O.2   388  TYR388     -0.2867
     36  CB       -37.3830   34.7040   23.2310 C.3   388  TYR388      0.0534
     37  CG       -37.4650   36.0330   23.9950 C.ar  388  TYR388     -0.0201
     38  CD1      -36.8260   36.2100   25.2140 C.ar  388  TYR388     -0.0009
     39  CD2      -38.1580   37.1190   23.4490 C.ar  388  TYR388     -0.0009
     40  CE1      -36.9320   37.3710   25.9560 C.ar  388  TYR388      0.0417
     41  CE2      -38.1920   38.3100   24.0880 C.ar  388  TYR388      0.0417
     42  CZ       -37.6290   38.4870   25.3500 C.ar  388  TYR388      0.1957
     43  OH       -37.6010   39.7150   26.0130 O.3   388  TYR388     -0.2866
     44  N        -38.2090   45.3860   32.2000 N.3   421  TRP421     -0.1241
     45  CA       -37.5780   44.8410   31.0140 C.3   421  TRP421      0.1605
     46  C        -36.3150   45.5730   30.5900 C.2   421  TRP421      0.2264
     47  O        -35.5810   45.0800   29.8050 O.2   421  TRP421     -0.2867
     48  CB       -38.5680   44.7440   29.8540 C.3   421  TRP421      0.0550
     49  CG       -39.6860   43.8370   30.2110 C.ar  421  TRP421      0.0003
     50  CD1      -40.9580   44.1920   30.5360 C.ar  421  TRP421      0.0946
     51  CD2      -39.6230   42.4250   30.3550 C.ar  421  TRP421      0.0152
     52  NE1      -41.6760   43.1000   30.8750 N.ar  421  TRP421     -0.2442
     53  CE2      -40.8800   41.9950   30.7760 C.ar  421  TRP421      0.0810
     54  CE3      -38.6170   41.4790   30.2020 C.ar  421  TRP421      0.0012
     55  CZ2      -41.1530   40.6620   31.0120 C.ar  421  TRP421      0.0191
     56  CZ3      -38.9030   40.1780   30.4110 C.ar  421  TRP421      0.0001
     57  CH2      -40.1420   39.7730   30.8320 C.ar  421  TRP421      0.0015
     58  N        -34.4160   41.1550   21.9750 N.3   452  ASP452     -0.1225
     59  CA       -35.5420   42.0360   22.4530 C.3   452  ASP452      0.1805
     60  C        -35.0230   43.2890   23.1770 C.2   452  ASP452      0.2597
     61  O        -33.9210   43.3160   23.7430 O.2   452  ASP452     -0.2718
     62  CB       -36.3920   41.2230   23.4370 C.3   452  ASP452      0.1424
     63  CG       -37.9180   41.6040   23.3850 C.2   452  ASP452      0.3668
     64  OD1      -38.3740   41.8940   22.2370 O.co2 452  ASP452     -0.2456
     65  OD2      -38.6010   41.5330   24.4480 O.co2 452  ASP452     -0.2456
     66  N        -35.9180   44.3230   23.2230 N.am  453  ILE453     -0.1980
     67  CA       -35.9060   45.4620   24.1140 C.3   453  ILE453      0.1595
     68  C        -34.8240   46.5230   23.8720 C.2   453  ILE453      0.2287
     69  O        -35.1340   47.7460   23.7920 O.2   453  ILE453     -0.2864
     70  CB       -35.8460   45.0030   25.5990 C.3   453  ILE453      0.0276
     71  CG1      -37.0950   44.1430   25.9650 C.3   453  ILE453      0.0022
     72  CG2      -35.7820   46.1500   26.5250 C.3   453  ILE453      0.0022
     73  CD1      -36.8500   43.0740   27.0030 C.3   453  ILE453      0.0001
     74  N        -36.5300   44.1600   18.4700 N.3   483  GLU483     -0.1301
     75  CA       -37.8150   44.7460   18.8000 C.3   483  GLU483      0.1252
     76  C        -37.8040   46.2490   18.4500 C.3   483  GLU483      0.2009
     77  O        -36.9590   47.0680   18.9710 O.3   483  GLU483     -0.2188
     78  CB       -38.0720   44.6210   20.2610 C.3   483  GLU483      0.0335
     79  CG       -39.4130   45.2650   20.6700 C.3   483  GLU483      0.1156
     80  CD       -39.7610   45.2090   22.1230 C.2   483  GLU483      0.3649
     81  OE1      -38.8910   45.0090   22.9860 O.co2 483  GLU483     -0.2457
     82  OE2      -40.9460   45.5820   22.4160 O.co2 483  GLU483     -0.2457
     83  N        -39.0150   44.2650   14.3260 N.3   497  GLU497     -0.1245
     84  CA       -40.3150   43.7330   14.7420 C.3   497  GLU497      0.1567
     85  C        -41.0570   44.9210   15.3570 C.2   497  GLU497      0.2260
     86  O        -40.8530   45.2640   16.5250 O.2   497  GLU497     -0.2867
     87  CB       -40.1440   42.6350   15.7310 C.3   497  GLU497      0.0388
     88  CG       -41.4530   42.1860   16.4800 C.3   497  GLU497      0.1160
     89  CD       -41.5430   42.7510   17.8970 C.2   497  GLU497      0.3649
     90  OE1      -40.5710   42.6680   18.6580 O.co2 497  GLU497     -0.2457
     91  OE2      -42.6860   43.1810   18.3020 O.co2 497  GLU497     -0.2457
     92  N        -45.8710   44.2950   15.0110 N.3   530  LYS530     -0.1231
     93  CA       -45.4940   44.2220   16.4080 C.3   530  LYS530      0.1693
     94  C        -46.1540   42.9740   17.0670 C.2   530  LYS530      0.2592
     95  O        -47.3750   42.7410   16.8350 O.2   530  LYS530     -0.2718
     96  CB       -45.9290   45.5000   17.1520 C.3   530  LYS530      0.0285
     97  CG       -45.2950   45.6430   18.5280 C.3   530  LYS530      0.0035
     98  CD       -43.8460   46.1590   18.4920 C.3   530  LYS530      0.0206
     99  CE       -43.1050   46.1760   19.7780 C.3   530  LYS530      0.1093
    100  NZ       -42.9480   44.8740   20.4960 N.3   530  LYS530     -0.1314
    101  N        -45.4520   42.2700   17.9470 N.am  531  ILE531     -0.1966
    102  CA       -45.9600   41.0400   18.5930 C.3   531  ILE531      0.1727
    103  C        -47.2000   41.3500   19.4500 C.2   531  ILE531      0.2616
    104  O        -48.0770   40.4890   19.5840 O.2   531  ILE531     -0.2715
    105  CB       -44.8720   40.2640   19.3340 C.3   531  ILE531      0.0290
    106  CG1      -44.2940   41.0310   20.4850 C.3   531  ILE531      0.0022
    107  CG2      -43.7920   39.8140   18.3470 C.3   531  ILE531      0.0023
    108  CD1      -44.9440   40.6890   21.8240 C.3   531  ILE531      0.0001
    109  N        -47.2740   42.5270   20.0490 N.am  532  GLN532     -0.1977
    110  CA       -48.4520   42.8280   20.8880 C.3   532  GLN532      0.1601
    111  C        -49.6990   43.0290   20.0540 C.2   532  GLN532      0.2287
    112  O        -50.8280   42.9700   20.5940 O.2   532  GLN532     -0.2864
    113  CB       -48.1930   44.1090   21.7150 C.3   532  GLN532      0.0394
    114  CG       -47.3500   43.9660   22.9350 C.3   532  GLN532      0.0908
    115  CD       -45.9040   43.9800   22.6640 C.2   532  GLN532      0.2608
    116  OE1      -45.4630   44.1470   21.4770 O.2   532  GLN532     -0.2717
    117  NE2      -45.1180   43.9750   23.7220 N.am  532  GLN532     -0.0878
@<TRIPOS>BOND
     1    83    84    1
     2    84    85    1
     3    84    87    1
     4    92    93    1
     5    85    86    2
     6    87    88    1
     7    93    94    1
     8    93    96    1
     9    88    89    1
    10    95    94    2
    11    94   101   am
    12    96    97    1
    13    89    91   ar
    14    89    90   ar
    15   101   102    1
    16   107   105    1
    17    76    75    1
    18    76    77    1
    19    74    75    1
    20    98    97    1
    21    98    99    1
    22   102   105    1
    23   102   103    1
    24    75    78    1
    25   105   106    1
    26   103   104    2
    27   103   109   am
    28    99   100    1
    29   109   110    1
    30   111   112    2
    31   111   110    1
    32    26    24   ar
    33    26    27   ar
    34    78    79    1
    35   106   108    1
    36    79    80    1
    37    24    23   ar
    38   110   113    1
    39    29    27   ar
    40    29    31   ar
    41    27    25   ar
    42   116   115    2
    43    32    33    1
    44    18    19    1
    45   113   114    1
    46    58    59    1
    47    23    25   ar
    48    23    22    1
    49    80    82   ar
    50    80    81   ar
    51    64    63   ar
    52    31    30   ar
    53    33    34    1
    54    33    36    1
    55    25    28   ar
    56    59    60    1
    57    59    62    1
    58   115   114    1
    59   115   117   am
    60    19    22    1
    61    19    20    1
    62    34    35    2
    63    60    66   am
    64    60    61    2
    65    66    67    1
    66    36    37    1
    67    63    62    1
    68    63    65   ar
    69    39    37   ar
    70    39    41   ar
    71    30    28   ar
    72    69    68    2
    73    68    67    1
    74    37    38   ar
    75    20    21    2
    76    41    42   ar
    77    67    70    1
    78    38    40   ar
    79    42    40   ar
    80    42    43    1
    81    70    71    1
    82    70    72    1
    83    71    73    1
    84     7     1    1
    85     7     6    1
    86     1     2    1
    87     6     5    1
    88    16    14   ar
    89    16    17   ar
    90     5     2    1
    91    14    13   ar
    92     2     3    1
    93    17    15   ar
    94    47    46    2
    95    48    49    1
    96    48    45    1
    97    54    51   ar
    98    54    56   ar
    99    49    51   ar
   100    49    50   ar
   101    13    15   ar
   102    13    12    1
   103    51    53   ar
   104    56    57   ar
   105     8     3   am
   106     8     9    1
   107     3     4    2
   108    50    52   ar
   109    46    45    1
   110    53    52   ar
   111    53    55   ar
   112    57    55   ar
   113    45    44    1
   114    12     9    1
   115     9    10    1
   116    10    11    2
