@<TRIPOS>MOLECULE
tmp/5oprA00.pdb
 159 149 0 0 0
SMALL
GASTEIGER

@<TRIPOS>ATOM
      1  N          2.6460   -9.0380   29.0580 N.3    10  GLN10      -0.1231
      2  CA         1.7440   -9.7250   28.1060 C.3    10  GLN10       0.1698
      3  C          2.2640   -9.6770   26.6920 C.2    10  GLN10       0.2593
      4  O          3.1570   -8.8740   26.3840 O.2    10  GLN10      -0.2718
      5  CB         0.3420   -9.1220   28.1270 C.3    10  GLN10       0.0381
      6  CG         0.1920   -7.8600   27.2850 C.3    10  GLN10       0.0905
      7  CD        -1.2370   -7.5450   26.9770 C.2    10  GLN10       0.2608
      8  OE1       -1.5680   -6.4110   26.6630 O.2    10  GLN10      -0.2717
      9  NE2       -2.0970   -8.5460   27.0510 N.am   10  GLN10      -0.0878
     10  N          1.6510  -10.4820   25.8300 N.am   11  THR11      -0.1939
     11  CA         2.0930  -10.6020   24.4490 C.3    11  THR11       0.2028
     12  C          1.3330   -9.6820   23.5090 C.2    11  THR11       0.2642
     13  O          0.1090   -9.6260   23.4900 O.2    11  THR11      -0.2714
     14  CB         1.9890  -12.0420   23.9300 C.3    11  THR11       0.1808
     15  OG1        2.7170  -12.9080   24.7980 O.3    11  THR11      -0.2208
     16  CG2        2.5760  -12.1630   22.5180 C.3    11  THR11       0.0379
     17  N          2.0960   -8.9660   22.7160 N.am   12  LEU12      -0.1963
     18  CA         1.5400   -8.0690   21.7280 C.3    12  LEU12       0.1728
     19  C          1.6010   -8.6510   20.3200 C.2    12  LEU12       0.2616
     20  O          0.6510   -8.4830   19.5530 O.2    12  LEU12      -0.2715
     21  CB         2.2750   -6.7390   21.8130 C.3    12  LEU12       0.0311
     22  CG         1.7910   -5.7480   22.8830 C.3    12  LEU12       0.0022
     23  CD1        0.8410   -6.2850   23.9500 C.3    12  LEU12       0.0001
     24  CD2        3.0130   -5.0980   23.5020 C.3    12  LEU12       0.0001
     25  N          2.7110   -9.3150   19.9940 N.am   13  GLY13      -0.1955
     26  CA         2.9110   -9.9770   18.6940 C.3    13  GLY13       0.1869
     27  C          3.6760  -11.2690   18.9320 C.2    13  GLY13       0.2309
     28  O          4.4710  -11.3450   19.8690 O.2    13  GLY13      -0.2863
     29  N          6.2560  -14.0250   14.3750 N.3    16  ALA16      -0.1245
     30  CA         6.7350  -13.3040   13.1840 C.3    16  ALA16       0.1562
     31  C          8.2660  -13.2350   13.1470 C.2    16  ALA16       0.2260
     32  O          8.8960  -13.7820   12.2420 O.2    16  ALA16      -0.2867
     33  CB         6.1050  -11.9100   13.1170 C.3    16  ALA16       0.0290
     34  N          6.7420  -10.2870   20.7560 N.3    20  VAL20      -0.1245
     35  CA         6.7310   -8.9080   21.2620 C.3    20  VAL20       0.1561
     36  C          5.9410   -8.9060   22.5540 C.2    20  VAL20       0.2260
     37  O          4.7710   -9.3410   22.5780 O.2    20  VAL20      -0.2867
     38  CB         6.1370   -7.8720   20.2670 C.3    20  VAL20       0.0252
     39  CG1        6.0610   -6.4830   20.8990 C.3    20  VAL20       0.0019
     40  CG2        7.0300   -7.7790   19.0430 C.3    20  VAL20       0.0019
     41  N          7.7490   -1.7190   24.6430 N.3    33  ALA33      -0.1245
     42  CA         7.6410   -3.0030   23.9380 C.3    33  ALA33       0.1562
     43  C          9.0010   -3.6510   23.8370 C.2    33  ALA33       0.2260
     44  O         10.0330   -2.9710   23.6580 O.2    33  ALA33      -0.2867
     45  CB         7.0580   -2.7990   22.5310 C.3    33  ALA33       0.0290
     46  N         11.0500   -6.8480   21.8760 N.3    35  LYS35      -0.1245
     47  CA        11.0420   -7.9250   20.8940 C.3    35  LYS35       0.1561
     48  C         12.0120   -8.9610   21.3730 C.2    35  LYS35       0.2260
     49  O         13.1500   -8.6450   21.6630 O.2    35  LYS35      -0.2867
     50  CB        11.4600   -7.4120   19.5000 C.3    35  LYS35       0.0271
     51  CG        11.8520   -8.4920   18.5090 C.3    35  LYS35       0.0035
     52  CD        12.1440   -7.8790   17.1440 C.3    35  LYS35       0.0206
     53  CE        12.3030   -8.9430   16.0800 C.3    35  LYS35       0.1093
     54  NZ        12.7170   -8.3050   14.8070 N.3    35  LYS35      -0.1314
     55  N          9.4290    3.7470   14.6200 N.3    56  ILE56      -0.1245
     56  CA         9.4390    3.1800   15.9600 C.3    56  ILE56       0.1561
     57  C         10.8100    3.4150   16.6250 C.2    56  ILE56       0.2260
     58  O         11.8000    3.0580   16.0480 O.2    56  ILE56      -0.2867
     59  CB         9.1130    1.6860   15.8660 C.3    56  ILE56       0.0252
     60  CG1        8.5900    1.2050   17.1730 C.3    56  ILE56       0.0019
     61  CG2       10.3250    0.8620   15.4190 C.3    56  ILE56       0.0019
     62  CD1        7.2100    1.7830   17.4980 C.3    56  ILE56       0.0001
     63  N         11.8680   -1.1950   22.5680 N.3    72  MET72      -0.1230
     64  CA        11.3420   -0.2490   21.6070 C.3    72  MET72       0.1702
     65  C         10.1340    0.4560   22.1170 C.2    72  MET72       0.2592
     66  O          9.3820   -0.0560   22.9280 O.2    72  MET72      -0.2718
     67  CB        10.8970   -0.9940   20.3600 C.3    72  MET72       0.0401
     68  CG        11.9790   -1.7510   19.5940 C.3    72  MET72       0.0596
     69  SD        11.3640   -3.1420   18.5610 S.3    72  MET72      -0.1393
     70  CE         9.6110   -3.2290   18.9080 C.3    72  MET72       0.0692
     71  N          9.9150    1.6040   21.5250 N.am   73  GLU73      -0.1966
     72  CA         8.7420    2.4080   21.7300 C.3    73  GLU73       0.1733
     73  C          7.5100    1.5600   21.6910 C.2    73  GLU73       0.2616
     74  O          7.3530    0.6910   20.8500 O.2    73  GLU73      -0.2715
     75  CB         8.7210    3.4730   20.6190 C.3    73  GLU73       0.0429
     76  CG         7.6270    4.5100   20.6440 C.3    73  GLU73       0.1163
     77  CD         7.7080    5.5010   19.4720 C.2    73  GLU73       0.3649
     78  OE1        6.8820    6.4450   19.4310 O.co2  73  GLU73      -0.2457
     79  OE2        8.5410    5.3470   18.5580 O.co2  73  GLU73      -0.2457
     80  N          6.6250    1.7930   22.6350 N.am   74  LEU74      -0.1963
     81  CA         5.3680    1.1340   22.6670 C.3    74  LEU74       0.1728
     82  C          4.3470    1.9330   21.8290 C.2    74  LEU74       0.2616
     83  O          4.2590    3.1480   21.9160 O.2    74  LEU74      -0.2715
     84  CB         4.8730    1.0560   24.0910 C.3    74  LEU74       0.0311
     85  CG         3.4950    0.4010   24.2580 C.3    74  LEU74       0.0022
     86  CD1        3.5390   -1.1000   23.9650 C.3    74  LEU74       0.0001
     87  CD2        3.0140    0.6600   25.6810 C.3    74  LEU74       0.0001
     88  N          3.5270    1.2220   21.0800 N.am   75  ALA75      -0.1963
     89  CA         2.5210    1.8250   20.1890 C.3    75  ALA75       0.1728
     90  C          1.2490    1.1800   20.6770 C.2    75  ALA75       0.2617
     91  O          0.9000    0.0710   20.2750 O.2    75  ALA75      -0.2715
     92  CB         2.8170    1.4840   18.7160 C.3    75  ALA75       0.0334
     93  N          0.6060    1.8290   21.6470 N.am   76  SER76      -0.1936
     94  CA        -0.4900    1.1690   22.4240 C.3    76  SER76       0.2055
     95  C         -1.7730    1.1340   21.6060 C.2    76  SER76       0.2644
     96  O         -2.6990    0.4340   21.9690 O.2    76  SER76      -0.2714
     97  CB        -0.7390    1.8850   23.7690 C.3    76  SER76       0.2130
     98  OG        -1.1100    3.2480   23.5430 O.3    76  SER76      -0.2179
     99  N         -1.8030    1.8790   20.4920 N.am   77  GLY77      -0.1939
    100  CA        -2.8590    1.7640   19.4820 C.3    77  GLY77       0.2014
    101  C         -2.8830    0.4790   18.6660 C.2    77  GLY77       0.2639
    102  O         -3.8600    0.1970   17.9950 O.2    77  GLY77      -0.2714
    103  N         -1.8230   -0.2950   18.6710 N.am   78  GLY78      -0.1939
    104  CA        -1.7960   -1.5370   17.9520 C.3    78  GLY78       0.2014
    105  C         -1.5590   -1.1680   16.4570 C.2    78  GLY78       0.2639
    106  O         -1.0260   -0.1210   16.1450 O.2    78  GLY78      -0.2714
    107  N         -2.0330   -1.9860   15.5610 N.am   79  SER79      -0.1949
    108  CA        -1.6010   -1.8640   14.1490 C.3    79  SER79       0.1924
    109  C         -2.6300   -1.2230   13.2650 C.2    79  SER79       0.2314
    110  O         -3.8320   -1.2280   13.5380 O.2    79  SER79      -0.2863
    111  CB        -1.1890   -3.2140   13.5570 C.3    79  SER79       0.2116
    112  OG        -2.3180   -4.0250   13.3560 O.3    79  SER79      -0.2180
    113  N         -5.5150   -3.6100   12.1380 N.3    82  ASP82      -0.1239
    114  CA        -6.7250   -3.7040   12.9400 C.3    82  ASP82       0.1674
    115  C         -7.6810   -2.5340   12.7630 C.2    82  ASP82       0.2266
    116  O         -8.7750   -2.6310   13.2250 O.2    82  ASP82      -0.2867
    117  CB        -6.3670   -3.9040   14.4720 C.3    82  ASP82       0.1410
    118  CG        -5.6100   -5.2520   14.7610 C.2    82  ASP82       0.3668
    119  OD1       -5.8650   -6.2350   14.0640 O.co2  82  ASP82      -0.2456
    120  OD2       -4.7250   -5.3350   15.6550 O.co2  82  ASP82      -0.2456
    121  N          0.3170   -4.6290    8.9440 N.3   122  HIS122     -0.1226
    122  CA         0.8790   -5.2270   10.1410 C.3   122  HIS122      0.1752
    123  C          2.0770   -4.5770   10.7620 C.2   122  HIS122      0.2596
    124  O          2.2410   -4.6400   12.0220 O.2   122  HIS122     -0.2718
    125  CB         1.2370   -6.7130    9.9380 C.3   122  HIS122      0.0759
    126  CG         0.0590   -7.6040    9.9650 C.ar  122  HIS122      0.0818
    127  ND1       -0.3410   -8.3180    8.8600 N.ar  122  HIS122     -0.2268
    128  CD2       -0.8540   -7.8520   10.9350 C.ar  122  HIS122      0.1154
    129  CE1       -1.4400   -9.0020    9.1530 C.ar  122  HIS122      0.1986
    130  NE2       -1.7830   -8.7310   10.4040 N.ar  122  HIS122     -0.2212
    131  N          2.8960   -3.9090    9.9380 N.am  123  ASN123     -0.1974
    132  CA         4.1500   -3.2640   10.3270 C.3   123  ASN123      0.1688
    133  C          4.0150   -1.7880   10.5270 C.2   123  ASN123      0.2292
    134  O          5.0010   -1.0820   10.8020 O.2   123  ASN123     -0.2864
    135  CB         5.2700   -3.5870    9.3050 C.3   123  ASN123      0.1181
    136  CG         5.7070   -5.0370    9.3760 C.2   123  ASN123      0.2629
    137  OD1        5.5160   -5.6570   10.4090 O.2   123  ASN123     -0.2716
    138  ND2        6.2660   -5.5880    8.3040 N.am  123  ASN123     -0.0877
    139  N          2.3570    0.6750   12.9600 N.3   125  LEU125     -0.1245
    140  CA         1.7170    0.7740   14.3140 C.3   125  LEU125      0.1561
    141  C          1.1990    2.1880   14.6520 C.2   125  LEU125      0.2260
    142  O          1.5810    3.1700   14.0380 O.2   125  LEU125     -0.2867
    143  CB         2.7470    0.3220   15.3490 C.3   125  LEU125      0.0270
    144  CG         3.3640   -0.9950   14.9940 C.3   125  LEU125      0.0019
    145  CD1        4.4490   -1.3610   16.0310 C.3   125  LEU125      0.0001
    146  CD2        2.3450   -2.1080   14.8680 C.3   125  LEU125      0.0001
    147  N          7.2980    0.1040   11.7770 N.3   135  ALA135     -0.1231
    148  CA         7.9450   -0.8780   12.6230 C.3   135  ALA135      0.1694
    149  C          8.5110   -2.0460   11.8550 C.2   135  ALA135      0.2592
    150  O          8.2010   -2.2750   10.6550 O.2   135  ALA135     -0.2718
    151  CB         6.9100   -1.3750   13.6280 C.3   135  ALA135      0.0304
    152  N          9.3230   -2.8300   12.5800 N.am  136  ASP136     -0.1974
    153  CA         9.9340   -4.0900   12.1380 C.3   136  ASP136      0.1709
    154  C         11.0490   -3.9520   11.1060 C.2   136  ASP136      0.2293
    155  O         10.7850   -3.9070    9.8830 O.2   136  ASP136     -0.2864
    156  CB         8.9000   -5.0800   11.6240 C.3   136  ASP136      0.1436
    157  CG         9.5150   -6.4820   11.3270 C.2   136  ASP136      0.3671
    158  OD1       10.7480   -6.6760   11.4950 O.co2 136  ASP136     -0.2456
    159  OD2        8.7480   -7.3740   10.8710 O.co2 136  ASP136     -0.2456
@<TRIPOS>BOND
     1   138   136   am
     2   127   129   ar
     3   127   126   ar
     4   121   122    1
     5   129   130   ar
     6   135   136    1
     7   135   132    1
     8   136   137    2
     9   155   154    2
    10   125   126    1
    11   125   122    1
    12   131   132    1
    13   131   123   am
    14   126   128   ar
    15   122   123    1
    16   132   133    1
    17   130   128   ar
    18   133   134    2
    19   150   149    2
    20   123   124    2
    21   159   157   ar
    22   154   153    1
    23   157   158   ar
    24   157   156    1
    25   156   153    1
    26   147   148    1
    27   149   152   am
    28   149   148    1
    29   113   114    1
    30   153   152    1
    31    32    31    2
    32   148   151    1
    33   115   114    1
    34   115   116    2
    35   114   117    1
    36   139   140    1
    37    33    30    1
    38    31    30    1
    39    30    29    1
    40   109   110    2
    41   109   108    1
    42   112   111    1
    43   111   108    1
    44   142   141    2
    45   119   118   ar
    46   108   107    1
    47   140   141    1
    48   140   143    1
    49   117   118    1
    50    55    56    1
    51   118   120   ar
    52    54    53    1
    53   146   144    1
    54   144   143    1
    55   144   145    1
    56    61    59    1
    57   107   105   am
    58    59    56    1
    59    59    60    1
    60    56    57    1
    61    58    57    2
    62    53    52    1
    63   106   105    2
    64   105   104    1
    65    52    51    1
    66    60    62    1
    67   104   103    1
    68   102   101    2
    69    51    50    1
    70    79    77   ar
    71    69    70    1
    72    69    68    1
    73   101   103   am
    74   101   100    1
    75    26    27    1
    76    26    25    1
    77    92    89    1
    78    27    28    2
    79    40    38    1
    80    78    77   ar
    81    77    76    1
    82   100    99    1
    83    50    47    1
    84    20    19    2
    85    68    67    1
    86    25    19   am
    87    89    90    1
    88    89    88    1
    89    38    39    1
    90    38    35    1
    91    91    90    2
    92    19    18    1
    93    67    64    1
    94    99    95   am
    95    75    76    1
    96    75    72    1
    97    90    93   am
    98    34    35    1
    99    74    73    2
   100    47    48    1
   101    47    46    1
   102    88    82   am
   103    35    36    1
   104    48    49    2
   105    71    72    1
   106    71    65   am
   107    95    96    2
   108    95    94    1
   109    64    65    1
   110    64    63    1
   111    93    94    1
   112    73    72    1
   113    73    80   am
   114    18    21    1
   115    18    17    1
   116    21    22    1
   117    82    83    2
   118    82    81    1
   119    65    66    2
   120    94    97    1
   121    16    14    1
   122    45    42    1
   123    36    37    2
   124    80    81    1
   125    81    84    1
   126    17    12   am
   127    22    24    1
   128    22    23    1
   129    13    12    2
   130    12    11    1
   131    98    97    1
   132    44    43    2
   133    43    42    1
   134    14    11    1
   135    14    15    1
   136    42    41    1
   137    86    85    1
   138    84    85    1
   139    85    87    1
   140    11    10    1
   141    10     3   am
   142     4     3    2
   143     8     7    2
   144     3     2    1
   145     7     9   am
   146     7     6    1
   147     6     5    1
   148     2     5    1
   149     2     1    1
