@<TRIPOS>MOLECULE
tmp/5opsA00.pdb
 127 118 0 0 0
SMALL
GASTEIGER

@<TRIPOS>ATOM
      1  N          2.8690   -9.4630   22.7200 N.3    13  LEU13      -0.1231
      2  CA         2.1790   -8.5850   21.7790 C.3    13  LEU13       0.1693
      3  C          2.1320   -9.2180   20.3930 C.2    13  LEU13       0.2593
      4  O          1.3350   -8.8160   19.5600 O.2    13  LEU13      -0.2718
      5  CB         2.8350   -7.2140   21.7610 C.3    13  LEU13       0.0284
      6  CG         2.6950   -6.5020   23.1100 C.3    13  LEU13       0.0019
      7  CD1        3.5130   -5.2180   23.1890 C.3    13  LEU13       0.0001
      8  CD2        1.2220   -6.2750   23.4570 C.3    13  LEU13       0.0001
      9  N          2.9630  -10.2250   20.1450 N.am   14  GLY14      -0.1942
     10  CA         2.8920  -10.9370   18.8780 C.3    14  GLY14       0.2014
     11  C          4.1920  -11.5700   18.4690 C.2    14  GLY14       0.2639
     12  O          5.2170  -11.3510   19.1040 O.2    14  GLY14      -0.2714
     13  N          4.1370  -12.3540   17.3950 N.am   15  GLU15      -0.1963
     14  CA         5.3190  -12.8640   16.7220 C.3    15  GLU15       0.1733
     15  C          5.5210  -12.0390   15.4660 C.2    15  GLU15       0.2616
     16  O          4.5810  -11.4640   14.9470 O.2    15  GLU15      -0.2715
     17  CB         5.1160  -14.3260   16.3700 C.3    15  GLU15       0.0429
     18  CG         4.8940  -15.1830   17.6160 C.3    15  GLU15       0.1163
     19  CD         6.2420  -15.6780   18.1010 C.2    15  GLU15       0.3649
     20  OE1        7.3090  -15.3840   17.5090 O.co2  15  GLU15      -0.2457
     21  OE2        6.2650  -16.3490   19.1380 O.co2  15  GLU15      -0.2457
     22  N          6.7640  -11.9410   15.0230 N.am   16  GLY16      -0.1955
     23  CA         7.1090  -11.3010   13.7630 C.3    16  GLY16       0.1869
     24  C          7.6810  -12.3890   12.8800 C.2    16  GLY16       0.2309
     25  O          7.3090  -13.5590   13.0100 O.2    16  GLY16      -0.2863
     26  N          7.3710  -10.4970   20.6420 N.3    21  VAL21      -0.1245
     27  CA         7.4460   -9.1440   21.0950 C.3    21  VAL21       0.1561
     28  C          6.6430   -9.1800   22.3770 C.2    21  VAL21       0.2260
     29  O          5.5330   -9.6960   22.3910 O.2    21  VAL21      -0.2867
     30  CB         6.8160   -8.1860   20.0990 C.3    21  VAL21       0.0252
     31  CG1        6.6320   -6.8110   20.7400 C.3    21  VAL21       0.0019
     32  CG2        7.6950   -8.0770   18.8670 C.3    21  VAL21       0.0019
     33  N          8.2150   -2.0150   24.5100 N.3    34  ALA34      -0.1245
     34  CA         8.0550   -3.3010   23.8380 C.3    34  ALA34       0.1562
     35  C          9.3970   -3.9230   23.7090 C.2    34  ALA34       0.2260
     36  O         10.3850   -3.2440   23.4410 O.2    34  ALA34      -0.2867
     37  CB         7.4690   -3.1150   22.4730 C.3    34  ALA34       0.0290
     38  N         11.5580   -7.0140   21.8920 N.3    36  LYS36      -0.1245
     39  CA        11.6280   -8.1060   20.9450 C.3    36  LYS36       0.1561
     40  C         12.6540   -9.1300   21.4260 C.2    36  LYS36       0.2260
     41  O         13.7920   -8.7930   21.6730 O.2    36  LYS36      -0.2867
     42  CB        12.0370   -7.5830   19.5820 C.3    36  LYS36       0.0271
     43  CG        12.0670   -8.6470   18.5130 C.3    36  LYS36       0.0035
     44  CD        12.6060   -8.0460   17.2340 C.3    36  LYS36       0.0206
     45  CE        12.0310   -8.7220   16.0130 C.3    36  LYS36       0.1093
     46  NZ        13.0650   -8.6870   14.9630 N.3    36  LYS36      -0.1314
     47  N          9.4590    3.6620   14.6990 N.3    56  ILE56      -0.1245
     48  CA         9.5660    3.1260   16.0410 C.3    56  ILE56       0.1561
     49  C         11.0040    3.3690   16.5810 C.2    56  ILE56       0.2260
     50  O         11.9530    2.9180   15.9820 O.2    56  ILE56      -0.2867
     51  CB         9.2440    1.6530   16.0840 C.3    56  ILE56       0.0252
     52  CG1        7.7550    1.4170   16.0750 C.3    56  ILE56       0.0019
     53  CG2        9.8310    0.9990   17.3260 C.3    56  ILE56       0.0019
     54  CD1        7.0130    1.9130   17.3210 C.3    56  ILE56       0.0001
     55  N         12.3070   -1.2020   22.5290 N.3    72  MET72      -0.1230
     56  CA        11.7820   -0.2520   21.5520 C.3    72  MET72       0.1702
     57  C         10.5510    0.4340   22.0440 C.2    72  MET72       0.2592
     58  O          9.8090   -0.0750   22.8650 O.2    72  MET72      -0.2718
     59  CB        11.3690   -0.9810   20.2700 C.3    72  MET72       0.0401
     60  CG        12.4460   -1.7630   19.5410 C.3    72  MET72       0.0596
     61  SD        11.7500   -2.8650   18.2640 S.3    72  MET72      -0.1393
     62  CE        10.6570   -3.9850   19.1320 C.3    72  MET72       0.0692
     63  N         10.2990    1.5720   21.4500 N.am   73  GLU73      -0.1966
     64  CA         9.1050    2.3410   21.7300 C.3    73  GLU73       0.1733
     65  C          7.8660    1.4470   21.6210 C.2    73  GLU73       0.2616
     66  O          7.6810    0.7050   20.6450 O.2    73  GLU73      -0.2715
     67  CB         9.0850    3.4790   20.7240 C.3    73  GLU73       0.0429
     68  CG         8.0160    4.5140   20.8770 C.3    73  GLU73       0.1163
     69  CD         7.9780    5.4320   19.6610 C.2    73  GLU73       0.3649
     70  OE1        7.0560    6.2370   19.5580 O.co2  73  GLU73      -0.2457
     71  OE2        8.8730    5.3670   18.7970 O.co2  73  GLU73      -0.2457
     72  N          6.9950    1.5310   22.6170 N.am   74  LEU74      -0.1963
     73  CA         5.7290    0.8750   22.6030 C.3    74  LEU74       0.1728
     74  C          4.6840    1.7300   21.7940 C.2    74  LEU74       0.2616
     75  O          4.6410    2.9310   21.8830 O.2    74  LEU74      -0.2715
     76  CB         5.1910    0.7380   24.0020 C.3    74  LEU74       0.0311
     77  CG         3.8000    0.1190   24.1080 C.3    74  LEU74       0.0022
     78  CD1        3.8000   -1.3300   23.6240 C.3    74  LEU74       0.0001
     79  CD2        3.3480    0.1490   25.5820 C.3    74  LEU74       0.0001
     80  N          3.8570    1.0480   21.0450 N.am   75  ALA75      -0.1977
     81  CA         2.7630    1.6490   20.2910 C.3    75  ALA75       0.1597
     82  C          1.5630    0.8720   20.8020 C.2    75  ALA75       0.2287
     83  O          1.3600   -0.2880   20.4800 O.2    75  ALA75      -0.2864
     84  CB         2.9950    1.4600   18.8040 C.3    75  ALA75       0.0319
     85  N         -2.2050   -0.5520   18.7470 N.3    78  GLY78      -0.1225
     86  CA        -2.3600   -1.6980   17.8400 C.3    78  GLY78       0.1811
     87  C         -1.8050   -1.3260   16.4670 C.2    78  GLY78       0.2280
     88  O         -0.9410   -0.5090   16.3670 O.2    78  GLY78      -0.2866
     89  N          0.2650   -4.6430    9.0020 N.3   122  HIS122     -0.1226
     90  CA         0.7360   -5.2030   10.2510 C.3   122  HIS122      0.1752
     91  C          1.9470   -4.5620   10.8010 C.2   122  HIS122      0.2596
     92  O          2.1450   -4.6190   12.0030 O.2   122  HIS122     -0.2718
     93  CB         1.0400   -6.7120   10.0990 C.3   122  HIS122      0.0759
     94  CG        -0.1830   -7.5420   10.1530 C.ar  122  HIS122      0.0818
     95  ND1       -0.7800   -8.0700    9.0290 N.ar  122  HIS122     -0.2268
     96  CD2       -0.9700   -7.8880   11.2040 C.ar  122  HIS122      0.1154
     97  CE1       -1.8750   -8.7320    9.3910 C.ar  122  HIS122      0.1986
     98  NE2       -1.9950   -8.6560   10.7050 N.ar  122  HIS122     -0.2212
     99  N          2.7660   -3.9300    9.9410 N.am  123  ASN123     -0.1974
    100  CA         4.0220   -3.2690   10.3760 C.3   123  ASN123      0.1688
    101  C          3.8350   -1.8030   10.5820 C.2   123  ASN123      0.2292
    102  O          4.8140   -1.0820   10.7960 O.2   123  ASN123     -0.2864
    103  CB         5.1010   -3.5330    9.3190 C.3   123  ASN123      0.1181
    104  CG         5.6490   -4.9590    9.4140 C.2   123  ASN123      0.2629
    105  OD1        5.5410   -5.5780   10.4730 O.2   123  ASN123     -0.2716
    106  ND2        6.2630   -5.4640    8.3600 N.am  123  ASN123     -0.0877
    107  N          2.2110    0.5580   12.9940 N.3   125  LEU125     -0.1245
    108  CA         1.6240    0.5640   14.3440 C.3   125  LEU125      0.1561
    109  C          1.1180    1.9560   14.7320 C.2   125  LEU125      0.2260
    110  O          1.5530    2.9580   14.1980 O.2   125  LEU125     -0.2867
    111  CB         2.6080    0.0520   15.3590 C.3   125  LEU125      0.0270
    112  CG         3.3140   -1.2420   15.0120 C.3   125  LEU125      0.0019
    113  CD1        4.3240   -1.5720   16.1090 C.3   125  LEU125      0.0001
    114  CD2        2.3620   -2.4070   14.7940 C.3   125  LEU125      0.0001
    115  N          7.3710   -0.0050   11.8870 N.3   135  ALA135     -0.1231
    116  CA         8.0440   -0.9230   12.7490 C.3   135  ALA135      0.1694
    117  C          8.5570   -2.1350   11.9830 C.2   135  ALA135      0.2592
    118  O          8.1680   -2.4210   10.8240 O.2   135  ALA135     -0.2718
    119  CB         7.0890   -1.3710   13.8430 C.3   135  ALA135      0.0304
    120  N          9.4180   -2.8610   12.6750 N.am  136  ASP136     -0.1974
    121  CA        10.0020   -4.1250   12.2420 C.3   136  ASP136      0.1709
    122  C         11.0470   -3.9230   11.1970 C.2   136  ASP136      0.2293
    123  O         10.7350   -3.8860   10.0110 O.2   136  ASP136     -0.2864
    124  CB         8.9790   -5.1440   11.7600 C.3   136  ASP136      0.1436
    125  CG         9.6000   -6.5500   11.5650 C.2   136  ASP136      0.3671
    126  OD1       10.8050   -6.7650   11.7980 O.co2 136  ASP136     -0.2456
    127  OD2        8.8680   -7.4410   11.0920 O.co2 136  ASP136     -0.2456
@<TRIPOS>BOND
     1   106   104   am
     2    89    90    1
     3    95    97   ar
     4    95    94   ar
     5   103   104    1
     6   103   100    1
     7    97    98   ar
     8   104   105    2
     9    99   100    1
    10    99    91   am
    11   123   122    2
    12    93    94    1
    13    93    90    1
    14    94    96   ar
    15    90    91    1
    16   100   101    1
    17   101   102    2
    18    98    96   ar
    19    91    92    2
    20   118   117    2
    21   127   125   ar
    22   122   121    1
    23   125   124    1
    24   125   126   ar
    25   124   121    1
    26   115   116    1
    27   117   120   am
    28   117   116    1
    29   121   120    1
    30   116   119    1
    31    24    25    2
    32    24    23    1
    33   107   108    1
    34    23    22    1
    35   110   109    2
    36   108   109    1
    37   108   111    1
    38    47    48    1
    39   114   112    1
    40    16    15    2
    41    46    45    1
    42   112   111    1
    43   112   113    1
    44    22    15   am
    45    15    14    1
    46    50    49    2
    47    45    44    1
    48    48    51    1
    49    48    49    1
    50    52    51    1
    51    52    54    1
    52    51    53    1
    53    88    87    2
    54    17    14    1
    55    17    18    1
    56    87    86    1
    57    14    13    1
    58    44    43    1
    59    13    11   am
    60    20    19   ar
    61    18    19    1
    62    86    85    1
    63    19    21   ar
    64    61    62    1
    65    61    60    1
    66    11    10    1
    67    11    12    2
    68    43    42    1
    69    71    69   ar
    70    84    81    1
    71    32    30    1
    72    10     9    1
    73    60    59    1
    74    70    69   ar
    75     4     3    2
    76    42    39    1
    77    69    68    1
    78    30    31    1
    79    30    27    1
    80     9     3   am
    81    59    56    1
    82    81    82    1
    83    81    80    1
    84     3     2    1
    85    83    82    2
    86    26    27    1
    87    66    65    2
    88    67    68    1
    89    67    64    1
    90    39    40    1
    91    39    38    1
    92    80    74   am
    93    27    28    1
    94    40    41    2
    95    63    64    1
    96    63    57   am
    97    56    57    1
    98    56    55    1
    99    65    64    1
   100    65    72   am
   101     5     2    1
   102     5     6    1
   103     2     1    1
   104    74    75    2
   105    74    73    1
   106    57    58    2
   107    28    29    2
   108    37    34    1
   109    73    72    1
   110    73    76    1
   111     6     7    1
   112     6     8    1
   113    36    35    2
   114    78    77    1
   115    35    34    1
   116    34    33    1
   117    76    77    1
   118    77    79    1
