@<TRIPOS>MOLECULE
tmp/5opuA00.pdb
 127 118 0 0 0
SMALL
GASTEIGER

@<TRIPOS>ATOM
      1  N          2.6510   -9.2830   22.5470 N.3    13  LEU13      -0.1231
      2  CA         2.0020   -8.3200   21.6690 C.3    13  LEU13       0.1693
      3  C          1.9000   -8.9410   20.2820 C.2    13  LEU13       0.2593
      4  O          1.0200   -8.5740   19.5220 O.2    13  LEU13      -0.2718
      5  CB         2.7940   -7.0300   21.6120 C.3    13  LEU13       0.0284
      6  CG         2.7610   -6.2580   22.9400 C.3    13  LEU13       0.0019
      7  CD1        3.8230   -5.1700   22.9450 C.3    13  LEU13       0.0001
      8  CD2        1.3560   -5.7360   23.2140 C.3    13  LEU13       0.0001
      9  N          2.7600   -9.8900   19.9690 N.am   14  GLY14      -0.1942
     10  CA         2.6270  -10.6630   18.7130 C.3    14  GLY14       0.2014
     11  C          3.9940  -11.1390   18.2580 C.2    14  GLY14       0.2639
     12  O          4.9080  -11.2420   19.0940 O.2    14  GLY14      -0.2714
     13  N          4.1520  -11.3950   16.9380 N.am   15  GLU15      -0.1963
     14  CA         5.4100  -11.8310   16.3370 C.3    15  GLU15       0.1733
     15  C          5.7620  -11.0230   15.0980 C.2    15  GLU15       0.2616
     16  O          4.9450  -10.9270   14.2020 O.2    15  GLU15      -0.2715
     17  CB         5.3200  -13.2960   15.9550 C.3    15  GLU15       0.0429
     18  CG         5.2100  -14.2090   17.1720 C.3    15  GLU15       0.1163
     19  CD         5.5270  -15.6420   16.8500 C.2    15  GLU15       0.3649
     20  OE1        6.4440  -15.8660   16.0290 O.co2  15  GLU15      -0.2457
     21  OE2        4.8790  -16.5400   17.4320 O.co2  15  GLU15      -0.2457
     22  N          6.9720  -10.4420   15.0520 N.am   16  GLY16      -0.1955
     23  CA         7.4590   -9.6990   13.8690 C.3    16  GLY16       0.1869
     24  C          8.0950  -10.6580   12.8740 C.2    16  GLY16       0.2309
     25  O          7.8480  -11.8830   12.9370 O.2    16  GLY16      -0.2863
     26  N          7.3630  -10.2850   20.3650 N.3    21  VAL21      -0.1245
     27  CA         7.3850   -8.9550   20.9620 C.3    21  VAL21       0.1561
     28  C          6.5010   -9.0020   22.2250 C.2    21  VAL21       0.2260
     29  O          5.3460   -9.4200   22.1810 O.2    21  VAL21      -0.2867
     30  CB         6.8720   -7.8600   19.9690 C.3    21  VAL21       0.0252
     31  CG1        6.8520   -6.4850   20.6120 C.3    21  VAL21       0.0019
     32  CG2        7.7280   -7.8380   18.6880 C.3    21  VAL21       0.0019
     33  N          8.0170   -1.7670   24.4380 N.3    34  ALA34      -0.1245
     34  CA         7.9430   -3.0650   23.7760 C.3    34  ALA34       0.1562
     35  C          9.3080   -3.6300   23.7100 C.2    34  ALA34       0.2260
     36  O         10.3240   -2.9220   23.5790 O.2    34  ALA34      -0.2867
     37  CB         7.3610   -2.9100   22.3380 C.3    34  ALA34       0.0290
     38  N         11.4540   -6.8230   21.8790 N.3    36  LYS36      -0.1245
     39  CA        11.5900   -7.9090   20.9560 C.3    36  LYS36       0.1561
     40  C         12.6700   -8.8570   21.5120 C.2    36  LYS36       0.2260
     41  O         13.7640   -8.4360   21.8650 O.2    36  LYS36      -0.2867
     42  CB        11.9830   -7.4030   19.5570 C.3    36  LYS36       0.0271
     43  CG        12.2440   -8.4980   18.5230 C.3    36  LYS36       0.0035
     44  CD        12.8700   -7.8680   17.2660 C.3    36  LYS36       0.0206
     45  CE        12.8720   -8.7900   16.0660 C.3    36  LYS36       0.1093
     46  NZ        13.2530   -8.1030   14.7740 N.3    36  LYS36      -0.1314
     47  N          9.4470    3.9220   14.7640 N.3    58  ILE58      -0.1245
     48  CA         9.5350    3.4040   16.1610 C.3    58  ILE58       0.1561
     49  C         10.9490    3.7000   16.6360 C.2    58  ILE58       0.2260
     50  O         11.9070    3.2940   15.9860 O.2    58  ILE58      -0.2867
     51  CB         9.2480    1.9270   16.1890 C.3    58  ILE58       0.0252
     52  CG1        7.7610    1.6530   16.1480 C.3    58  ILE58       0.0019
     53  CG2        9.7240    1.2480   17.5210 C.3    58  ILE58       0.0019
     54  CD1        6.9010    2.1930   17.3240 C.3    58  ILE58       0.0001
     55  N         12.1220   -0.9430   22.5950 N.3    74  MET74      -0.1230
     56  CA        11.6170    0.0010   21.6200 C.3    74  MET74       0.1702
     57  C         10.3910    0.6620   22.1540 C.2    74  MET74       0.2592
     58  O          9.6770    0.1420   23.0250 O.2    74  MET74      -0.2718
     59  CB        11.1590   -0.8430   20.4020 C.3    74  MET74       0.0401
     60  CG        12.2370   -1.5990   19.6970 C.3    74  MET74       0.0596
     61  SD        11.4200   -2.6160   18.4220 S.3    74  MET74      -0.1393
     62  CE        10.5590   -3.9140   19.2510 C.3    74  MET74       0.0692
     63  N         10.1010    1.8170   21.5840 N.am   75  GLU75      -0.1966
     64  CA         8.9060    2.5490   21.8420 C.3    75  GLU75       0.1733
     65  C          7.6880    1.6740   21.7060 C.2    75  GLU75       0.2616
     66  O          7.5410    0.9320   20.6950 O.2    75  GLU75      -0.2715
     67  CB         8.8920    3.7320   20.8060 C.3    75  GLU75       0.0429
     68  CG         7.7050    4.6270   20.7830 C.3    75  GLU75       0.1163
     69  CD         7.7720    5.6520   19.6770 C.2    75  GLU75       0.3649
     70  OE1        6.8190    6.4430   19.6400 O.co2  75  GLU75      -0.2457
     71  OE2        8.6840    5.6650   18.7960 O.co2  75  GLU75      -0.2457
     72  N          6.7670    1.7380   22.6450 N.am   76  LEU76      -0.1963
     73  CA         5.5210    1.0160   22.5760 C.3    76  LEU76       0.1728
     74  C          4.4680    1.7880   21.7960 C.2    76  LEU76       0.2616
     75  O          4.3150    2.9760   22.0070 O.2    76  LEU76      -0.2715
     76  CB         4.9710    0.7220   23.9860 C.3    76  LEU76       0.0311
     77  CG         3.5800    0.0870   24.1070 C.3    76  LEU76       0.0022
     78  CD1        3.5340   -1.3920   23.6460 C.3    76  LEU76       0.0001
     79  CD2        3.1490    0.1770   25.5960 C.3    76  LEU76       0.0001
     80  N          3.7340    1.1110   20.9170 N.am   77  ALA77      -0.1977
     81  CA         2.6010    1.7380   20.2370 C.3    77  ALA77       0.1597
     82  C          1.3060    1.3140   20.8910 C.2    77  ALA77       0.2287
     83  O          0.8100    0.2120   20.7150 O.2    77  ALA77      -0.2864
     84  CB         2.6450    1.3330   18.7340 C.3    77  ALA77       0.0319
     85  N         -1.9300    0.0990   18.8350 N.3    80  GLY80      -0.1225
     86  CA        -1.9730   -1.1470   18.0880 C.3    80  GLY80       0.1811
     87  C         -1.5540   -0.8120   16.6260 C.2    80  GLY80       0.2280
     88  O         -0.8600    0.1590   16.4230 O.2    80  GLY80      -0.2866
     89  N          0.3760   -4.5610    9.1530 N.3   124  HIS124     -0.1226
     90  CA         0.8940   -5.1260   10.3790 C.3   124  HIS124      0.1752
     91  C          2.1180   -4.4870   10.9380 C.2   124  HIS124      0.2596
     92  O          2.3320   -4.5570   12.1920 O.2   124  HIS124     -0.2718
     93  CB         1.1900   -6.6600   10.2000 C.3   124  HIS124      0.0759
     94  CG         0.0110   -7.5100   10.3620 C.ar  124  HIS124      0.0818
     95  ND1       -0.7220   -7.5410   11.5400 N.ar  124  HIS124     -0.2268
     96  CD2       -0.5740   -8.3850    9.5140 C.ar  124  HIS124      0.1154
     97  CE1       -1.7100   -8.4150   11.4100 C.ar  124  HIS124      0.1986
     98  NE2       -1.6620   -8.9140   10.1850 N.ar  124  HIS124     -0.2212
     99  N          2.9410   -3.8090   10.1100 N.am  125  ASN125     -0.1974
    100  CA         4.1760   -3.1330   10.5520 C.3   125  ASN125      0.1688
    101  C          3.9700   -1.6470   10.7180 C.2   125  ASN125      0.2292
    102  O          4.9610   -0.9140   10.9060 O.2   125  ASN125     -0.2864
    103  CB         5.2690   -3.4040    9.4720 C.3   125  ASN125      0.1181
    104  CG         5.7460   -4.8180    9.5290 C.2   125  ASN125      0.2629
    105  OD1        5.6870   -5.4260   10.6650 O.2   125  ASN125     -0.2716
    106  ND2        6.2840   -5.3490    8.4280 N.am  125  ASN125     -0.0877
    107  N          2.3010    0.9540   13.0380 N.3   127  LEU127     -0.1245
    108  CA         1.6790    1.0280   14.3640 C.3   127  LEU127      0.1561
    109  C          1.1830    2.4380   14.6830 C.2   127  LEU127      0.2260
    110  O          1.5080    3.4230   14.0300 O.2   127  LEU127     -0.2867
    111  CB         2.7380    0.5520   15.3470 C.3   127  LEU127      0.0270
    112  CG         3.3700   -0.8190   15.0660 C.3   127  LEU127      0.0019
    113  CD1        4.4320   -1.1180   16.1620 C.3   127  LEU127      0.0001
    114  CD2        2.3800   -1.9610   14.9020 C.3   127  LEU127      0.0001
    115  N          7.3790    0.2910   11.9800 N.3   137  ALA137     -0.1231
    116  CA         8.0230   -0.7180   12.8300 C.3   137  ALA137      0.1694
    117  C          8.6390   -1.8900   12.0690 C.2   137  ALA137      0.2592
    118  O          8.2920   -2.1540   10.9130 O.2   137  ALA137     -0.2718
    119  CB         6.9600   -1.1780   13.8080 C.3   137  ALA137      0.0304
    120  N          9.5480   -2.5880   12.7830 N.am  138  ASP138     -0.1974
    121  CA        10.2090   -3.8380   12.4180 C.3   138  ASP138      0.1709
    122  C         11.2660   -3.5940   11.3570 C.2   138  ASP138      0.2293
    123  O         10.9280   -3.5230   10.1280 O.2   138  ASP138     -0.2864
    124  CB         9.2370   -4.9110   11.9460 C.3   138  ASP138      0.1436
    125  CG         9.8680   -6.3500   11.9440 C.2   138  ASP138      0.3671
    126  OD1       11.0180   -6.5700   11.5450 O.co2 138  ASP138     -0.2456
    127  OD2        9.1570   -7.2800   12.3080 O.co2 138  ASP138     -0.2456
@<TRIPOS>BOND
     1   106   104   am
     2    89    90    1
     3   103   104    1
     4   103   100    1
     5    96    98   ar
     6    96    94   ar
     7   104   105    2
     8    99   100    1
     9    99    91   am
    10   123   122    2
    11    98    97   ar
    12    93    94    1
    13    93    90    1
    14    94    95   ar
    15    90    91    1
    16   100   101    1
    17   101   102    2
    18   118   117    2
    19    91    92    2
    20   122   121    1
    21    97    95   ar
    22   126   125   ar
    23   125   124    1
    24   125   127   ar
    25   124   121    1
    26   115   116    1
    27   117   120   am
    28   117   116    1
    29   121   120    1
    30   116   119    1
    31    24    25    2
    32    24    23    1
    33   107   108    1
    34    23    22    1
    35   110   109    2
    36    16    15    2
    37   108   109    1
    38   108   111    1
    39    47    48    1
    40    46    45    1
    41   114   112    1
    42    22    15   am
    43   112   111    1
    44   112   113    1
    45    15    14    1
    46    17    14    1
    47    17    18    1
    48    50    49    2
    49    20    19   ar
    50    45    44    1
    51    52    51    1
    52    52    54    1
    53    48    51    1
    54    48    49    1
    55    51    53    1
    56    14    13    1
    57    88    87    2
    58    87    86    1
    59    19    18    1
    60    19    21   ar
    61    13    11   am
    62    44    43    1
    63    86    85    1
    64    11    10    1
    65    11    12    2
    66    61    62    1
    67    61    60    1
    68    43    42    1
    69    32    30    1
    70    10     9    1
    71    84    81    1
    72    71    69   ar
    73     4     3    2
    74    42    39    1
    75    70    69   ar
    76    69    68    1
    77    60    59    1
    78     9     3   am
    79    30    31    1
    80    30    27    1
    81    81    82    1
    82    81    80    1
    83     3     2    1
    84    26    27    1
    85    59    56    1
    86    66    65    2
    87    83    82    2
    88    68    67    1
    89    67    64    1
    90    80    74   am
    91    39    40    1
    92    39    38    1
    93    27    28    1
    94    40    41    2
    95    63    64    1
    96    63    57   am
    97     5     2    1
    98     5     6    1
    99    56    57    1
   100    56    55    1
   101     2     1    1
   102    65    64    1
   103    65    72   am
   104    74    75    2
   105    74    73    1
   106    57    58    2
   107    29    28    2
   108    37    34    1
   109    73    72    1
   110    73    76    1
   111     6     7    1
   112     6     8    1
   113    36    35    2
   114    78    77    1
   115    35    34    1
   116    34    33    1
   117    76    77    1
   118    77    79    1
