@<TRIPOS>MOLECULE
tmp/5opvA00.pdb
 147 137 0 0 0
SMALL
GASTEIGER

@<TRIPOS>ATOM
      1  N        -20.2320   -9.4060   22.7160 N.3    13  LEU13      -0.1231
      2  CA       -20.8270   -8.5550   21.7110 C.3    13  LEU13       0.1693
      3  C        -20.8410   -9.2270   20.3600 C.2    13  LEU13       0.2593
      4  O        -21.5480   -8.8370   19.4880 O.2    13  LEU13      -0.2718
      5  CB       -20.0240   -7.2970   21.6350 C.3    13  LEU13       0.0284
      6  CG       -19.9770   -6.5370   22.9240 C.3    13  LEU13       0.0019
      7  CD1      -19.0710   -5.3320   22.7540 C.3    13  LEU13       0.0001
      8  CD2      -21.4080   -6.1610   23.3490 C.3    13  LEU13       0.0001
      9  N        -20.0560  -10.2480   20.1960 N.am   14  GLY14      -0.1942
     10  CA       -20.2140  -11.0770   19.0460 C.3    14  GLY14       0.2014
     11  C        -18.9270  -11.8080   18.7540 C.2    14  GLY14       0.2639
     12  O        -17.8970  -11.5800   19.3960 O.2    14  GLY14      -0.2714
     13  N        -19.0090  -12.7200   17.8030 N.am   15  GLU15      -0.1963
     14  CA       -17.8110  -13.2320   17.1540 C.3    15  GLU15       0.1733
     15  C        -17.6440  -12.4060   15.8530 C.2    15  GLU15       0.2616
     16  O        -18.6190  -12.1620   15.1170 O.2    15  GLU15      -0.2715
     17  CB       -17.8660  -14.7520   16.9770 C.3    15  GLU15       0.0429
     18  CG       -19.1440  -15.2730   16.3380 C.3    15  GLU15       0.1163
     19  CD       -18.8900  -16.3480   15.3120 C.2    15  GLU15       0.3649
     20  OE1      -17.9810  -16.1630   14.4700 O.co2  15  GLU15      -0.2457
     21  OE2      -19.6060  -17.3710   15.3430 O.co2  15  GLU15      -0.2457
     22  N        -16.4350  -11.8710   15.6720 N.am   16  GLY16      -0.1955
     23  CA       -16.0170  -11.2100   14.4310 C.3    16  GLY16       0.1869
     24  C        -15.2080  -12.2000   13.6120 C.2    16  GLY16       0.2309
     25  O        -15.3290  -13.4200   13.8350 O.2    16  GLY16      -0.2863
     26  N        -15.6240  -10.7750   20.6000 N.3    21  VAL21      -0.1245
     27  CA       -15.5840   -9.4240   21.1000 C.3    21  VAL21       0.1561
     28  C        -16.4520   -9.4000   22.3500 C.2    21  VAL21       0.2260
     29  O        -17.5390   -9.9340   22.3490 O.2    21  VAL21      -0.2867
     30  CB       -16.1050   -8.4130   20.0400 C.3    21  VAL21       0.0252
     31  CG1      -15.9230   -6.9890   20.5390 C.3    21  VAL21       0.0019
     32  CG2      -15.3760   -8.6080   18.7220 C.3    21  VAL21       0.0019
     33  N        -14.8050   -2.1910   24.4000 N.3    34  ALA34      -0.1245
     34  CA       -14.8620   -3.5050   23.7300 C.3    34  ALA34       0.1562
     35  C        -13.4630   -4.1240   23.6700 C.2    34  ALA34       0.2260
     36  O        -12.4380   -3.4330   23.4540 O.2    34  ALA34      -0.2867
     37  CB       -15.4390   -3.3720   22.3230 C.3    34  ALA34       0.0290
     38  N        -11.3480   -7.3980   21.9160 N.3    36  LYS36      -0.1245
     39  CA       -11.3040   -8.5000   20.9680 C.3    36  LYS36       0.1561
     40  C        -10.2890   -9.4580   21.5470 C.2    36  LYS36       0.2260
     41  O         -9.1420   -9.0540   21.8260 O.2    36  LYS36      -0.2867
     42  CB       -10.8230   -7.9880   19.6270 C.3    36  LYS36       0.0271
     43  CG       -10.7980   -9.0080   18.5160 C.3    36  LYS36       0.0035
     44  CD       -10.0530   -8.4000   17.3530 C.3    36  LYS36       0.0206
     45  CE       -10.3470   -9.1430   16.0830 C.3    36  LYS36       0.1093
     46  NZ        -9.5590   -8.5070   15.0130 N.3    36  LYS36      -0.1314
     47  N        -13.2390    3.3300   14.6840 N.3    59  ILE59      -0.1245
     48  CA       -13.0680    2.7960   16.0310 C.3    59  ILE59       0.1561
     49  C        -11.6580    3.0830   16.5340 C.2    59  ILE59       0.2260
     50  O        -10.6870    2.8170   15.8390 O.2    59  ILE59      -0.2867
     51  CB       -13.4130    1.2990   16.1300 C.3    59  ILE59       0.0252
     52  CG1      -14.9060    1.1620   15.9800 C.3    59  ILE59       0.0019
     53  CG2      -12.9580    0.7080   17.4880 C.3    59  ILE59       0.0019
     54  CD1      -15.6980    1.6390   17.1880 C.3    59  ILE59       0.0001
     55  N        -10.5660   -1.5500   22.5610 N.3    75  MET75      -0.1230
     56  CA       -11.0930   -0.6460   21.5570 C.3    75  MET75       0.1702
     57  C        -12.3200    0.1120   22.0670 C.2    75  MET75       0.2592
     58  O        -13.1040   -0.3690   22.9130 O.2    75  MET75      -0.2718
     59  CB       -11.5490   -1.4510   20.3480 C.3    75  MET75       0.0401
     60  CG       -10.4530   -2.2040   19.5990 C.3    75  MET75       0.0596
     61  SD       -11.1640   -3.2240   18.2740 S.3    75  MET75      -0.1393
     62  CE       -12.2970   -4.2240   19.2070 C.3    75  MET75       0.0692
     63  N        -12.5390    1.2600   21.4510 N.am   76  GLU76      -0.1966
     64  CA       -13.7270    2.0810   21.7480 C.3    76  GLU76       0.1733
     65  C        -14.9880    1.2520   21.5690 C.2    76  GLU76       0.2616
     66  O        -15.1360    0.5010   20.6050 O.2    76  GLU76      -0.2715
     67  CB       -13.7010    3.3540   20.8790 C.3    76  GLU76       0.0429
     68  CG       -15.0290    3.9780   20.5090 C.3    76  GLU76       0.1163
     69  CD       -14.8700    5.1800   19.5310 C.2    76  GLU76       0.3649
     70  OE1      -15.7440    6.0650   19.6090 O.co2  76  GLU76      -0.2457
     71  OE2      -13.9430    5.2590   18.6750 O.co2  76  GLU76      -0.2457
     72  N        -15.8860    1.3370   22.5230 N.am   77  LEU77      -0.1963
     73  CA       -17.1330    0.6110   22.3970 C.3    77  LEU77       0.1728
     74  C        -18.1130    1.4750   21.5940 C.2    77  LEU77       0.2616
     75  O        -18.1200    2.6980   21.6680 O.2    77  LEU77      -0.2715
     76  CB       -17.7210    0.3170   23.7480 C.3    77  LEU77       0.0311
     77  CG       -19.1670   -0.2210   23.7720 C.3    77  LEU77       0.0022
     78  CD1      -19.2310   -1.7330   23.5760 C.3    77  LEU77       0.0001
     79  CD2      -19.8590    0.2350   25.0870 C.3    77  LEU77       0.0001
     80  N        -18.9490    0.8360   20.8180 N.am   78  ALA78      -0.1963
     81  CA       -19.9950    1.5450   20.1020 C.3    78  ALA78       0.1728
     82  C        -21.2510    1.0190   20.7310 C.2    78  ALA78       0.2616
     83  O        -21.7170   -0.0750   20.4390 O.2    78  ALA78      -0.2715
     84  CB       -19.9220    1.2650   18.6230 C.3    78  ALA78       0.0334
     85  N        -21.8150    1.7970   21.6290 N.am   79  SER79      -0.1950
     86  CA       -22.8960    1.2530   22.4470 C.3    79  SER79       0.1924
     87  C        -24.1710    1.0310   21.6840 C.2    79  SER79       0.2314
     88  O        -25.0170    0.3410   22.1890 O.2    79  SER79      -0.2863
     89  CB       -23.1530    2.1610   23.6710 C.3    79  SER79       0.2116
     90  OG       -23.4610    3.4850   23.2720 O.3    79  SER79      -0.2180
     91  N        -24.4800   -0.5340   18.6670 N.3    81  GLY81      -0.1210
     92  CA       -24.4740   -1.7670   17.8440 C.3    81  GLY81       0.1956
     93  C        -24.1770   -1.4790   16.4030 C.2    81  GLY81       0.2612
     94  O        -23.5540   -0.4830   16.0930 O.2    81  GLY81      -0.2717
     95  N        -24.6490   -2.3300   15.5110 N.am   82  SER82      -0.1952
     96  CA       -24.2960   -2.2610   14.1280 C.3    82  SER82       0.1924
     97  C        -25.3590   -1.6030   13.2630 C.2    82  SER82       0.2314
     98  O        -26.5410   -1.5900   13.5680 O.2    82  SER82      -0.2863
     99  CB       -23.9730   -3.6630   13.5690 C.3    82  SER82       0.2116
    100  OG       -25.1670   -4.3600   13.3370 O.3    82  SER82      -0.2180
    101  N        -28.1290   -3.9040   12.0590 N.3    85  ASP85      -0.1239
    102  CA       -29.3500   -3.9570   12.8730 C.3    85  ASP85       0.1674
    103  C        -30.3040   -2.7850   12.7760 C.2    85  ASP85       0.2266
    104  O        -31.3610   -2.8850   13.2910 O.2    85  ASP85      -0.2867
    105  CB       -29.0150   -4.2910   14.3350 C.3    85  ASP85       0.1410
    106  CG       -28.5080   -5.7500   14.4950 C.2    85  ASP85       0.3668
    107  OD1      -28.9080   -6.6150   13.7080 O.co2  85  ASP85      -0.2456
    108  OD2      -27.6720   -6.0430   15.3420 O.co2  85  ASP85      -0.2456
    109  N        -22.3010   -4.9730    8.8380 N.3   125  HIS125     -0.1226
    110  CA       -21.8030   -5.5740   10.0800 C.3   125  HIS125      0.1752
    111  C        -20.5770   -4.9230   10.6920 C.2   125  HIS125      0.2596
    112  O        -20.3020   -5.0980   11.8730 O.2   125  HIS125     -0.2718
    113  CB       -21.4660   -7.0810    9.8550 C.3   125  HIS125      0.0759
    114  CG       -22.6710   -7.9710    9.8610 C.ar  125  HIS125      0.0818
    115  ND1      -23.1020   -8.6400    8.7330 N.ar  125  HIS125     -0.2268
    116  CD2      -23.5630   -8.2710   10.8510 C.ar  125  HIS125      0.1154
    117  CE1      -24.2070   -9.3130    9.0290 C.ar  125  HIS125      0.1986
    118  NE2      -24.5010   -9.1190   10.3070 N.ar  125  HIS125     -0.2212
    119  N        -19.7530   -4.2750    9.8770 N.am  126  ASN126     -0.1974
    120  CA       -18.5100   -3.6520   10.3510 C.3   126  ASN126      0.1688
    121  C        -18.6880   -2.1410   10.5890 C.2   126  ASN126      0.2292
    122  O        -17.7000   -1.4520   10.8200 O.2   126  ASN126     -0.2864
    123  CB       -17.4120   -3.8670    9.2490 C.3   126  ASN126      0.1181
    124  CG       -16.9200   -5.3140    9.2270 C.2   126  ASN126      0.2629
    125  OD1      -17.0230   -5.9690   10.2480 O.2   126  ASN126     -0.2716
    126  ND2      -16.3940   -5.8130    8.0950 N.am  126  ASN126     -0.0877
    127  N        -20.4480    0.4650   12.8540 N.3   128  LEU128     -0.1245
    128  CA       -20.9830    0.5170   14.1720 C.3   128  LEU128      0.1561
    129  C        -21.4560    1.9580   14.5500 C.2   128  LEU128      0.2260
    130  O        -21.0770    2.9330   13.9140 O.2   128  LEU128     -0.2867
    131  CB       -19.9270    0.0200   15.1550 C.3   128  LEU128      0.0270
    132  CG       -19.3760   -1.4030   14.9300 C.3   128  LEU128      0.0019
    133  CD1      -18.3880   -1.7840   16.0340 C.3   128  LEU128      0.0001
    134  CD2      -20.5040   -2.4010   14.8350 C.3   128  LEU128      0.0001
    135  N        -15.2570   -0.2690   11.8660 N.3   138  ALA138     -0.1231
    136  CA       -14.6380   -1.2170   12.7170 C.3   138  ALA138      0.1694
    137  C        -14.0630   -2.3750   11.9100 C.2   138  ALA138      0.2592
    138  O        -14.4710   -2.6570   10.7270 O.2   138  ALA138     -0.2718
    139  CB       -15.7160   -1.7610   13.6730 C.3   138  ALA138      0.0304
    140  N        -13.1760   -3.1160   12.5940 N.am  139  ASP139     -0.1974
    141  CA       -12.5790   -4.3920   12.0760 C.3   139  ASP139      0.1709
    142  C        -11.4920   -4.2170   11.0530 C.2   139  ASP139      0.2293
    143  O        -11.7500   -4.0660    9.8590 O.2   139  ASP139     -0.2864
    144  CB       -13.6000   -5.3930   11.4820 C.3   139  ASP139      0.1436
    145  CG       -13.0510   -6.8620   11.4620 C.2   139  ASP139      0.3671
    146  OD1      -11.8140   -7.0780   11.5050 O.co2 139  ASP139     -0.2456
    147  OD2      -13.8630   -7.7790   11.3940 O.co2 139  ASP139     -0.2456
@<TRIPOS>BOND
     1   126   124   am
     2   115   117   ar
     3   115   114   ar
     4   109   110    1
     5   117   118   ar
     6   124   123    1
     7   124   125    2
     8   123   120    1
     9   113   114    1
    10   113   110    1
    11   143   142    2
    12   114   116   ar
    13   119   120    1
    14   119   111   am
    15   110   111    1
    16   118   116   ar
    17   120   121    1
    18   121   122    2
    19   111   112    2
    20   138   137    2
    21   142   141    1
    22   147   145   ar
    23   145   144    1
    24   145   146   ar
    25   144   141    1
    26   135   136    1
    27   137   140   am
    28   137   136    1
    29   101   102    1
    30   141   140    1
    31   136   139    1
    32   103   102    1
    33   103   104    2
    34   127   128    1
    35   102   105    1
    36    97    98    2
    37    97    96    1
    38   100    99    1
    39    99    96    1
    40    24    25    2
    41    24    23    1
    42   107   106   ar
    43   130   129    2
    44    96    95    1
    45   128   129    1
    46   128   131    1
    47   105   106    1
    48    23    22    1
    49    20    19   ar
    50   106   108   ar
    51    47    48    1
    52   134   132    1
    53   132   131    1
    54   132   133    1
    55    46    45    1
    56    16    15    2
    57    19    21   ar
    58    19    18    1
    59    95    93   am
    60    22    15   am
    61    50    49    2
    62    15    14    1
    63    52    51    1
    64    52    54    1
    65    48    51    1
    66    48    49    1
    67    45    44    1
    68    94    93    2
    69    51    53    1
    70    18    17    1
    71    93    92    1
    72    17    14    1
    73    14    13    1
    74    44    43    1
    75    13    11   am
    76    92    91    1
    77    61    62    1
    78    61    60    1
    79    43    42    1
    80    84    81    1
    81    71    69   ar
    82    32    30    1
    83    11    10    1
    84    11    12    2
    85    10     9    1
    86     4     3    2
    87    69    70   ar
    88    69    68    1
    89    60    59    1
    90    42    39    1
    91    30    31    1
    92    30    27    1
    93    81    82    1
    94    81    80    1
    95     9     3   am
    96    59    56    1
    97     3     2    1
    98    83    82    2
    99    68    67    1
   100    26    27    1
   101    66    65    2
   102    82    85   am
   103    80    74   am
   104    67    64    1
   105    39    40    1
   106    39    38    1
   107    27    28    1
   108    63    64    1
   109    63    57   am
   110    40    41    2
   111    56    57    1
   112    56    55    1
   113    65    64    1
   114    65    72   am
   115    74    75    2
   116    74    73    1
   117    85    86    1
   118     5     2    1
   119     5     6    1
   120    87    88    2
   121    87    86    1
   122     2     1    1
   123    57    58    2
   124    37    34    1
   125    29    28    2
   126    73    72    1
   127    73    76    1
   128    86    89    1
   129     7     6    1
   130     6     8    1
   131    90    89    1
   132    36    35    2
   133    78    77    1
   134    35    34    1
   135    34    33    1
   136    76    77    1
   137    77    79    1
