@<TRIPOS>MOLECULE
tmp/5opxB00.pdb
 182 171 0 0 0
SMALL
GASTEIGER

@<TRIPOS>ATOM
      1  N        -23.7690  100.8570  -65.1770 N.3    29  THR29      -0.1203
      2  CA       -22.9040  101.5100  -66.1420 C.3    29  THR29       0.1994
      3  C        -22.9880  103.0250  -66.1170 C.2    29  THR29       0.2618
      4  O        -22.3910  103.6890  -66.9710 O.2    29  THR29      -0.2717
      5  CB       -23.2530  101.0900  -67.5720 C.3    29  THR29       0.1784
      6  OG1      -24.4190  101.7990  -68.0330 O.3    29  THR29      -0.2211
      7  CG2      -23.4800   99.6200  -67.6420 C.3    29  THR29       0.0376
      8  N        -23.7350  103.5830  -65.1750 N.am   30  LEU30      -0.1965
      9  CA       -23.9880  105.0080  -65.1940 C.3    30  LEU30       0.1728
     10  C        -22.8410  105.7930  -64.6130 C.2    30  LEU30       0.2617
     11  O        -22.4200  105.6050  -63.4690 O.2    30  LEU30      -0.2715
     12  CB       -25.2460  105.3550  -64.4190 C.3    30  LEU30       0.0311
     13  CG       -25.6580  106.8160  -64.5460 C.3    30  LEU30       0.0022
     14  CD1      -26.0780  107.1730  -65.9820 C.3    30  LEU30       0.0001
     15  CD2      -26.7410  107.0810  -63.5130 C.3    30  LEU30       0.0001
     16  N        -22.3470  106.7140  -65.4040 N.am   31  GLY31      -0.1941
     17  CA       -21.4740  107.7090  -64.8640 C.3    31  GLY31       0.1998
     18  C        -20.0440  107.3200  -65.0040 C.2    31  GLY31       0.2480
     19  O        -19.7390  106.2260  -65.4450 O.2    31  GLY31      -0.2729
     20  N        -19.1550  108.2350  -64.6410 N.am   32  PRO32      -0.2726
     21  CA       -17.7560  108.0230  -64.8680 C.3    32  PRO32       0.1402
     22  C        -17.2100  106.8660  -64.0710 C.2    32  PRO32       0.2269
     23  O        -16.2840  106.2090  -64.5630 O.2    32  PRO32      -0.2865
     24  CB       -17.1250  109.3460  -64.4430 C.3    32  PRO32       0.0296
     25  CG       -18.1130  109.9330  -63.5100 C.3    32  PRO32       0.0237
     26  CD       -19.4160  109.5780  -64.1190 C.3    32  PRO32       0.0939
     27  N        -20.5570   99.4010  -72.0500 N.3    50  LYS50      -0.1245
     28  CA       -21.1010  100.3550  -71.1020 C.3    50  LYS50       0.1561
     29  C        -22.4300  100.8970  -71.5630 C.2    50  LYS50       0.2260
     30  O        -23.1080  101.6030  -70.8050 O.2    50  LYS50      -0.2867
     31  CB       -20.1440  101.5500  -70.9690 C.3    50  LYS50       0.0271
     32  CG       -20.2410  102.2520  -69.6210 C.3    50  LYS50       0.0035
     33  CD       -19.0730  103.1290  -69.2820 C.3    50  LYS50       0.0206
     34  CE       -19.3420  103.8980  -67.9910 C.3    50  LYS50       0.1093
     35  NZ       -20.1860  105.1250  -68.2350 N.3    50  LYS50      -0.1314
     36  N        -25.9780  101.5340  -72.3460 N.3    52  GLY52      -0.1225
     37  CA       -27.0980  101.0670  -71.5460 C.3    52  GLY52       0.1811
     38  C        -28.1750  100.3570  -72.3330 C.2    52  GLY52       0.2280
     39  O        -28.6800   99.3320  -71.8880 O.2    52  GLY52      -0.2866
     40  N        -27.7200  109.1310  -76.9810 N.3    86  ASP86      -0.1225
     41  CA       -27.1330  108.9710  -75.6600 C.3    86  ASP86       0.1805
     42  C        -28.2500  109.0780  -74.6110 C.2    86  ASP86       0.2598
     43  O        -29.4340  109.3500  -74.9020 O.2    86  ASP86      -0.2718
     44  CB       -26.0200  110.0590  -75.4200 C.3    86  ASP86       0.1424
     45  CG       -24.8670  109.6040  -74.4520 C.2    86  ASP86       0.3668
     46  OD1      -24.9720  108.5550  -73.7680 O.co2  86  ASP86      -0.2456
     47  OD2      -23.8340  110.3020  -74.3870 O.co2  86  ASP86      -0.2456
     48  N        -27.8610  108.8620  -73.3640 N.am   87  GLY87      -0.1942
     49  CA       -28.7790  109.0590  -72.2550 C.3    87  GLY87       0.2014
     50  C        -29.6450  107.8430  -71.9460 C.2    87  GLY87       0.2640
     51  O        -30.5180  107.8900  -71.0660 O.2    87  GLY87      -0.2714
     52  N        -29.3550  106.7390  -72.6240 N.am   88  THR88      -0.1936
     53  CA       -30.1530  105.5330  -72.5150 C.3    88  THR88       0.2028
     54  C        -30.1490  104.9660  -71.1160 C.2    88  THR88       0.2643
     55  O        -31.1810  104.5010  -70.6230 O.2    88  THR88      -0.2714
     56  CB       -29.6150  104.4470  -73.4370 C.3    88  THR88       0.1808
     57  OG1      -28.2280  104.2620  -73.1690 O.3    88  THR88      -0.2208
     58  CG2      -29.8080  104.8680  -74.8730 C.3    88  THR88       0.0379
     59  N        -28.9830  104.9840  -70.4800 N.am   89  THR89      -0.1936
     60  CA       -28.9140  104.5800  -69.0850 C.3    89  THR89       0.2028
     61  C        -29.7400  105.5370  -68.2230 C.2    89  THR89       0.2642
     62  O        -30.5890  105.0800  -67.4490 O.2    89  THR89      -0.2714
     63  CB       -27.4770  104.5040  -68.5580 C.3    89  THR89       0.1808
     64  OG1      -26.7020  103.5980  -69.3580 O.3    89  THR89      -0.2208
     65  CG2      -27.4620  104.0010  -67.1230 C.3    89  THR89       0.0379
     66  N        -29.5020  106.8440  -68.3680 N.am   90  THR90      -0.1950
     67  CA       -30.2400  107.8490  -67.5790 C.3    90  THR90       0.1897
     68  C        -31.7520  107.6310  -67.6870 C.2    90  THR90       0.2313
     69  O        -32.4390  107.4060  -66.6740 O.2    90  THR90      -0.2863
     70  CB       -29.9040  109.2990  -67.9850 C.3    90  THR90       0.1794
     71  OG1      -28.5120  109.5410  -67.7770 O.3    90  THR90      -0.2208
     72  CG2      -30.7010  110.3080  -67.1400 C.3    90  THR90       0.0378
     73  N        -17.1740  113.8120  -72.3190 N.3   149  ILE149     -0.1231
     74  CA       -17.9850  113.3000  -71.2200 C.3   149  ILE149      0.1692
     75  C        -18.7690  112.1400  -71.7420 C.2   149  ILE149      0.2592
     76  O        -18.8990  111.1280  -71.0690 O.2   149  ILE149     -0.2718
     77  CB       -18.9350  114.3720  -70.6430 C.3   149  ILE149      0.0266
     78  CG1      -18.1040  115.5200  -70.0540 C.3   149  ILE149      0.0019
     79  CG2      -19.8610  113.8080  -69.5740 C.3   149  ILE149      0.0020
     80  CD1      -17.0500  115.1310  -69.0230 C.3   149  ILE149      0.0001
     81  N        -19.2670  112.2890  -72.9610 N.am  150  SER150     -0.1952
     82  CA       -20.0210  111.2350  -73.5900 C.3   150  SER150      0.1924
     83  C        -19.2430  109.9550  -73.7820 C.2   150  SER150      0.2314
     84  O        -19.8300  108.9000  -73.6740 O.2   150  SER150     -0.2863
     85  CB       -20.5220  111.6750  -74.9390 C.3   150  SER150      0.2116
     86  OG       -21.5200  110.7610  -75.3830 O.3   150  SER150     -0.2180
     87  N        -17.1460  108.5370  -71.8040 N.3   152  ASN152     -0.1225
     88  CA       -16.6340  108.2500  -70.4650 C.3   152  ASN152      0.1785
     89  C        -15.2590  108.8740  -70.1520 C.2   152  ASN152      0.2597
     90  O        -14.3100  108.1700  -69.7810 O.2   152  ASN152     -0.2718
     91  CB       -16.6460  106.7440  -70.1530 C.3   152  ASN152      0.1169
     92  CG       -16.4960  106.4710  -68.6550 C.2   152  ASN152      0.2627
     93  OD1      -16.9000  107.2800  -67.8250 O.2   152  ASN152     -0.2716
     94  ND2      -15.9040  105.3470  -68.3050 N.am  152  ASN152     -0.0877
     95  N        -15.1830  110.2000  -70.2760 N.am  153  SER153     -0.1952
     96  CA       -13.9960  110.9750  -69.9100 C.3   153  SER153      0.1924
     97  C        -12.7470  110.6140  -70.7600 C.2   153  SER153      0.2314
     98  O        -11.6460  110.4560  -70.2240 O.2   153  SER153     -0.2863
     99  CB       -13.6950  110.8550  -68.3830 C.3   153  SER153      0.2116
    100  OG       -14.8160  111.1920  -67.5600 O.3   153  SER153     -0.2180
    101  N        -21.6800  107.0660  -79.4160 N.3   393  ASP393     -0.1239
    102  CA       -22.4500  107.8060  -78.4140 C.3   393  ASP393      0.1674
    103  C        -21.9780  109.2620  -78.3430 C.2   393  ASP393      0.2266
    104  O        -22.7740  110.2100  -78.3610 O.2   393  ASP393     -0.2867
    105  CB       -22.3700  107.1260  -77.0300 C.3   393  ASP393      0.1410
    106  CG       -23.5100  106.1180  -76.7750 C.2   393  ASP393      0.3668
    107  OD1      -24.3140  105.7620  -77.6820 O.co2 393  ASP393     -0.2456
    108  OD2      -23.5880  105.6920  -75.6100 O.co2 393  ASP393     -0.2456
    109  N        -24.1190  118.7960  -66.4830 N.3   409  GLY409     -0.1210
    110  CA       -24.1940  117.3580  -66.3100 C.3   409  GLY409      0.1956
    111  C        -24.2780  116.9310  -64.8560 C.2   409  GLY409      0.2612
    112  O        -24.6970  117.7040  -63.9890 O.2   409  GLY409     -0.2717
    113  N        -23.8920  115.6820  -64.5950 N.am  410  GLY410     -0.1942
    114  CA       -23.8900  115.1140  -63.2450 C.3   410  GLY410      0.2014
    115  C        -25.2780  115.0760  -62.6780 C.2   410  GLY410      0.2639
    116  O        -25.4510  115.0500  -61.4660 O.2   410  GLY410     -0.2714
    117  N        -26.2470  115.0890  -63.5980 N.am  411  GLY411     -0.1954
    118  CA       -27.6520  115.0630  -63.3060 C.3   411  GLY411      0.1869
    119  C        -28.1560  116.2370  -62.5420 C.2   411  GLY411      0.2309
    120  O        -29.1990  116.1170  -61.9170 O.2   411  GLY411     -0.2863
    121  N        -25.2660  107.9950  -60.0460 N.3   449  ILE449     -0.1245
    122  CA       -23.8760  108.3140  -60.3920 C.3   449  ILE449      0.1561
    123  C        -22.9700  108.2940  -59.1580 C.2   449  ILE449      0.2260
    124  O        -21.8640  107.7300  -59.1950 O.2   449  ILE449     -0.2867
    125  CB       -23.7550  109.6940  -61.0270 C.3   449  ILE449      0.0252
    126  CG1      -24.4150  109.7060  -62.3960 C.3   449  ILE449      0.0019
    127  CG2      -22.2910  110.0690  -61.1940 C.3   449  ILE449      0.0019
    128  CD1      -24.5850  111.0950  -62.9770 C.3   449  ILE449      0.0001
    129  N        -21.7180  117.7700  -58.4020 N.3   473  TYR473     -0.1227
    130  CA       -20.7390  116.8280  -57.9240 C.3   473  TYR473      0.1736
    131  C        -20.0320  116.3530  -59.1270 C.2   473  TYR473      0.2595
    132  O        -20.6880  115.9610  -60.0960 O.2   473  TYR473     -0.2718
    133  CB       -21.3730  115.6260  -57.2590 C.3   473  TYR473      0.0548
    134  CG       -20.3780  114.7130  -56.5490 C.ar  473  TYR473     -0.0200
    135  CD1      -19.6250  115.1760  -55.4790 C.ar  473  TYR473     -0.0009
    136  CD2      -20.2090  113.3730  -56.9300 C.ar  473  TYR473     -0.0009
    137  CE1      -18.7360  114.3380  -54.8070 C.ar  473  TYR473      0.0417
    138  CE2      -19.3200  112.5260  -56.2580 C.ar  473  TYR473      0.0417
    139  CZ       -18.5850  113.0160  -55.2030 C.ar  473  TYR473      0.1957
    140  OH       -17.7060  112.2120  -54.5320 O.3   473  TYR473     -0.2866
    141  N        -18.7020  116.3950  -59.0430 N.am  474  ASN474     -0.1960
    142  CA       -17.8370  115.8110  -60.0320 C.3   474  ASN474      0.1819
    143  C        -17.3960  114.4610  -59.5040 C.2   474  ASN474      0.2621
    144  O        -16.4840  114.3670  -58.6740 O.2   474  ASN474     -0.2715
    145  CB       -16.6340  116.6970  -60.3110 C.3   474  ASN474      0.1195
    146  CG       -15.7050  116.1130  -61.3610 C.2   474  ASN474      0.2630
    147  OD1      -15.6240  114.8910  -61.5400 O.2   474  ASN474     -0.2716
    148  ND2      -14.9760  116.9810  -62.0460 N.am  474  ASN474     -0.0877
    149  N        -18.0420  113.4260  -60.0300 N.am  475  ALA475     -0.1963
    150  CA       -17.8740  112.0480  -59.5910 C.3   475  ALA475      0.1728
    151  C        -16.5020  111.4840  -59.8820 C.2   475  ALA475      0.2616
    152  O        -16.0060  110.6550  -59.1300 O.2   475  ALA475     -0.2715
    153  CB       -18.9170  111.1890  -60.2570 C.3   475  ALA475      0.0334
    154  N        -15.9030  111.9260  -60.9800 N.am  476  ALA476     -0.1977
    155  CA       -14.5460  111.5280  -61.3340 C.3   476  ALA476      0.1597
    156  C        -13.5400  112.0210  -60.2980 C.2   476  ALA476      0.2287
    157  O        -12.7490  111.2260  -59.7860 O.2   476  ALA476     -0.2864
    158  CB       -14.1810  112.0420  -62.7180 C.3   476  ALA476      0.0319
    159  N        -20.1280  122.7870  -62.7570 N.3   483  MET483     -0.1245
    160  CA       -20.0670  121.6880  -63.7230 C.3   483  MET483      0.1570
    161  C        -19.6770  122.1900  -65.1020 C.2   483  MET483      0.2261
    162  O        -18.9690  121.4950  -65.8160 O.2   483  MET483     -0.2867
    163  CB       -21.3850  120.8860  -63.8050 C.3   483  MET483      0.0387
    164  CG       -21.9100  120.3640  -62.4810 C.3   483  MET483      0.0595
    165  SD       -20.7520  119.2290  -61.6960 S.3   483  MET483     -0.1393
    166  CE       -21.3410  117.7470  -62.4970 C.3   483  MET483      0.0692
    167  N        -18.2790  119.3400  -67.6250 N.3   488  ILE488     -0.1245
    168  CA       -19.2170  118.2560  -67.4450 C.3   488  ILE488      0.1561
    169  C        -20.5410  118.7020  -68.0210 C.2   488  ILE488      0.2260
    170  O        -21.4330  119.1390  -67.3070 O.2   488  ILE488     -0.2867
    171  CB       -19.3220  117.8350  -65.9770 C.3   488  ILE488      0.0252
    172  CG1      -17.9430  117.4780  -65.4430 C.3   488  ILE488      0.0019
    173  CG2      -20.1830  116.5980  -65.8580 C.3   488  ILE488      0.0019
    174  CD1      -17.8920  117.2380  -63.9550 C.3   488  ILE488      0.0001
    175  N        -23.8800  117.7950  -70.3760 N.3   490  ASP490     -0.1239
    176  CA       -24.8380  116.9320  -71.0960 C.3   490  ASP490      0.1674
    177  C        -25.6330  117.7500  -72.0970 C.2   490  ASP490      0.2266
    178  O        -26.0480  118.8610  -71.7710 O.2   490  ASP490     -0.2867
    179  CB       -25.8210  116.3190  -70.1320 C.3   490  ASP490      0.1410
    180  CG       -25.1610  115.4500  -69.1000 C.2   490  ASP490      0.3668
    181  OD1      -24.0460  114.9220  -69.3490 O.co2 490  ASP490     -0.2456
    182  OD2      -25.7830  115.2720  -68.0260 O.co2 490  ASP490     -0.2456
@<TRIPOS>BOND
     1   101   102    1
     2   102   103    1
     3   102   105    1
     4   104   103    2
     5   107   106   ar
     6   105   106    1
     7    40    41    1
     8   106   108   ar
     9    41    44    1
    10    41    42    1
    11    44    45    1
    12    86    85    1
    13    85    82    1
    14    43    42    2
    15    58    56    1
    16    42    48   am
    17    45    47   ar
    18    45    46   ar
    19    83    84    2
    20    83    82    1
    21    82    81    1
    22    56    57    1
    23    56    53    1
    24    48    49    1
    25    81    75   am
    26    52    53    1
    27    52    50   am
    28    53    54    1
    29    36    37    1
    30    38    39    2
    31    38    37    1
    32    73    74    1
    33    49    50    1
    34   177   178    2
    35   177   176    1
    36    27    28    1
    37    50    51    2
    38    87    88    1
    39    75    74    1
    40    75    76    2
    41    29    28    1
    42    29    30    2
    43    74    77    1
    44    54    55    2
    45    54    59   am
    46    28    31    1
    47   176   175    1
    48   176   179    1
    49    31    32    1
    50    97    98    2
    51    97    96    1
    52    77    78    1
    53    77    79    1
    54    59    60    1
    55    88    91    1
    56    88    89    1
    57    95    89   am
    58    95    96    1
    59    91    92    1
    60    89    90    2
    61   179   180    1
    62    78    80    1
    63    96    99    1
    64    32    33    1
    65    64    63    1
    66   181   180   ar
    67    33    34    1
    68   180   182   ar
    69    60    63    1
    70    60    61    1
    71    92    94   am
    72    92    93    2
    73    63    65    1
    74    99   100    1
    75    66    61   am
    76    66    67    1
    77    35    34    1
    78    61    62    2
    79     6     5    1
    80   169   168    1
    81   169   170    2
    82    70    71    1
    83    70    67    1
    84    70    72    1
    85    68    67    1
    86    68    69    2
    87     7     5    1
    88   167   168    1
    89     5     2    1
    90   168   171    1
    91     4     3    2
    92   109   110    1
    93   110   111    1
    94     2     3    1
    95     2     1    1
    96     3     8   am
    97    14    13    1
    98   171   173    1
    99   171   172    1
   100   162   161    2
   101    19    18    2
   102   172   174    1
   103    16    17    1
   104    16    10   am
   105     9     8    1
   106     9    10    1
   107     9    12    1
   108   161   160    1
   109    18    17    1
   110    18    20   am
   111    21    20    1
   112    21    24    1
   113    21    22    1
   114   111   113   am
   115   111   112    2
   116    20    26    1
   117    10    11    2
   118   113   114    1
   119    23    22    2
   120    13    12    1
   121    13    15    1
   122    24    25    1
   123    26    25    1
   124   163   160    1
   125   163   164    1
   126   160   159    1
   127   117   118    1
   128   117   115   am
   129   118   119    1
   130   114   115    1
   131   128   126    1
   132   158   155    1
   133   115   116    2
   134   119   120    2
   135   166   165    1
   136   164   165    1
   137   126   125    1
   138   148   146   am
   139   147   146    2
   140   146   145    1
   141   155   154    1
   142   155   156    1
   143   127   125    1
   144   125   122    1
   145   154   151   am
   146   122   121    1
   147   122   123    1
   148   145   142    1
   149   156   157    2
   150   153   150    1
   151   132   131    2
   152   142   143    1
   153   142   141    1
   154   149   150    1
   155   149   143   am
   156   151   150    1
   157   151   152    2
   158   143   144    2
   159   124   123    2
   160   131   141   am
   161   131   130    1
   162   129   130    1
   163   130   133    1
   164   133   134    1
   165   136   134   ar
   166   136   138   ar
   167   134   135   ar
   168   138   139   ar
   169   135   137   ar
   170   139   137   ar
   171   139   140    1
