@<TRIPOS>MOLECULE
tmp/5oq7A00.pdb
 150 141 0 0 0
SMALL
GASTEIGER

@<TRIPOS>ATOM
      1  N          2.2000  -11.6040   20.1740 N.3     8  LEU8       -0.1231
      2  CA         1.6930  -10.5100   19.3310 C.3     8  LEU8        0.1693
      3  C          1.5890  -10.8940   17.8490 C.2     8  LEU8        0.2593
      4  O          0.5960  -10.6040   17.1910 O.2     8  LEU8       -0.2718
      5  CB         2.5450   -9.2580   19.5620 C.3     8  LEU8        0.0284
      6  CG         2.2550   -8.5190   20.8890 C.3     8  LEU8        0.0019
      7  CD1        1.5830   -9.3600   21.9710 C.3     8  LEU8        0.0001
      8  CD2        3.5070   -7.8460   21.4510 C.3     8  LEU8        0.0001
      9  N          2.6050  -11.5650   17.3360 N.am    9  GLY9       -0.1942
     10  CA         2.5780  -12.0620   15.9630 C.3     9  GLY9        0.2014
     11  C          3.9470  -12.5610   15.6150 C.2     9  GLY9        0.2639
     12  O          4.7960  -12.6320   16.4870 O.2     9  GLY9       -0.2714
     13  N          4.1730  -12.9210   14.3550 N.am   10  GLU10      -0.1963
     14  CA         5.5110  -13.3540   13.9210 C.3    10  GLU10       0.1733
     15  C          6.2430  -12.1700   13.2860 C.2    10  GLU10       0.2616
     16  O          5.7070  -11.5040   12.3920 O.2    10  GLU10      -0.2715
     17  CB         5.4620  -14.5310   12.9370 C.3    10  GLU10       0.0429
     18  CG         4.5430  -15.6990   13.3140 C.3    10  GLU10       0.1163
     19  CD         5.1760  -16.7390   14.2290 C.2    10  GLU10       0.3649
     20  OE1        5.8460  -17.6650   13.7180 O.co2  10  GLU10      -0.2457
     21  OE2        4.9670  -16.6500   15.4600 O.co2  10  GLU10      -0.2457
     22  N          7.4450  -11.8920   13.7890 N.am   11  GLY11      -0.1955
     23  CA         8.3590  -10.9420   13.1700 C.3    11  GLY11       0.1869
     24  C          9.1240  -11.6660   12.0830 C.2    11  GLY11       0.2309
     25  O          8.8620  -12.8390   11.8070 O.2    11  GLY11      -0.2863
     26  N          7.1900  -12.3050   18.1930 N.3    16  VAL16      -0.1245
     27  CA         7.2050  -11.1720   19.1280 C.3    16  VAL16       0.1561
     28  C          6.0830  -11.2560   20.1780 C.2    16  VAL16       0.2260
     29  O          4.9340  -11.5520   19.8770 O.2    16  VAL16      -0.2867
     30  CB         7.3560   -9.7610   18.4620 C.3    16  VAL16       0.0252
     31  CG1        7.7590   -9.8640   16.9890 C.3    16  VAL16       0.0019
     32  CG2        6.1130   -8.9000   18.6270 C.3    16  VAL16       0.0019
     33  N          4.2090   -9.8040   24.0110 N.3    18  LEU18      -0.1245
     34  CA         3.8860   -8.7740   24.9800 C.3    18  LEU18       0.1561
     35  C          4.5880   -9.2880   26.2110 C.2    18  LEU18       0.2260
     36  O          4.4210  -10.4430   26.5610 O.2    18  LEU18      -0.2867
     37  CB         2.3740   -8.7040   25.2250 C.3    18  LEU18       0.0270
     38  CG         1.8190   -7.4140   25.8340 C.3    18  LEU18       0.0019
     39  CD1        0.3060   -7.4550   25.8390 C.3    18  LEU18       0.0001
     40  CD2        2.3640   -7.1080   27.2210 C.3    18  LEU18       0.0001
     41  N          7.2660   -4.7690   24.2030 N.3    29  ALA29      -0.1245
     42  CA         7.2120   -5.8310   23.1650 C.3    29  ALA29       0.1562
     43  C          8.5850   -6.4120   22.9480 C.2    29  ALA29       0.2260
     44  O          9.5750   -5.6900   22.8810 O.2    29  ALA29      -0.2867
     45  CB         6.6420   -5.3240   21.8520 C.3    29  ALA29       0.0290
     46  N          9.0400    2.7950   14.9700 N.3    56  ILE56      -0.1245
     47  CA         8.9690    2.3120   16.3630 C.3    56  ILE56       0.1561
     48  C         10.2940    2.5020   17.1080 C.2    56  ILE56       0.2260
     49  O         11.3990    2.5030   16.5200 O.2    56  ILE56      -0.2867
     50  CB         8.4380    0.8610   16.4260 C.3    56  ILE56       0.0252
     51  CG1        7.0740    0.8540   17.1450 C.3    56  ILE56       0.0019
     52  CG2        9.3950   -0.0750   17.1630 C.3    56  ILE56       0.0019
     53  CD1        6.1120   -0.1930   16.6510 C.3    56  ILE56       0.0001
     54  N         11.2550   -3.3750   22.2640 N.3    72  MET72      -0.1230
     55  CA        10.7290   -2.2360   21.5360 C.3    72  MET72       0.1702
     56  C          9.5230   -1.6940   22.2350 C.2    72  MET72       0.2592
     57  O          8.8250   -2.4200   22.8760 O.2    72  MET72      -0.2718
     58  CB        10.2790   -2.6920   20.1520 C.3    72  MET72       0.0401
     59  CG        11.4130   -2.9770   19.2030 C.3    72  MET72       0.0596
     60  SD        12.1220   -4.6090   19.1440 S.3    72  MET72      -0.1393
     61  CE        10.7080   -5.6660   19.4180 C.3    72  MET72       0.0692
     62  N          9.2890   -0.4150   22.0270 N.am   73  GLU73      -0.1966
     63  CA         8.0830    0.2630   22.4160 C.3    73  GLU73       0.1733
     64  C          6.8760   -0.5840   21.9710 C.2    73  GLU73       0.2616
     65  O          6.7540   -0.9680   20.7730 O.2    73  GLU73      -0.2715
     66  CB         8.1270    1.6680   21.7700 C.3    73  GLU73       0.0429
     67  CG         6.9430    2.6040   21.9920 C.3    73  GLU73       0.1163
     68  CD         6.6150    3.4920   20.7780 C.2    73  GLU73       0.3649
     69  OE1        5.4150    3.9010   20.6420 O.co2  73  GLU73      -0.2457
     70  OE2        7.5390    3.7810   19.9590 O.co2  73  GLU73      -0.2457
     71  N          6.0310   -0.9330   22.9420 N.am   74  LEU74      -0.1963
     72  CA         4.7610   -1.6180   22.6850 C.3    74  LEU74       0.1728
     73  C          3.8690   -0.6740   21.9140 C.2    74  LEU74       0.2616
     74  O          3.9220    0.5140   22.1590 O.2    74  LEU74      -0.2715
     75  CB         4.0590   -2.0220   23.9900 C.3    74  LEU74       0.0311
     76  CG         2.7290   -2.7950   23.9090 C.3    74  LEU74       0.0022
     77  CD1        2.8670   -4.1300   23.1870 C.3    74  LEU74       0.0001
     78  CD2        2.0920   -3.0140   25.2950 C.3    74  LEU74       0.0001
     79  N          3.0470   -1.1930   21.0050 N.am   75  ALA75      -0.1963
     80  CA         2.1690   -0.3340   20.1970 C.3    75  ALA75       0.1728
     81  C          0.8070   -0.3890   20.7770 C.2    75  ALA75       0.2617
     82  O          0.0590   -1.2850   20.4860 O.2    75  ALA75      -0.2715
     83  CB         2.1430   -0.7910   18.7270 C.3    75  ALA75       0.0334
     84  N          0.4480    0.5850   21.5970 N.am   76  SER76      -0.1936
     85  CA        -0.7450    0.4050   22.4410 C.3    76  SER76       0.2055
     86  C         -2.0230    0.4280   21.6160 C.2    76  SER76       0.2644
     87  O         -3.0030   -0.2020   21.9940 O.2    76  SER76      -0.2714
     88  CB        -0.7920    1.3970   23.6130 C.3    76  SER76       0.2130
     89  OG        -1.7510    2.4090   23.4170 O.3    76  SER76      -0.2179
     90  N         -1.9950    1.0630   20.4470 N.am   77  GLY77      -0.1939
     91  CA        -3.1410    1.0030   19.5020 C.3    77  GLY77       0.2014
     92  C         -3.3010   -0.2570   18.6540 C.2    77  GLY77       0.2639
     93  O         -4.2340   -0.3640   17.8800 O.2    77  GLY77      -0.2714
     94  N         -2.3960   -1.2060   18.7450 N.am   78  GLY78      -0.1939
     95  CA        -2.5420   -2.4030   17.9320 C.3    78  GLY78       0.2014
     96  C         -2.0850   -2.1330   16.5110 C.2    78  GLY78       0.2639
     97  O         -1.2630   -1.2500   16.2670 O.2    78  GLY78      -0.2714
     98  N         -2.6280   -2.8780   15.5710 N.am   79  SER79      -0.1949
     99  CA        -2.1640   -2.7940   14.2170 C.3    79  SER79       0.1924
    100  C         -3.1210   -2.0720   13.2740 C.2    79  SER79       0.2314
    101  O         -4.2990   -2.0790   13.4630 O.2    79  SER79      -0.2863
    102  CB        -1.9110   -4.1760   13.6880 C.3    79  SER79       0.2116
    103  OG        -1.4180   -4.0560   12.3870 O.3    79  SER79      -0.2180
    104  N         -5.9290   -4.2110   11.8730 N.3    82  ASP82      -0.1239
    105  CA        -7.2090   -4.2680   12.6250 C.3    82  ASP82       0.1674
    106  C         -8.2020   -3.1280   12.3430 C.2    82  ASP82       0.2266
    107  O         -9.3790   -3.2740   12.6780 O.2    82  ASP82      -0.2867
    108  CB        -6.9470   -4.1870   14.1260 C.3    82  ASP82       0.1410
    109  CG        -6.4130   -5.4480   14.7050 C.2    82  ASP82       0.3668
    110  OD1       -6.0340   -6.3990   13.9880 O.co2  82  ASP82      -0.2456
    111  OD2       -6.3710   -5.4920   15.9370 O.co2  82  ASP82      -0.2456
    112  N          0.1000   -5.1990    8.5080 N.3   122  HIS122     -0.1226
    113  CA         0.5960   -5.8910    9.7240 C.3   122  HIS122      0.1752
    114  C          1.8920   -5.3130   10.3620 C.2   122  HIS122      0.2596
    115  O          2.1310   -5.5050   11.5350 O.2   122  HIS122     -0.2718
    116  CB         0.7800   -7.3800    9.4540 C.3   122  HIS122      0.0759
    117  CG        -0.4320   -8.2130    9.7160 C.ar  122  HIS122      0.0818
    118  ND1       -1.1210   -8.8660    8.7130 N.ar  122  HIS122     -0.2268
    119  CD2       -1.0350   -8.5720   10.8770 C.ar  122  HIS122      0.1154
    120  CE1       -2.1030   -9.5750    9.2430 C.ar  122  HIS122      0.1986
    121  NE2       -2.0730   -9.4120   10.5550 N.ar  122  HIS122     -0.2212
    122  N          2.7220   -4.6300    9.5990 N.am  123  ASN123     -0.1974
    123  CA         3.9750   -3.9620   10.0920 C.3   123  ASN123      0.1688
    124  C          3.8030   -2.4800   10.3560 C.2   123  ASN123      0.2292
    125  O          4.7660   -1.7600   10.6510 O.2   123  ASN123     -0.2864
    126  CB         5.1480   -4.1810    9.0960 C.3   123  ASN123      0.1181
    127  CG         5.5730   -5.6630    9.0400 C.2   123  ASN123      0.2629
    128  OD1        5.4870   -6.3520   10.0850 O.2   123  ASN123     -0.2716
    129  ND2        6.0140   -6.1860    7.8250 N.am  123  ASN123     -0.0877
    130  N          1.9370   -0.0890   12.8630 N.3   125  LEU125     -0.1245
    131  CA         1.2580   -0.1140   14.1570 C.3   125  LEU125      0.1561
    132  C          0.9520    1.3090   14.6400 C.2   125  LEU125      0.2260
    133  O          1.3870    2.3270   14.0220 O.2   125  LEU125     -0.2867
    134  CB         2.1200   -0.8310   15.1840 C.3   125  LEU125      0.0270
    135  CG         2.7380   -2.2160   14.7630 C.3   125  LEU125      0.0019
    136  CD1        3.7620   -2.7130   15.7800 C.3   125  LEU125      0.0001
    137  CD2        1.6920   -3.2820   14.5410 C.3   125  LEU125      0.0001
    138  N          7.1170   -0.7800   11.9210 N.3   135  ALA135     -0.1231
    139  CA         7.7680   -1.8120   12.7060 C.3   135  ALA135      0.1694
    140  C          8.4120   -2.9360   11.8800 C.2   135  ALA135      0.2592
    141  O          7.9250   -3.2790   10.7950 O.2   135  ALA135     -0.2718
    142  CB         6.7430   -2.4380   13.6200 C.3   135  ALA135      0.0304
    143  N          9.4960   -3.4820   12.4640 N.am  136  ASP136     -0.1974
    144  CA        10.1950   -4.7140   12.1230 C.3   136  ASP136      0.1709
    145  C         11.2090   -4.5300   10.9950 C.2   136  ASP136      0.2293
    146  O         10.8650   -4.2210    9.8680 O.2   136  ASP136     -0.2864
    147  CB         9.2630   -5.8970   11.8870 C.3   136  ASP136      0.1436
    148  CG         9.9940   -7.2660   12.0780 C.2   136  ASP136      0.3671
    149  OD1       10.9890   -7.5240   11.3840 O.co2 136  ASP136     -0.2456
    150  OD2        9.5690   -8.0790   12.9260 O.co2 136  ASP136     -0.2456
@<TRIPOS>BOND
     1   129   127   am
     2   112   113    1
     3   118   120   ar
     4   118   117   ar
     5   127   126    1
     6   127   128    2
     7   126   123    1
     8   120   121   ar
     9   116   117    1
    10   116   113    1
    11   122   123    1
    12   122   114   am
    13   117   119   ar
    14   113   114    1
    15   146   145    2
    16   123   124    1
    17   124   125    2
    18   114   115    2
    19   121   119   ar
    20   141   140    2
    21   145   144    1
    22   149   148   ar
    23    25    24    2
    24   104   105    1
    25   140   143   am
    26   140   139    1
    27   147   148    1
    28   147   144    1
    29   138   139    1
    30   148   150   ar
    31    24    23    1
    32   144   143    1
    33   106   105    1
    34   106   107    2
    35   103   102    1
    36    16    15    2
    37   105   108    1
    38   139   142    1
    39   130   131    1
    40    17    18    1
    41    17    14    1
    42    23    22    1
    43   100   101    2
    44   100    99    1
    45    15    22   am
    46    15    14    1
    47    18    19    1
    48   102    99    1
    49    20    19   ar
    50    14    13    1
    51   110   109   ar
    52   133   132    2
    53   108   109    1
    54   131   132    1
    55   131   134    1
    56    99    98    1
    57    19    21   ar
    58    13    11   am
    59   137   135    1
    60   109   111   ar
    61   135   134    1
    62   135   136    1
    63    46    47    1
    64    98    96   am
    65    11    10    1
    66    11    12    2
    67    10     9    1
    68    97    96    2
    69    47    50    1
    70    47    48    1
    71    50    51    1
    72    50    52    1
    73    96    95    1
    74    49    48    2
    75    53    51    1
    76    31    30    1
    77     4     3    2
    78     9     3   am
    79     3     2    1
    80    93    92    2
    81    95    94    1
    82    26    27    1
    83    30    32    1
    84    30    27    1
    85    92    94   am
    86    92    91    1
    87    83    80    1
    88    27    28    1
    89    60    59    1
    90    60    61    1
    91    59    58    1
    92     2     5    1
    93     2     1    1
    94    91    90    1
    95     5     6    1
    96    29    28    2
    97    70    68   ar
    98    58    55    1
    99    80    81    1
   100    80    79    1
   101    90    86   am
   102    82    81    2
   103    69    68   ar
   104    65    64    2
   105    81    84   am
   106    68    67    1
   107     6     8    1
   108     6     7    1
   109    79    73   am
   110    55    56    1
   111    55    54    1
   112    84    85    1
   113    86    87    2
   114    86    85    1
   115    66    67    1
   116    66    63    1
   117    45    42    1
   118    73    74    2
   119    73    72    1
   120    64    63    1
   121    64    71   am
   122    62    56   am
   123    62    63    1
   124    56    57    2
   125    85    88    1
   126    72    71    1
   127    72    75    1
   128    44    43    2
   129    43    42    1
   130    42    41    1
   131    77    76    1
   132    89    88    1
   133    76    75    1
   134    76    78    1
   135    33    34    1
   136    34    37    1
   137    34    35    1
   138    37    38    1
   139    38    39    1
   140    38    40    1
   141    35    36    2
