@<TRIPOS>MOLECULE
tmp/5oqtA06.pdb
 120 117 0 0 0
SMALL
GASTEIGER

@<TRIPOS>ATOM
      1  N        -15.4980  -16.2960   16.3750 N.3   108  TRP108     -0.1241
      2  CA       -16.4900  -16.8570   17.2920 C.3   108  TRP108      0.1605
      3  C        -16.1650  -16.5090   18.7520 C.2   108  TRP108      0.2264
      4  O        -17.0790  -16.3430   19.5670 O.2   108  TRP108     -0.2867
      5  CB       -16.5840  -18.3790   17.1000 C.3   108  TRP108      0.0550
      6  CG       -17.6110  -19.0540   17.9620 C.ar  108  TRP108      0.0003
      7  CD1      -17.3750  -19.8580   19.0350 C.ar  108  TRP108      0.0946
      8  CD2      -19.0390  -18.9510   17.8410 C.ar  108  TRP108      0.0152
      9  NE1      -18.5670  -20.2900   19.5750 N.ar  108  TRP108     -0.2442
     10  CE2      -19.6040  -19.7480   18.8610 C.ar  108  TRP108      0.0810
     11  CE3      -19.8980  -18.2710   16.9600 C.ar  108  TRP108      0.0012
     12  CZ2      -20.9900  -19.8940   19.0170 C.ar  108  TRP108      0.0191
     13  CZ3      -21.2710  -18.3990   17.1310 C.ar  108  TRP108      0.0001
     14  CH2      -21.8030  -19.1940   18.1540 C.ar  108  TRP108      0.0015
     15  N        -17.2250  -12.8240   19.3560 N.3   111  ILE111     -0.1231
     16  CA       -18.6900  -12.6770   19.4310 C.3   111  ILE111      0.1692
     17  C        -19.0580  -12.6980   20.9260 C.2   111  ILE111      0.2591
     18  O        -19.8690  -11.8890   21.3840 O.2   111  ILE111     -0.2718
     19  CB       -19.3990  -13.8200   18.6390 C.3   111  ILE111      0.0266
     20  CG1      -19.4080  -13.5450   17.1080 C.3   111  ILE111      0.0019
     21  CG2      -20.8170  -14.1620   19.1780 C.3   111  ILE111      0.0020
     22  CD1      -20.2310  -12.3140   16.5880 C.3   111  ILE111      0.0001
     23  N        -18.4050  -13.6020   21.6780 N.am  112  LEU112     -0.1980
     24  CA       -18.5560  -13.7540   23.1140 C.3   112  LEU112      0.1596
     25  C        -17.8550  -12.5990   23.8580 C.2   112  LEU112      0.2287
     26  O        -18.4950  -11.9720   24.6950 O.2   112  LEU112     -0.2864
     27  CB       -17.9890  -15.1130   23.5480 C.3   112  LEU112      0.0297
     28  CG       -18.0770  -15.4440   25.0230 C.3   112  LEU112      0.0022
     29  CD1      -19.4380  -16.0010   25.3740 C.3   112  LEU112      0.0001
     30  CD2      -16.9860  -16.3990   25.4100 C.3   112  LEU112      0.0001
     31  N        -19.6630   -9.2390   23.8610 N.3   115  GLY115     -0.1210
     32  CA       -20.8880   -9.4370   24.6350 C.3   115  GLY115      0.1956
     33  C        -20.6240   -9.4450   26.1290 C.2   115  GLY115      0.2611
     34  O        -21.2650   -8.7040   26.8820 O.2   115  GLY115     -0.2717
     35  N        -19.6400  -10.2600   26.5580 N.am  116  VAL116     -0.1979
     36  CA       -19.1910  -10.4140   27.9440 C.3   116  VAL116      0.1595
     37  C        -18.5380   -9.1030   28.4520 C.2   116  VAL116      0.2287
     38  O        -18.7390   -8.7390   29.6170 O.2   116  VAL116     -0.2864
     39  CB       -18.3040  -11.6850   28.1080 C.3   116  VAL116      0.0276
     40  CG1      -17.6960  -11.7840   29.5000 C.3   116  VAL116      0.0022
     41  CG2      -19.1110  -12.9460   27.8100 C.3   116  VAL116      0.0022
     42  N        -19.5190   -5.7480   18.1360 N.3   320  GLN320     -0.1245
     43  CA       -20.0900   -7.0910   18.1050 C.3   320  GLN320      0.1566
     44  C        -21.0550   -7.2210   16.9220 C.2   320  GLN320      0.2260
     45  O        -21.0020   -8.2130   16.2020 O.2   320  GLN320     -0.2867
     46  CB       -20.8220   -7.4060   19.4120 C.3   320  GLN320      0.0367
     47  CG       -21.0500   -8.9000   19.5840 C.3   320  GLN320      0.0905
     48  CD       -22.2640   -9.2270   20.4040 C.2   320  GLN320      0.2608
     49  OE1      -23.3530   -8.6760   20.2170 O.2   320  GLN320     -0.2717
     50  NE2      -22.1210  -10.1950   21.2830 N.am  320  GLN320     -0.0878
     51  N        -20.9130   -9.5450   13.5920 N.3   324  PHE324     -0.1241
     52  CA       -21.9780  -10.4600   13.1410 C.3   324  PHE324      0.1605
     53  C        -22.3000  -10.2320   11.6550 C.2   324  PHE324      0.2264
     54  O        -22.5940  -11.1990   10.9520 O.2   324  PHE324     -0.2867
     55  CB       -23.2620  -10.3130   13.9880 C.3   324  PHE324      0.0534
     56  CG       -23.4350  -11.2850   15.1330 C.ar  324  PHE324     -0.0203
     57  CD1      -23.5350  -12.6530   14.9000 C.ar  324  PHE324     -0.0042
     58  CD2      -23.5720  -10.8280   16.4400 C.ar  324  PHE324     -0.0042
     59  CE1      -23.7080  -13.5540   15.9620 C.ar  324  PHE324     -0.0003
     60  CE2      -23.7480  -11.7270   17.5020 C.ar  324  PHE324     -0.0003
     61  CZ       -23.8160  -13.0840   17.2560 C.ar  324  PHE324     -0.0000
     62  N        -21.7290  -17.8340    9.0040 N.3   333  LEU333     -0.1231
     63  CA       -22.9410  -17.8510    9.8170 C.3   333  LEU333      0.1678
     64  C        -24.1310  -17.4720    8.9150 C.2   333  LEU333      0.2434
     65  O        -23.8880  -16.8350    7.8860 O.2   333  LEU333     -0.2733
     66  CB       -22.8300  -16.9310   11.0470 C.3   333  LEU333      0.0284
     67  CG       -22.2750  -17.5680   12.3290 C.3   333  LEU333      0.0019
     68  CD1      -22.3270  -16.5930   13.4790 C.3   333  LEU333      0.0001
     69  CD2      -23.0380  -18.8350   12.7160 C.3   333  LEU333      0.0001
     70  N        -25.4020  -17.8760    9.2040 N.am  334  PRO334     -0.2729
     71  CA       -26.5010  -17.5400    8.2720 C.3   334  PRO334      0.1401
     72  C        -26.8190  -16.0440    8.1540 C.2   334  PRO334      0.2269
     73  O        -26.4580  -15.2440    9.0190 O.2   334  PRO334     -0.2865
     74  CB       -27.6900  -18.3610    8.7900 C.3   334  PRO334      0.0296
     75  CG       -27.0990  -19.3510    9.7660 C.3   334  PRO334      0.0237
     76  CD       -25.9060  -18.6660   10.3470 C.3   334  PRO334      0.0939
     77  N        -29.2680   -9.6660   20.6310 N.3   354  THR354     -0.1218
     78  CA       -27.8730   -9.5920   21.0810 C.3   354  THR354      0.1862
     79  C        -27.7710   -8.7390   22.3680 C.2   354  THR354      0.2287
     80  O        -27.0080   -9.0810   23.2690 O.2   354  THR354     -0.2866
     81  CB       -26.9060   -9.1680   19.9460 C.3   354  THR354      0.1770
     82  OG1      -27.2270   -7.8740   19.4230 O.3   354  THR354     -0.2211
     83  CG2      -26.8400  -10.1900   18.8150 C.3   354  THR354      0.0375
     84  N        -29.3910  -10.7650   25.5010 N.3   357  ALA357     -0.1231
     85  CA       -28.3840  -11.7240   25.9850 C.3   357  ALA357      0.1694
     86  C        -27.4040  -11.0540   26.9720 C.2   357  ALA357      0.2591
     87  O        -27.2040  -11.5640   28.0730 O.2   357  ALA357     -0.2718
     88  CB       -27.6200  -12.3210   24.8120 C.3   357  ALA357      0.0304
     89  N        -26.8670   -9.8740   26.5920 N.am  358  VAL358     -0.1980
     90  CA       -25.9460   -9.0380   27.3620 C.3   358  VAL358      0.1595
     91  C        -26.6110   -8.5860   28.6730 C.2   358  VAL358      0.2287
     92  O        -26.0090   -8.7530   29.7370 O.2   358  VAL358     -0.2864
     93  CB       -25.4400   -7.8360   26.5020 C.3   358  VAL358      0.0276
     94  CG1      -24.6720   -6.8260   27.3420 C.3   358  VAL358      0.0022
     95  CG2      -24.5820   -8.3090   25.3290 C.3   358  VAL358      0.0022
     96  N        -26.8750  -11.4260   31.4410 N.3   361  PHE361     -0.1241
     97  CA       -25.5850  -11.6970   32.0820 C.3   361  PHE361      0.1605
     98  C        -25.0980  -10.5520   32.9440 C.2   361  PHE361      0.2264
     99  O        -24.4210  -10.8000   33.9400 O.2   361  PHE361     -0.2867
    100  CB       -24.5210  -12.1200   31.0620 C.3   361  PHE361      0.0534
    101  CG       -24.8100  -13.4550   30.4250 C.ar  361  PHE361     -0.0203
    102  CD1      -25.0180  -13.5570   29.0570 C.ar  361  PHE361     -0.0042
    103  CD2      -24.8980  -14.6100   31.1980 C.ar  361  PHE361     -0.0042
    104  CE1      -25.3170  -14.7870   28.4690 C.ar  361  PHE361     -0.0003
    105  CE2      -25.1910  -15.8420   30.6090 C.ar  361  PHE361     -0.0003
    106  CZ       -25.3960  -15.9230   29.2470 C.ar  361  PHE361     -0.0000
    107  N        -17.2380  -22.9170   24.9310 N.3   437  TRP437     -0.1241
    108  CA       -17.7400  -21.9960   23.9180 C.3   437  TRP437      0.1605
    109  C        -17.0260  -22.2590   22.5900 C.2   437  TRP437      0.2264
    110  O        -17.6840  -22.2530   21.5470 O.2   437  TRP437     -0.2867
    111  CB       -17.5440  -20.5450   24.3630 C.3   437  TRP437      0.0550
    112  CG       -17.9190  -19.5290   23.3270 C.ar  437  TRP437      0.0003
    113  CD1      -17.0680  -18.8230   22.5300 C.ar  437  TRP437      0.0946
    114  CD2      -19.2420  -19.1090   22.9740 C.ar  437  TRP437      0.0152
    115  NE1      -17.7780  -17.9730   21.7170 N.ar  437  TRP437     -0.2442
    116  CE2      -19.1160  -18.1340   21.9610 C.ar  437  TRP437      0.0810
    117  CE3      -20.5290  -19.4650   23.4140 C.ar  437  TRP437      0.0012
    118  CZ2      -20.2250  -17.5000   21.3880 C.ar  437  TRP437      0.0191
    119  CZ3      -21.6270  -18.8460   22.8370 C.ar  437  TRP437      0.0001
    120  CH2      -21.4700  -17.8750   21.8370 C.ar  437  TRP437      0.0015
@<TRIPOS>BOND
     1    65    64    2
     2    72    71    1
     3    72    73    2
     4    71    74    1
     5    71    70    1
     6    74    75    1
     7    64    70   am
     8    64    63    1
     9    62    63    1
    10    70    76    1
    11    75    76    1
    12    63    66    1
    13    54    53    2
    14    66    67    1
    15    53    52    1
    16    67    69    1
    17    67    68    1
    18    52    51    1
    19    52    55    1
    20    55    56    1
    21    57    56   ar
    22    57    59   ar
    23    56    58   ar
    24    59    61   ar
    25    45    44    2
    26     1     2    1
    27    58    60   ar
    28    22    20    1
    29    44    43    1
    30    11    13   ar
    31    11     8   ar
    32     5     2    1
    33     5     6    1
    34    20    19    1
    35    13    14   ar
    36    61    60   ar
    37     2     3    1
    38     8     6   ar
    39     8    10   ar
    40     6     7   ar
    41    43    42    1
    42    43    46    1
    43    14    12   ar
    44    19    21    1
    45    19    16    1
    46     3     4    2
    47    83    81    1
    48    10    12   ar
    49    10     9   ar
    50     7     9   ar
    51    15    16    1
    52    46    47    1
    53    82    81    1
    54    16    17    1
    55    47    48    1
    56    81    78    1
    57    49    48    2
    58    48    50   am
    59    77    78    1
    60    17    18    2
    61    17    23   am
    62    78    79    1
    63   118   120   ar
    64   118   116   ar
    65   110   109    2
    66    23    24    1
    67   115   116   ar
    68   115   113   ar
    69   120   119   ar
    70   116   114   ar
    71    79    80    2
    72   113   112   ar
    73   109   108    1
    74   119   117   ar
    75   114   112   ar
    76   114   117   ar
    77    24    27    1
    78    24    25    1
    79   112   111    1
    80    27    28    1
    81    25    26    2
    82    31    32    1
    83   108   111    1
    84   108   107    1
    85    32    33    1
    86    88    85    1
    87    28    29    1
    88    28    30    1
    89    95    93    1
    90    84    85    1
    91    85    86    1
    92    33    35   am
    93    33    34    2
    94    93    94    1
    95    93    90    1
    96    35    36    1
    97    89    86   am
    98    89    90    1
    99    86    87    2
   100    90    91    1
   101    41    39    1
   102    36    39    1
   103    36    37    1
   104    39    40    1
   105    37    38    2
   106   104   102   ar
   107   104   106   ar
   108    91    92    2
   109   102   101   ar
   110   106   105   ar
   111   101   100    1
   112   101   103   ar
   113   105   103   ar
   114   100    97    1
   115    96    97    1
   116    97    98    1
   117    98    99    2
