@<TRIPOS>MOLECULE
tmp/5oqtA01.pdb
 103 94 0 0 0
SMALL
GASTEIGER

@<TRIPOS>ATOM
      1  N         -5.8220   12.1720   13.0180 N.3    27  ALA27      -0.1231
      2  CA        -5.1340   11.5650   14.1610 C.3    27  ALA27       0.1694
      3  C         -5.7450   11.9390   15.5080 C.2    27  ALA27       0.2592
      4  O         -5.7490   11.0970   16.4030 O.2    27  ALA27      -0.2718
      5  CB        -3.6570   11.9090   14.1390 C.3    27  ALA27       0.0304
      6  N         -6.2730   13.1730   15.6580 N.am   28  PHE28      -0.1976
      7  CA        -6.8910   13.6060   16.9110 C.3    28  PHE28       0.1639
      8  C         -8.2220   12.8820   17.1660 C.2    28  PHE28       0.2290
      9  O         -8.4420   12.3760   18.2800 O.2    28  PHE28      -0.2864
     10  CB        -7.0840   15.1390   16.9600 C.3    28  PHE28       0.0560
     11  CG        -7.8460   15.6100   18.1840 C.ar   28  PHE28      -0.0200
     12  CD1       -9.2090   15.8840   18.1130 C.ar   28  PHE28      -0.0042
     13  CD2       -7.2140   15.7110   19.4240 C.ar   28  PHE28      -0.0042
     14  CE1       -9.9200   16.2630   19.2560 C.ar   28  PHE28      -0.0003
     15  CE2       -7.9230   16.1180   20.5610 C.ar   28  PHE28      -0.0003
     16  CZ        -9.2720   16.3780   20.4720 C.ar   28  PHE28      -0.0000
     17  N         -7.7500    9.3900   18.2190 N.3    31  THR31      -0.1203
     18  CA        -7.2010    9.2720   19.5840 C.3    31  THR31       0.1994
     19  C         -8.3760    9.3220   20.5810 C.2    31  THR31       0.2617
     20  O         -8.3540    8.6200   21.5900 O.2    31  THR31      -0.2717
     21  CB        -6.1410   10.3630   19.8560 C.3    31  THR31       0.1784
     22  OG1       -5.0950   10.2710   18.8900 O.3    31  THR31      -0.2211
     23  CG2       -5.5250   10.2470   21.2330 C.3    31  THR31       0.0376
     24  N         -9.4040   10.1520   20.2640 N.am   32  MET32      -0.1979
     25  CA       -10.6530   10.3260   21.0200 C.3    32  MET32       0.1605
     26  C        -11.4560    9.0430   20.9610 C.2    32  MET32       0.2287
     27  O        -11.9680    8.6010   21.9850 O.2    32  MET32      -0.2864
     28  CB       -11.4870   11.4840   20.4420 C.3    32  MET32       0.0413
     29  CG       -10.8170   12.8290   20.5330 C.3    32  MET32       0.0598
     30  SD       -10.6090   13.3940   22.2380 S.3    32  MET32      -0.1393
     31  CE        -8.8450   13.1590   22.4510 C.3    32  MET32       0.0692
     32  N         -9.4670    6.5950   23.1990 N.3    35  ILE35      -0.1245
     33  CA        -9.6180    6.9190   24.6380 C.3    35  ILE35       0.1561
     34  C        -11.0450    6.6040   25.1210 C.2    35  ILE35       0.2260
     35  O        -11.2160    6.0200   26.1940 O.2    35  ILE35      -0.2867
     36  CB        -9.1460    8.3610   25.0170 C.3    35  ILE35       0.0252
     37  CG1       -7.6180    8.5130   24.8540 C.3    35  ILE35       0.0019
     38  CG2       -9.5410    8.7110   26.4570 C.3    35  ILE35       0.0019
     39  CD1       -7.1420    9.9130   24.6140 C.3    35  ILE35       0.0001
     40  N        -11.7090   12.3420   30.5380 N.3   187  VAL187     -0.1245
     41  CA       -10.3110   12.7110   30.7840 C.3   187  VAL187      0.1561
     42  C        -10.2130   13.7550   31.9120 C.2   187  VAL187      0.2260
     43  O         -9.4560   13.5440   32.8620 O.2   187  VAL187     -0.2867
     44  CB        -9.5760   13.1300   29.4880 C.3   187  VAL187      0.0252
     45  CG1       -8.2140   13.7620   29.7820 C.3   187  VAL187      0.0019
     46  CG2       -9.4180   11.9370   28.5590 C.3   187  VAL187      0.0019
     47  N         -8.3050   13.5020   35.6920 N.3   191  LEU191     -0.1245
     48  CA        -7.3220   14.5360   36.0620 C.3   191  LEU191      0.1561
     49  C         -7.7260   15.2560   37.3450 C.2   191  LEU191      0.2260
     50  O         -6.8610   15.5430   38.1770 O.2   191  LEU191     -0.2867
     51  CB        -7.0570   15.5560   34.9310 C.3   191  LEU191      0.0270
     52  CG        -6.3960   15.0530   33.6220 C.3   191  LEU191      0.0019
     53  CD1       -6.4290   16.1370   32.5400 C.3   191  LEU191      0.0001
     54  CD2       -4.9690   14.5700   33.8420 C.3   191  LEU191      0.0001
     55  N         -1.7140    6.0760    7.9150 N.3   246  ARG246     -0.1245
     56  CA        -0.8190    6.6080    8.9330 C.3   246  ARG246      0.1563
     57  C         -1.5610    7.2730   10.1260 C.2   246  ARG246      0.2260
     58  O         -0.9370    7.5110   11.1630 O.2   246  ARG246     -0.2867
     59  CB         0.2450    7.5330    8.3040 C.3   246  ARG246      0.0307
     60  CG         1.5480    7.6800    9.1360 C.3   246  ARG246      0.0489
     61  CD         2.2470    6.3750    9.5480 C.3   246  ARG246      0.2205
     62  NE         3.2620    6.6130   10.5820 N.pl3 246  ARG246     -0.0865
     63  CZ         3.0570    6.4770   11.8910 C.cat 246  ARG246      0.5346
     64  NH1        1.8770    6.0750   12.3490 N.pl3 246  ARG246      0.1354
     65  NH2        4.0350    6.7280   12.7520 N.pl3 246  ARG246      0.1354
     66  N         -1.4050    5.9540   14.5310 N.3   250  ILE250     -0.1245
     67  CA        -1.2520    7.0590   15.4940 C.3   250  ILE250      0.1561
     68  C         -2.3430    6.9690   16.5870 C.2   250  ILE250      0.2260
     69  O         -2.0110    6.8750   17.7630 O.2   250  ILE250     -0.2867
     70  CB        -1.1530    8.4640   14.8170 C.3   250  ILE250      0.0252
     71  CG1        0.2110    8.6380   14.1160 C.3   250  ILE250      0.0019
     72  CG2       -1.3790    9.5830   15.8460 C.3   250  ILE250      0.0019
     73  CD1        0.3270    9.7810   13.1090 C.3   250  ILE250      0.0001
     74  N         -1.2510    6.1790   20.4140 N.3   254  VAL254     -0.1245
     75  CA        -1.3580    7.3910   21.2250 C.3   254  VAL254      0.1561
     76  C         -2.4440    7.2330   22.3120 C.2   254  VAL254      0.2260
     77  O         -2.1480    7.4740   23.4840 O.2   254  VAL254     -0.2867
     78  CB        -1.5020    8.6890   20.3860 C.3   254  VAL254      0.0252
     79  CG1       -1.8080    9.8960   21.2720 C.3   254  VAL254      0.0019
     80  CG2       -0.2400    8.9460   19.5720 C.3   254  VAL254      0.0019
     81  N         -1.4510    7.2800   26.3470 N.3   258  VAL258     -0.1245
     82  CA        -2.0560    8.3200   27.1800 C.3   258  VAL258      0.1561
     83  C         -2.6880    7.6580   28.4240 C.2   258  VAL258      0.2260
     84  O         -2.3200    8.0000   29.5510 O.2   258  VAL258     -0.2867
     85  CB        -3.0430    9.1990   26.3690 C.3   258  VAL258      0.0252
     86  CG1       -4.0280    9.9340   27.2720 C.3   258  VAL258      0.0019
     87  CG2       -2.2880   10.1840   25.4770 C.3   258  VAL258      0.0019
     88  N         -0.4070    6.1340   31.3460 N.3   261  LEU261     -0.1231
     89  CA         0.0650    7.1670   32.2780 C.3   261  LEU261      0.1693
     90  C         -1.0000    7.5490   33.2920 C.2   261  LEU261      0.2591
     91  O         -0.7010    7.6320   34.4850 O.2   261  LEU261     -0.2718
     92  CB         0.5580    8.4190   31.5300 C.3   261  LEU261      0.0284
     93  CG         2.0290    8.4300   31.1300 C.3   261  LEU261      0.0019
     94  CD1        2.2620    9.3820   29.9830 C.3   261  LEU261      0.0001
     95  CD2        2.9200    8.8190   32.3070 C.3   261  LEU261      0.0001
     96  N         -2.2390    7.7770   32.8280 N.am  262  LEU262     -0.1980
     97  CA        -3.3470    8.1150   33.7210 C.3   262  LEU262      0.1596
     98  C         -3.5690    6.9630   34.6960 C.2   262  LEU262      0.2287
     99  O         -3.6690    7.2100   35.9030 O.2   262  LEU262     -0.2864
    100  CB        -4.6330    8.4470   32.9370 C.3   262  LEU262      0.0297
    101  CG        -4.5220    9.6220   31.9400 C.3   262  LEU262      0.0022
    102  CD1       -5.6960    9.6580   30.9980 C.3   262  LEU262      0.0001
    103  CD2       -4.3950   10.9600   32.6590 C.3   262  LEU262      0.0001
@<TRIPOS>BOND
     1    55    56    1
     2    59    56    1
     3    59    60    1
     4    56    57    1
     5    60    61    1
     6    61    62    1
     7    57    58    2
     8    62    63    2
     9    63    64    1
    10    63    65    1
    11     1     2    1
    12    73    71    1
    13    71    70    1
    14     5     2    1
    15     2     3    1
    16    66    67    1
    17    70    67    1
    18    70    72    1
    19    67    68    1
    20     3     6   am
    21     3     4    2
    22     6     7    1
    23    68    69    2
    24     7    10    1
    25     7     8    1
    26    10    11    1
    27     8     9    2
    28    12    11   ar
    29    12    14   ar
    30    11    13   ar
    31    17    18    1
    32    22    21    1
    33    14    16   ar
    34    13    15   ar
    35    80    78    1
    36    18    21    1
    37    18    19    1
    38    21    23    1
    39    24    19   am
    40    24    25    1
    41    78    75    1
    42    78    79    1
    43    74    75    1
    44    28    29    1
    45    28    25    1
    46    16    15   ar
    47    29    30    1
    48    19    20    2
    49    26    25    1
    50    26    27    2
    51    75    76    1
    52    30    31    1
    53    76    77    2
    54    32    33    1
    55    39    37    1
    56    33    36    1
    57    33    34    1
    58    37    36    1
    59    36    38    1
    60    34    35    2
    61    87    85    1
    62    81    82    1
    63    85    82    1
    64    85    86    1
    65    82    83    1
    66    83    84    2
    67    46    44    1
    68    44    45    1
    69    44    41    1
    70    94    93    1
    71    40    41    1
    72    41    42    1
    73   102   101    1
    74    93    92    1
    75    93    95    1
    76    88    89    1
    77    92    89    1
    78    42    43    2
    79   101   103    1
    80   101   100    1
    81    89    90    1
    82    53    52    1
    83    96    90   am
    84    96    97    1
    85   100    97    1
    86    90    91    2
    87    52    54    1
    88    52    51    1
    89    97    98    1
    90    98    99    2
    91    51    48    1
    92    47    48    1
    93    48    49    1
    94    49    50    2
