@<TRIPOS>MOLECULE
tmp/5oqtA00.pdb
 120 120 0 0 0
SMALL
GASTEIGER

@<TRIPOS>ATOM
      1  N         -8.3050   13.5020   35.6920 N.3   191  LEU191     -0.1245
      2  CA        -7.3220   14.5360   36.0620 C.3   191  LEU191      0.1561
      3  C         -7.7260   15.2560   37.3450 C.2   191  LEU191      0.2260
      4  O         -6.8610   15.5430   38.1770 O.2   191  LEU191     -0.2867
      5  CB        -7.0570   15.5560   34.9310 C.3   191  LEU191      0.0270
      6  CG        -6.3960   15.0530   33.6220 C.3   191  LEU191      0.0019
      7  CD1       -6.4290   16.1370   32.5400 C.3   191  LEU191      0.0001
      8  CD2       -4.9690   14.5700   33.8420 C.3   191  LEU191      0.0001
      9  N         -6.9270   13.1470   40.3110 N.3   194  LEU194     -0.1231
     10  CA        -5.4790   13.2270   40.4820 C.3   194  LEU194      0.1693
     11  C         -5.0450   14.5320   41.1450 C.2   194  LEU194      0.2591
     12  O         -4.3400   14.4940   42.1560 O.2   194  LEU194     -0.2718
     13  CB        -4.7630   13.0180   39.1360 C.3   194  LEU194      0.0284
     14  CG        -4.9110   11.6400   38.4910 C.3   194  LEU194      0.0019
     15  CD1       -4.2070   11.5920   37.1510 C.3   194  LEU194      0.0001
     16  CD2       -4.3910   10.5440   39.4000 C.3   194  LEU194      0.0001
     17  N         -5.5160   15.6760   40.6010 N.am  195  ALA195     -0.1980
     18  CA        -5.2200   17.0370   41.0630 C.3   195  ALA195      0.1597
     19  C         -5.7250   17.3410   42.4710 C.2   195  ALA195      0.2287
     20  O         -5.0690   18.0920   43.1840 O.2   195  ALA195     -0.2864
     21  CB        -5.7740   18.0600   40.0780 C.3   195  ALA195      0.0319
     22  N         -4.1090   14.3150   45.1820 N.3   198  VAL198     -0.1231
     23  CA        -2.6710   14.3220   45.4740 C.3   198  VAL198      0.1692
     24  C         -2.3820   14.9280   46.8690 C.2   198  VAL198      0.2592
     25  O         -1.5310   14.4090   47.5910 O.2   198  VAL198     -0.2718
     26  CB        -1.8160   14.9510   44.3310 C.3   198  VAL198      0.0266
     27  CG1       -2.1910   16.4020   44.0360 C.3   198  VAL198      0.0020
     28  CG2       -0.3220   14.8120   44.5990 C.3   198  VAL198      0.0020
     29  N         -3.1550   15.9580   47.2620 N.am  199  TRP199     -0.1962
     30  CA        -3.0600   16.7150   48.5190 C.3   199  TRP199      0.1771
     31  C         -3.2520   15.8810   49.7830 C.2   199  TRP199      0.2620
     32  O         -2.6920   16.2160   50.8270 O.2   199  TRP199     -0.2715
     33  CB        -4.0840   17.8640   48.5020 C.3   199  TRP199      0.0590
     34  CG        -3.8500   18.8350   47.3870 C.ar  199  TRP199      0.0006
     35  CD1       -4.2610   18.7140   46.0930 C.ar  199  TRP199      0.0946
     36  CD2       -3.0800   20.0370   47.4540 C.ar  199  TRP199      0.0152
     37  NE1       -3.7870   19.7650   45.3460 N.ar  199  TRP199     -0.2442
     38  CE2       -3.0610   20.5950   46.1570 C.ar  199  TRP199      0.0810
     39  CE3       -2.4130   20.7100   48.4920 C.ar  199  TRP199      0.0012
     40  CZ2       -2.4110   21.7950   45.8730 C.ar  199  TRP199      0.0191
     41  CZ3       -1.7400   21.8820   48.1990 C.ar  199  TRP199      0.0001
     42  CH2       -1.7490   22.4140   46.9050 C.ar  199  TRP199      0.0015
     43  N         -4.0550   14.8130   49.6860 N.am  200  TYR200     -0.1960
     44  CA        -4.4270   13.9320   50.7920 C.3   200  TYR200      0.1771
     45  C         -3.7050   12.5620   50.7990 C.2   200  TYR200      0.2619
     46  O         -4.0520   11.6950   51.6080 O.2   200  TYR200     -0.2715
     47  CB        -5.9410   13.6990   50.7610 C.3   200  TYR200      0.0574
     48  CG        -6.8230   14.9310   50.7350 C.ar  200  TYR200     -0.0198
     49  CD1       -7.2340   15.4930   49.5280 C.ar  200  TYR200     -0.0009
     50  CD2       -7.3670   15.4460   51.9100 C.ar  200  TYR200     -0.0009
     51  CE1       -8.1090   16.5790   49.4960 C.ar  200  TYR200      0.0417
     52  CE2       -8.2700   16.5070   51.8880 C.ar  200  TYR200      0.0417
     53  CZ        -8.6280   17.0790   50.6800 C.ar  200  TYR200      0.1957
     54  OH        -9.4950   18.1420   50.6570 O.3   200  TYR200     -0.2866
     55  N         -2.7200   12.3650   49.9040 N.am  201  VAL201     -0.1963
     56  CA        -1.9390   11.1260   49.8000 C.3   201  VAL201      0.1727
     57  C         -1.0150   10.9410   51.0390 C.2   201  VAL201      0.2616
     58  O         -0.0920   11.7280   51.2350 O.2   201  VAL201     -0.2715
     59  CB        -1.1560   11.0690   48.4530 C.3   201  VAL201      0.0290
     60  CG1       -0.1300    9.9420   48.4420 C.3   201  VAL201      0.0023
     61  CG2       -2.1040   10.9360   47.2660 C.3   201  VAL201      0.0023
     62  N         -1.2880    9.9130   51.8710 N.am  202  LYS202     -0.1964
     63  CA        -0.4870    9.5460   53.0410 C.3   202  LYS202      0.1713
     64  C          0.5000    8.4520   52.5930 C.2   202  LYS202      0.2458
     65  O          0.0750    7.3170   52.3530 O.2   202  LYS202     -0.2730
     66  CB        -1.3770    9.0350   54.1870 C.3   202  LYS202      0.0311
     67  CG        -1.7790   10.1070   55.1820 C.3   202  LYS202      0.0038
     68  CD        -3.2030    9.9140   55.7000 C.3   202  LYS202      0.0206
     69  CE        -4.2690   10.4720   54.7710 C.3   202  LYS202      0.1093
     70  NZ        -4.3440   11.9600   54.8150 N.3   202  LYS202     -0.1314
     71  N          1.8150    8.7610   52.4550 N.am  203  PRO203     -0.2716
     72  CA         2.7820    7.7270   52.0140 C.3   203  PRO203      0.1536
     73  C          2.9090    6.5110   52.9350 C.2   203  PRO203      0.2598
     74  O          3.6520    5.5790   52.6240 O.2   203  PRO203     -0.2715
     75  CB         4.1060    8.4950   51.9040 C.3   203  PRO203      0.0310
     76  CG         3.7290    9.9470   51.8770 C.3   203  PRO203      0.0237
     77  CD         2.4890   10.0520   52.6970 C.3   203  PRO203      0.0939
     78  N          2.1740    6.5230   54.0640 N.am  204  GLU204     -0.1978
     79  CA         2.1000    5.4540   55.0650 C.3   204  GLU204      0.1602
     80  C          1.3040    4.2710   54.4750 C.2   204  GLU204      0.2287
     81  O          1.6160    3.1060   54.7400 O.2   204  GLU204     -0.2864
     82  CB         1.3920    5.9790   56.3370 C.3   204  GLU204      0.0415
     83  CG         2.1060    7.1160   57.0620 C.3   204  GLU204      0.1163
     84  CD         1.2860    8.3770   57.2800 C.2   204  GLU204      0.3649
     85  OE1        1.2900    9.2530   56.3840 O.co2 204  GLU204     -0.2457
     86  OE2        0.6580    8.4990   58.3580 O.co2 204  GLU204     -0.2457
     87  N          1.3060    3.2820   51.5180 N.3   206  TRP206     -0.1241
     88  CA         2.1380    2.6670   50.4920 C.3   206  TRP206      0.1605
     89  C          3.1910    1.7380   51.0910 C.2   206  TRP206      0.2264
     90  O          3.6320    0.8230   50.3950 O.2   206  TRP206     -0.2867
     91  CB         2.8480    3.7620   49.6860 C.3   206  TRP206      0.0550
     92  CG         2.0020    4.5220   48.7030 C.ar  206  TRP206      0.0003
     93  CD1        0.8770    4.0810   48.0660 C.ar  206  TRP206      0.0946
     94  CD2        2.3200    5.7930   48.1230 C.ar  206  TRP206      0.0152
     95  NE1        0.4570    5.0120   47.1470 N.ar  206  TRP206     -0.2442
     96  CE2        1.3260    6.0740   47.1590 C.ar  206  TRP206      0.0810
     97  CE3        3.3580    6.7210   48.3160 C.ar  206  TRP206      0.0012
     98  CZ2        1.3270    7.2590   46.4070 C.ar  206  TRP206      0.0191
     99  CZ3        3.3550    7.8910   47.5750 C.ar  206  TRP206      0.0001
    100  CH2        2.3520    8.1490   46.6310 C.ar  206  TRP206      0.0015
    101  N         -0.9140    6.7660   37.5150 N.3   265  ALA265     -0.1245
    102  CA        -1.1880    7.8900   38.4040 C.3   265  ALA265      0.1562
    103  C         -2.4130    7.6320   39.2730 C.2   265  ALA265      0.2260
    104  O         -2.3800    7.9570   40.4570 O.2   265  ALA265     -0.2867
    105  CB        -1.3680    9.1660   37.5870 C.3   265  ALA265      0.0290
    106  N         -1.5580    5.0670   42.1140 N.3   268  LEU268     -0.1231
    107  CA        -0.7540    5.6520   43.1740 C.3   268  LEU268      0.1693
    108  C         -1.5920    6.5180   44.1090 C.2   268  LEU268      0.2591
    109  O         -1.5380    6.3290   45.3240 O.2   268  LEU268     -0.2718
    110  CB         0.4480    6.4230   42.6040 C.3   268  LEU268      0.0284
    111  CG         1.5300    5.5800   41.9200 C.3   268  LEU268      0.0019
    112  CD1        2.4050    6.4390   41.0390 C.3   268  LEU268      0.0001
    113  CD2        2.3840    4.8400   42.9290 C.3   268  LEU268      0.0001
    114  N         -2.4050    7.4160   43.5380 N.am  269  VAL269     -0.1980
    115  CA        -3.2640    8.3390   44.2750 C.3   269  VAL269      0.1595
    116  C         -4.3400    7.5740   45.0740 C.2   269  VAL269      0.2287
    117  O         -4.5630    7.8920   46.2480 O.2   269  VAL269     -0.2864
    118  CB        -3.8280    9.4370   43.3260 C.3   269  VAL269      0.0276
    119  CG1       -4.7760   10.3850   44.0560 C.3   269  VAL269      0.0022
    120  CG2       -2.6880   10.2380   42.7030 C.3   269  VAL269      0.0022
@<TRIPOS>BOND
     1     7     6    1
     2     6     8    1
     3     6     5    1
     4     5     2    1
     5     1     2    1
     6     2     3    1
     7    15    14    1
     8     3     4    2
     9   101   102    1
    10   105   102    1
    11   102   103    1
    12    14    13    1
    13    14    16    1
    14    13    10    1
    15   103   104    2
    16    21    18    1
    17     9    10    1
    18    10    11    1
    19    17    18    1
    20    17    11   am
    21   112   111    1
    22    18    19    1
    23    11    12    2
    24   111   110    1
    25   111   113    1
    26   106   107    1
    27    19    20    2
    28   110   107    1
    29   120   118    1
    30   107   108    1
    31   118   119    1
    32   118   115    1
    33   114   108   am
    34   114   115    1
    35    27    26    1
    36   108   109    2
    37   115   116    1
    38    26    28    1
    39    26    23    1
    40   116   117    2
    41    22    23    1
    42    37    35   ar
    43    37    38   ar
    44    23    24    1
    45    40    38   ar
    46    40    42   ar
    47    35    34   ar
    48    38    36   ar
    49    98   100   ar
    50    98    96   ar
    51   100    99   ar
    52    24    29   am
    53    24    25    2
    54    42    41   ar
    55    95    96   ar
    56    95    93   ar
    57    96    94   ar
    58    29    30    1
    59    61    59    1
    60    34    36   ar
    61    34    33    1
    62    36    39   ar
    63    99    97   ar
    64    93    92   ar
    65    94    97   ar
    66    94    92   ar
    67    41    39   ar
    68    60    59    1
    69    59    56    1
    70    33    30    1
    71    30    31    1
    72    92    91    1
    73    51    49   ar
    74    51    53   ar
    75    49    48   ar
    76    43    31   am
    77    43    44    1
    78    91    88    1
    79    31    32    2
    80    56    55    1
    81    56    57    1
    82    55    45   am
    83    90    89    2
    84    88    89    1
    85    88    87    1
    86    54    53    1
    87    53    52   ar
    88    48    47    1
    89    48    50   ar
    90    47    44    1
    91    44    45    1
    92    45    46    2
    93    57    58    2
    94    57    62   am
    95    62    63    1
    96    76    75    1
    97    76    77    1
    98    52    50   ar
    99    75    72    1
   100    72    71    1
   101    72    73    1
   102    65    64    2
   103    71    64   am
   104    71    77    1
   105    64    63    1
   106    74    73    2
   107    73    78   am
   108    63    66    1
   109    78    79    1
   110    66    67    1
   111    80    81    2
   112    80    79    1
   113    69    70    1
   114    69    68    1
   115    79    82    1
   116    67    68    1
   117    82    83    1
   118    85    84   ar
   119    83    84    1
   120    84    86   ar
