@<TRIPOS>MOLECULE
tmp/5oqtA05.pdb
 82 80 0 0 0
SMALL
GASTEIGER

@<TRIPOS>ATOM
      1  N          3.5700  -12.6200   43.1640 N.3   215  SER215     -0.1202
      2  CA         2.5050  -13.5410   42.7550 C.3   215  SER215      0.2020
      3  C          1.1840  -12.7580   42.6710 C.2   215  SER215      0.2619
      4  O          0.4100  -12.9590   41.7320 O.2   215  SER215     -0.2717
      5  CB         2.3850  -14.6780   43.7660 C.3   215  SER215      0.2103
      6  OG         1.1320  -15.3340   43.6810 O.3   215  SER215     -0.2182
      7  N          0.9860  -11.8520   43.6400 N.am  216  GLY216     -0.1956
      8  CA        -0.1510  -10.9480   43.7240 C.3   216  GLY216      0.1869
      9  C         -0.1270   -9.8580   42.6660 C.2   216  GLY216      0.2309
     10  O         -1.1830   -9.4470   42.1830 O.2   216  GLY216     -0.2863
     11  N         -1.3670  -11.7800   39.3770 N.3   219  THR219     -0.1218
     12  CA        -2.8220  -12.0370   39.2940 C.3   219  THR219      0.1862
     13  C         -3.5830  -10.7240   39.1370 C.2   219  THR219      0.2287
     14  O         -4.5780  -10.6760   38.4000 O.2   219  THR219     -0.2866
     15  CB        -3.3590  -12.8480   40.4660 C.3   219  THR219      0.1770
     16  OG1       -3.0280  -12.1820   41.6810 O.3   219  THR219     -0.2211
     17  CG2       -2.8620  -14.2780   40.4690 C.3   219  THR219      0.0375
     18  N         -2.2410  -15.1740   30.8240 N.3   423  VAL423     -0.1231
     19  CA        -3.2690  -16.2090   30.6680 C.3   423  VAL423      0.1692
     20  C         -3.1510  -17.2360   31.8000 C.2   423  VAL423      0.2592
     21  O         -4.1650  -17.6680   32.3530 O.2   423  VAL423     -0.2718
     22  CB        -3.1880  -16.8850   29.2780 C.3   423  VAL423      0.0266
     23  CG1       -4.1250  -18.0870   29.1790 C.3   423  VAL423      0.0020
     24  CG2       -3.4920  -15.8940   28.1690 C.3   423  VAL423      0.0020
     25  N         -1.9040  -17.5910   32.1650 N.am  424  LEU424     -0.1966
     26  CA        -1.6040  -18.5670   33.2200 C.3   424  LEU424      0.1728
     27  C         -1.9190  -18.0440   34.6160 C.2   424  LEU424      0.2616
     28  O         -1.8770  -18.8110   35.5730 O.2   424  LEU424     -0.2715
     29  CB        -0.1440  -19.0800   33.1220 C.3   424  LEU424      0.0311
     30  CG         0.3520  -19.5360   31.7210 C.3   424  LEU424      0.0022
     31  CD1        1.8530  -19.7520   31.7180 C.3   424  LEU424      0.0001
     32  CD2       -0.3870  -20.7700   31.2160 C.3   424  LEU424      0.0001
     33  N         -2.2930  -16.7590   34.7220 N.am  425  GLN425     -0.1963
     34  CA        -2.6140  -16.0860   35.9790 C.3   425  GLN425      0.1733
     35  C         -4.1170  -16.0090   36.3120 C.2   425  GLN425      0.2616
     36  O         -4.4790  -15.5490   37.4010 O.2   425  GLN425     -0.2715
     37  CB        -1.9790  -14.6940   35.9820 C.3   425  GLN425      0.0408
     38  CG        -0.8580  -14.5860   36.9930 C.3   425  GLN425      0.0908
     39  CD         0.3800  -15.3530   36.6130 C.2   425  GLN425      0.2608
     40  OE1        1.1660  -14.9410   35.7560 O.2   425  GLN425     -0.2717
     41  NE2        0.5960  -16.4740   37.2690 N.am  425  GLN425     -0.0878
     42  N         -4.9790  -16.4810   35.3940 N.am  426  LEU426     -0.1964
     43  CA        -6.4370  -16.4720   35.5430 C.3   426  LEU426      0.1713
     44  C         -6.9820  -17.7310   36.2600 C.2   426  LEU426      0.2458
     45  O         -6.3830  -18.8010   36.1090 O.2   426  LEU426     -0.2730
     46  CB        -7.0990  -16.3230   34.1580 C.3   426  LEU426      0.0310
     47  CG        -6.8460  -15.0030   33.4060 C.3   426  LEU426      0.0022
     48  CD1       -7.1920  -15.1340   31.9430 C.3   426  LEU426      0.0001
     49  CD2       -7.6130  -13.8490   34.0340 C.3   426  LEU426      0.0001
     50  N         -8.1250  -17.6460   37.0070 N.am  427  PRO427     -0.2716
     51  CA        -8.6730  -18.8390   37.6790 C.3   427  PRO427      0.1536
     52  C         -8.9190  -20.0050   36.7400 C.2   427  PRO427      0.2598
     53  O         -9.1900  -19.7750   35.5710 O.2   427  PRO427     -0.2715
     54  CB        -9.9930  -18.3280   38.2540 C.3   427  PRO427      0.0310
     55  CG        -9.7540  -16.8980   38.5020 C.3   427  PRO427      0.0237
     56  CD        -8.9560  -16.4610   37.3080 C.3   427  PRO427      0.0939
     57  N         -8.8150  -21.2470   37.2400 N.am  428  ALA428     -0.1978
     58  CA        -9.0070  -22.4510   36.4220 C.3   428  ALA428      0.1597
     59  C        -10.4240  -22.5890   35.8470 C.2   428  ALA428      0.2287
     60  O        -10.5680  -23.0290   34.7040 O.2   428  ALA428     -0.2864
     61  CB        -8.6340  -23.6920   37.2090 C.3   428  ALA428      0.0319
     62  N        -11.5270  -21.2080   32.3130 N.3   431  TRP431     -0.1241
     63  CA       -11.2770  -22.0610   31.1590 C.3   431  TRP431      0.1605
     64  C        -12.4910  -22.9010   30.7700 C.2   431  TRP431      0.2264
     65  O        -12.6160  -23.2330   29.5990 O.2   431  TRP431     -0.2867
     66  CB       -10.0610  -22.9570   31.4020 C.3   431  TRP431      0.0550
     67  CG        -8.7480  -22.2370   31.3140 C.ar  431  TRP431      0.0003
     68  CD1       -8.1150  -21.5540   32.3130 C.ar  431  TRP431      0.0946
     69  CD2       -7.8850  -22.1690   30.1690 C.ar  431  TRP431      0.0152
     70  NE1       -6.9110  -21.0630   31.8620 N.ar  431  TRP431     -0.2442
     71  CE2       -6.7400  -21.4340   30.5510 C.ar  431  TRP431      0.0810
     72  CE3       -7.9710  -22.6540   28.8490 C.ar  431  TRP431      0.0012
     73  CZ2       -5.6910  -21.1670   29.6590 C.ar  431  TRP431      0.0191
     74  CZ3       -6.9320  -22.3890   27.9680 C.ar  431  TRP431      0.0001
     75  CH2       -5.8110  -21.6480   28.3720 C.ar  431  TRP431      0.0015
     76  N        -13.3870  -22.5900   26.8170 N.3   435  VAL435     -0.1245
     77  CA       -13.1350  -23.8140   26.0480 C.3   435  VAL435      0.1561
     78  C        -14.4450  -24.3790   25.4770 C.2   435  VAL435      0.2260
     79  O        -14.5350  -24.5740   24.2580 O.2   435  VAL435     -0.2867
     80  CB       -12.3080  -24.8550   26.8580 C.3   435  VAL435      0.0252
     81  CG1      -12.4150  -26.2650   26.2740 C.3   435  VAL435      0.0019
     82  CG2      -10.8490  -24.4240   26.9710 C.3   435  VAL435      0.0019
@<TRIPOS>BOND
     1    79    78    2
     2    78    77    1
     3    77    76    1
     4    77    80    1
     5    81    80    1
     6    80    82    1
     7    74    75   ar
     8    74    72   ar
     9    24    22    1
    10    75    73   ar
    11    72    69   ar
    12    23    22    1
    13    22    19    1
    14    65    64    2
    15    73    71   ar
    16    69    71   ar
    17    69    67   ar
    18    71    70   ar
    19    19    18    1
    20    19    20    1
    21    64    63    1
    22    63    66    1
    23    63    62    1
    24    32    30    1
    25    67    66    1
    26    67    68   ar
    27    31    30    1
    28    30    29    1
    29    20    25   am
    30    20    21    2
    31    70    68   ar
    32    48    47    1
    33    25    26    1
    34    29    26    1
    35    26    27    1
    36    47    49    1
    37    47    46    1
    38    46    43    1
    39    27    33   am
    40    27    28    2
    41    60    59    2
    42    33    34    1
    43    42    43    1
    44    42    35   am
    45    43    44    1
    46    53    52    2
    47    40    39    2
    48    59    58    1
    49    34    37    1
    50    34    35    1
    51    37    38    1
    52    45    44    2
    53    44    50   am
    54    35    36    2
    55    58    61    1
    56    58    57    1
    57    39    38    1
    58    39    41   am
    59    52    57   am
    60    52    51    1
    61    50    56    1
    62    50    51    1
    63    56    55    1
    64    51    54    1
    65    54    55    1
    66    14    13    2
    67    13    12    1
    68    12    11    1
    69    12    15    1
    70    15    17    1
    71    15    16    1
    72     4     3    2
    73    10     9    2
    74     9     8    1
    75     3     2    1
    76     3     7   am
    77     2     1    1
    78     2     5    1
    79     7     8    1
    80     6     5    1
