@<TRIPOS>MOLECULE
tmp/5oqtA04.pdb
 152 144 0 0 0
SMALL
GASTEIGER

@<TRIPOS>ATOM
      1  N        -18.4050  -13.6020   21.6780 N.3   112  LEU112     -0.1245
      2  CA       -18.5560  -13.7540   23.1140 C.3   112  LEU112      0.1561
      3  C        -17.8550  -12.5990   23.8580 C.2   112  LEU112      0.2260
      4  O        -18.4950  -11.9720   24.6950 O.2   112  LEU112     -0.2867
      5  CB       -17.9890  -15.1130   23.5480 C.3   112  LEU112      0.0270
      6  CG       -18.0770  -15.4440   25.0230 C.3   112  LEU112      0.0019
      7  CD1      -19.4380  -16.0010   25.3740 C.3   112  LEU112      0.0001
      8  CD2      -16.9860  -16.3990   25.4100 C.3   112  LEU112      0.0001
      9  N        -19.6400  -10.2600   26.5580 N.3   116  VAL116     -0.1245
     10  CA       -19.1910  -10.4140   27.9440 C.3   116  VAL116      0.1561
     11  C        -18.5380   -9.1030   28.4520 C.2   116  VAL116      0.2260
     12  O        -18.7390   -8.7390   29.6170 O.2   116  VAL116     -0.2867
     13  CB       -18.3040  -11.6850   28.1080 C.3   116  VAL116      0.0252
     14  CG1      -17.6960  -11.7840   29.5000 C.3   116  VAL116      0.0019
     15  CG2      -19.1110  -12.9460   27.8100 C.3   116  VAL116      0.0019
     16  N        -20.9130   -9.5450   13.5920 N.3   324  PHE324     -0.1241
     17  CA       -21.9780  -10.4600   13.1410 C.3   324  PHE324      0.1605
     18  C        -22.3000  -10.2320   11.6550 C.2   324  PHE324      0.2264
     19  O        -22.5940  -11.1990   10.9520 O.2   324  PHE324     -0.2867
     20  CB       -23.2620  -10.3130   13.9880 C.3   324  PHE324      0.0534
     21  CG       -23.4350  -11.2850   15.1330 C.ar  324  PHE324     -0.0203
     22  CD1      -23.5350  -12.6530   14.9000 C.ar  324  PHE324     -0.0042
     23  CD2      -23.5720  -10.8280   16.4400 C.ar  324  PHE324     -0.0042
     24  CE1      -23.7080  -13.5540   15.9620 C.ar  324  PHE324     -0.0003
     25  CE2      -23.7480  -11.7270   17.5020 C.ar  324  PHE324     -0.0003
     26  CZ       -23.8160  -13.0840   17.2560 C.ar  324  PHE324     -0.0000
     27  N        -21.3810  -13.3080    8.6700 N.3   328  SER328     -0.1217
     28  CA       -22.5010  -13.7420    7.8230 C.3   328  SER328      0.1889
     29  C        -22.3220  -13.4100    6.3270 C.2   328  SER328      0.2288
     30  O        -22.7570  -14.1920    5.4780 O.2   328  SER328     -0.2866
     31  CB       -23.8290  -13.2090    8.3500 C.3   328  SER328      0.2089
     32  OG       -23.8030  -11.8090    8.5660 O.3   328  SER328     -0.2183
     33  N        -21.7290  -17.8340    9.0040 N.3   333  LEU333     -0.1231
     34  CA       -22.9410  -17.8510    9.8170 C.3   333  LEU333      0.1678
     35  C        -24.1310  -17.4720    8.9150 C.2   333  LEU333      0.2434
     36  O        -23.8880  -16.8350    7.8860 O.2   333  LEU333     -0.2733
     37  CB       -22.8300  -16.9310   11.0470 C.3   333  LEU333      0.0284
     38  CG       -22.2750  -17.5680   12.3290 C.3   333  LEU333      0.0019
     39  CD1      -22.3270  -16.5930   13.4790 C.3   333  LEU333      0.0001
     40  CD2      -23.0380  -18.8350   12.7160 C.3   333  LEU333      0.0001
     41  N        -25.4020  -17.8760    9.2040 N.am  334  PRO334     -0.2729
     42  CA       -26.5010  -17.5400    8.2720 C.3   334  PRO334      0.1401
     43  C        -26.8190  -16.0440    8.1540 C.2   334  PRO334      0.2269
     44  O        -26.4580  -15.2440    9.0190 O.2   334  PRO334     -0.2865
     45  CB       -27.6900  -18.3610    8.7900 C.3   334  PRO334      0.0296
     46  CG       -27.0990  -19.3510    9.7660 C.3   334  PRO334      0.0237
     47  CD       -25.9060  -18.6660   10.3470 C.3   334  PRO334      0.0939
     48  N        -29.4050  -12.9080    7.9290 N.3   336  VAL336     -0.1245
     49  CA       -30.7020  -12.4140    8.4030 C.3   336  VAL336      0.1561
     50  C        -31.0410  -11.1990    7.5200 C.2   336  VAL336      0.2260
     51  O        -30.1260  -10.4780    7.1200 O.2   336  VAL336     -0.2867
     52  CB       -30.6520  -12.0750    9.9320 C.3   336  VAL336      0.0252
     53  CG1      -31.8560  -11.2510   10.3930 C.3   336  VAL336      0.0019
     54  CG2      -30.5170  -13.3380   10.7770 C.3   336  VAL336      0.0019
     55  N        -29.6680   -7.8690    7.9390 N.3   348  TYR348     -0.1227
     56  CA       -29.9940   -7.4760    9.3080 C.3   348  TYR348      0.1736
     57  C        -29.2970   -8.3080   10.4010 C.2   348  TYR348      0.2595
     58  O        -28.9630   -9.4750   10.1940 O.2   348  TYR348     -0.2718
     59  CB       -31.5280   -7.5340    9.4860 C.3   348  TYR348      0.0548
     60  CG       -32.0530   -7.0430   10.8220 C.ar  348  TYR348     -0.0200
     61  CD1      -31.9990   -5.6930   11.1630 C.ar  348  TYR348     -0.0009
     62  CD2      -32.6670   -7.9170   11.7170 C.ar  348  TYR348     -0.0009
     63  CE1      -32.4900   -5.2340   12.3870 C.ar  348  TYR348      0.0417
     64  CE2      -33.1750   -7.4680   12.9380 C.ar  348  TYR348      0.0417
     65  CZ       -33.0790   -6.1250   13.2720 C.ar  348  TYR348      0.1957
     66  OH       -33.5610   -5.6710   14.4820 O.3   348  TYR348     -0.2866
     67  N        -29.0770   -7.6750   11.5630 N.am  349  VAL349     -0.1966
     68  CA       -28.5360   -8.2750   12.7800 C.3   349  VAL349      0.1727
     69  C        -29.5130   -7.9030   13.8980 C.2   349  VAL349      0.2616
     70  O        -29.7770   -6.7120   14.0980 O.2   349  VAL349     -0.2715
     71  CB       -27.0620   -7.8680   13.0870 C.3   349  VAL349      0.0290
     72  CG1      -26.6670   -8.2100   14.5230 C.3   349  VAL349      0.0023
     73  CG2      -26.1010   -8.5290   12.1050 C.3   349  VAL349      0.0023
     74  N        -30.0890   -8.9140   14.5840 N.am  350  ASN350     -0.1972
     75  CA       -31.0370   -8.6560   15.6700 C.3   350  ASN350      0.1688
     76  C        -30.3300   -8.1530   16.9350 C.2   350  ASN350      0.2292
     77  O        -29.8520   -8.9430   17.7570 O.2   350  ASN350     -0.2864
     78  CB       -31.9600   -9.8450   15.9470 C.3   350  ASN350      0.1181
     79  CG       -33.2050   -9.4670   16.7220 C.2   350  ASN350      0.2629
     80  OD1      -33.2380   -8.5120   17.5110 O.2   350  ASN350     -0.2716
     81  ND2      -34.2690  -10.2120   16.5090 N.am  350  ASN350     -0.0877
     82  N        -32.0600   -8.9430   20.3290 N.3   353  LEU353     -0.1231
     83  CA       -31.6670  -10.2560   20.8190 C.3   353  LEU353      0.1693
     84  C        -30.2370  -10.2620   21.3660 C.2   353  LEU353      0.2592
     85  O        -30.0250  -10.7740   22.4670 O.2   353  LEU353     -0.2718
     86  CB       -31.8680  -11.3430   19.7580 C.3   353  LEU353      0.0284
     87  CG       -33.3020  -11.8190   19.5390 C.3   353  LEU353      0.0019
     88  CD1      -33.3410  -12.9250   18.5190 C.3   353  LEU353      0.0001
     89  CD2      -33.9330  -12.3270   20.8290 C.3   353  LEU353      0.0001
     90  N        -29.2680   -9.6660   20.6310 N.am  354  THR354     -0.1953
     91  CA       -27.8730   -9.5920   21.0810 C.3   354  THR354      0.1897
     92  C        -27.7710   -8.7390   22.3680 C.2   354  THR354      0.2313
     93  O        -27.0080   -9.0810   23.2690 O.2   354  THR354     -0.2863
     94  CB       -26.9060   -9.1680   19.9460 C.3   354  THR354      0.1794
     95  OG1      -27.2270   -7.8740   19.4230 O.3   354  THR354     -0.2208
     96  CG2      -26.8400  -10.1900   18.8150 C.3   354  THR354      0.0378
     97  N        -29.3910  -10.7650   25.5010 N.3   357  ALA357     -0.1245
     98  CA       -28.3840  -11.7240   25.9850 C.3   357  ALA357      0.1562
     99  C        -27.4040  -11.0540   26.9720 C.2   357  ALA357      0.2260
    100  O        -27.2040  -11.5640   28.0730 O.2   357  ALA357     -0.2867
    101  CB       -27.6200  -12.3210   24.8120 C.3   357  ALA357      0.0290
    102  N        -26.8750  -11.4260   31.4410 N.3   361  PHE361     -0.1241
    103  CA       -25.5850  -11.6970   32.0820 C.3   361  PHE361      0.1605
    104  C        -25.0980  -10.5520   32.9440 C.2   361  PHE361      0.2264
    105  O        -24.4210  -10.8000   33.9400 O.2   361  PHE361     -0.2867
    106  CB       -24.5210  -12.1200   31.0620 C.3   361  PHE361      0.0534
    107  CG       -24.8100  -13.4550   30.4250 C.ar  361  PHE361     -0.0203
    108  CD1      -25.0180  -13.5570   29.0570 C.ar  361  PHE361     -0.0042
    109  CD2      -24.8980  -14.6100   31.1980 C.ar  361  PHE361     -0.0042
    110  CE1      -25.3170  -14.7870   28.4690 C.ar  361  PHE361     -0.0003
    111  CE2      -25.1910  -15.8420   30.6090 C.ar  361  PHE361     -0.0003
    112  CZ       -25.3960  -15.9230   29.2470 C.ar  361  PHE361     -0.0000
    113  N        -13.4130  -13.6490   32.1800 N.3   373  LEU373     -0.1245
    114  CA       -13.8500  -14.3140   30.9440 C.3   373  LEU373      0.1561
    115  C        -13.5890  -13.4360   29.6790 C.2   373  LEU373      0.2260
    116  O        -13.3930  -13.9630   28.5800 O.2   373  LEU373     -0.2867
    117  CB       -15.3330  -14.7370   31.0660 C.3   373  LEU373      0.0270
    118  CG       -16.0080  -15.5260   29.9150 C.3   373  LEU373      0.0019
    119  CD1      -15.2490  -16.8190   29.5600 C.3   373  LEU373      0.0001
    120  CD2      -17.4560  -15.8430   30.2510 C.3   373  LEU373      0.0001
    121  N        -15.8220  -22.1060   30.7120 N.3   433  GLY433     -0.1225
    122  CA       -16.6870  -21.3070   29.8500 C.3   433  GLY433      0.1811
    123  C        -16.0950  -21.0390   28.4820 C.2   433  GLY433      0.2280
    124  O        -16.7610  -21.2640   27.4730 O.2   433  GLY433     -0.2866
    125  N        -15.4670  -24.5900   26.3460 N.3   436  SER436     -0.1202
    126  CA       -16.7810  -25.1050   25.9500 C.3   436  SER436      0.2020
    127  C        -17.4220  -24.2470   24.8640 C.2   436  SER436      0.2618
    128  O        -18.0280  -24.7940   23.9470 O.2   436  SER436     -0.2717
    129  CB       -17.7080  -25.2520   27.1530 C.3   436  SER436      0.2103
    130  OG       -18.0040  -24.0070   27.7640 O.3   436  SER436     -0.2182
    131  N        -17.2380  -22.9170   24.9310 N.am  437  TRP437     -0.1975
    132  CA       -17.7400  -21.9960   23.9180 C.3   437  TRP437      0.1640
    133  C        -17.0260  -22.2590   22.5900 C.2   437  TRP437      0.2290
    134  O        -17.6840  -22.2530   21.5470 O.2   437  TRP437     -0.2864
    135  CB       -17.5440  -20.5450   24.3630 C.3   437  TRP437      0.0576
    136  CG       -17.9190  -19.5290   23.3270 C.ar  437  TRP437      0.0006
    137  CD1      -17.0680  -18.8230   22.5300 C.ar  437  TRP437      0.0946
    138  CD2      -19.2420  -19.1090   22.9740 C.ar  437  TRP437      0.0152
    139  NE1      -17.7780  -17.9730   21.7170 N.ar  437  TRP437     -0.2442
    140  CE2      -19.1160  -18.1340   21.9610 C.ar  437  TRP437      0.0810
    141  CE3      -20.5290  -19.4650   23.4140 C.ar  437  TRP437      0.0012
    142  CZ2      -20.2250  -17.5000   21.3880 C.ar  437  TRP437      0.0191
    143  CZ3      -21.6270  -18.8460   22.8370 C.ar  437  TRP437      0.0001
    144  CH2      -21.4700  -17.8750   21.8370 C.ar  437  TRP437      0.0015
    145  N        -18.2650  -25.4910   20.8320 N.3   440  ILE440     -0.1245
    146  CA       -19.5520  -25.1790   20.1820 C.3   440  ILE440      0.1561
    147  C        -19.2840  -24.5580   18.7980 C.2   440  ILE440      0.2260
    148  O        -19.8480  -25.0160   17.8060 O.2   440  ILE440     -0.2867
    149  CB       -20.4700  -24.2770   21.0790 C.3   440  ILE440      0.0252
    150  CG1      -20.9220  -25.0210   22.3590 C.3   440  ILE440      0.0019
    151  CG2      -21.6940  -23.7550   20.2990 C.3   440  ILE440      0.0019
    152  CD1      -21.3580  -24.1210   23.5350 C.3   440  ILE440      0.0001
@<TRIPOS>BOND
     1    30    29    2
     2    29    28    1
     3    51    50    2
     4    50    49    1
     5    28    31    1
     6    28    27    1
     7    36    35    2
     8    48    49    1
     9    55    56    1
    10    43    42    1
    11    43    44    2
    12    42    45    1
    13    42    41    1
    14    31    32    1
    15    49    52    1
    16    45    46    1
    17    35    41   am
    18    35    34    1
    19    33    34    1
    20    41    47    1
    21    56    59    1
    22    56    57    1
    23    59    60    1
    24    46    47    1
    25    34    37    1
    26    52    53    1
    27    52    54    1
    28    58    57    2
    29    57    67   am
    30    60    61   ar
    31    60    62   ar
    32    19    18    2
    33    37    38    1
    34    61    63   ar
    35    67    68    1
    36    18    17    1
    37    62    64   ar
    38    73    71    1
    39    38    40    1
    40    38    39    1
    41    63    65   ar
    42    68    71    1
    43    68    69    1
    44    64    65   ar
    45    71    72    1
    46    17    16    1
    47    17    20    1
    48    65    66    1
    49    69    70    2
    50    69    74   am
    51    20    21    1
    52    74    75    1
    53    22    21   ar
    54    22    24   ar
    55    21    23   ar
    56    75    78    1
    57    75    76    1
    58    78    79    1
    59    24    26   ar
    60    23    25   ar
    61    81    79   am
    62    79    80    2
    63    76    77    2
    64    26    25   ar
    65   148   147    2
    66    88    87    1
    67   147   146    1
    68    96    94    1
    69    95    94    1
    70    87    86    1
    71    87    89    1
    72    86    83    1
    73    94    91    1
    74   146   145    1
    75   146   149    1
    76   151   149    1
    77    82    83    1
    78    90    91    1
    79    90    84   am
    80    83    84    1
    81   149   150    1
    82    91    92    1
    83    84    85    2
    84   142   144   ar
    85   142   140   ar
    86   134   133    2
    87     1     2    1
    88   139   140   ar
    89   139   137   ar
    90   144   143   ar
    91   140   138   ar
    92   150   152    1
    93    92    93    2
    94   137   136   ar
    95   133   132    1
    96   143   141   ar
    97   138   136   ar
    98   138   141   ar
    99     2     5    1
   100     2     3    1
   101   136   135    1
   102     5     6    1
   103     3     4    2
   104   132   135    1
   105   132   131    1
   106   128   127    2
   107   101    98    1
   108   127   131   am
   109   127   126    1
   110     6     7    1
   111     6     8    1
   112    97    98    1
   113   126   125    1
   114   126   129    1
   115    98    99    1
   116     9    10    1
   117    99   100    2
   118   129   130    1
   119   124   123    2
   120    15    13    1
   121    10    13    1
   122    10    11    1
   123    13    14    1
   124    11    12    2
   125   110   108   ar
   126   110   112   ar
   127   123   122    1
   128   116   115    2
   129   108   107   ar
   130   112   111   ar
   131   119   118    1
   132   115   114    1
   133   122   121    1
   134   118   120    1
   135   118   117    1
   136   107   106    1
   137   107   109   ar
   138   111   109   ar
   139   114   117    1
   140   114   113    1
   141   106   103    1
   142   102   103    1
   143   103   104    1
   144   104   105    2
