@<TRIPOS>MOLECULE
tmp/5oqtA07.pdb
 101 94 0 0 0
SMALL
GASTEIGER

@<TRIPOS>ATOM
      1  N        -11.5390    8.4370   19.7600 N.3    33  LEU33      -0.1245
      2  CA       -12.2080    7.1680   19.4920 C.3    33  LEU33       0.1561
      3  C        -11.5790    6.0960   20.3830 C.2    33  LEU33       0.2260
      4  O        -12.3000    5.3780   21.0800 O.2    33  LEU33      -0.2867
      5  CB       -12.0300    6.7870   18.0000 C.3    33  LEU33       0.0270
      6  CG       -13.2090    6.1420   17.2500 C.3    33  LEU33       0.0019
      7  CD1      -13.5680    4.7620   17.7940 C.3    33  LEU33       0.0001
      8  CD2      -14.4170    7.0730   17.1990 C.3    33  LEU33       0.0001
      9  N        -31.0300    0.6620   27.4260 N.3   163  PHE163     -0.1241
     10  CA       -30.9850    2.0510   26.9750 C.3   163  PHE163      0.1605
     11  C        -30.0390    2.1550   25.7760 C.2   163  PHE163      0.2264
     12  O        -30.3840    2.8180   24.7950 O.2   163  PHE163     -0.2867
     13  CB       -30.5500    3.0020   28.1030 C.3   163  PHE163      0.0534
     14  CG       -30.6820    4.4740   27.7640 C.ar  163  PHE163     -0.0203
     15  CD1      -31.8980    5.1340   27.9120 C.ar  163  PHE163     -0.0042
     16  CD2      -29.5870    5.2020   27.3080 C.ar  163  PHE163     -0.0042
     17  CE1      -32.0180    6.4930   27.6010 C.ar  163  PHE163     -0.0003
     18  CE2      -29.7080    6.5650   27.0040 C.ar  163  PHE163     -0.0003
     19  CZ       -30.9210    7.1990   27.1500 C.ar  163  PHE163     -0.0000
     20  N        -30.7630    3.0170   21.7220 N.3   167  LEU167     -0.1245
     21  CA       -30.0030    4.0540   21.0120 C.3   167  LEU167      0.1561
     22  C        -29.4490    3.5550   19.6710 C.2   167  LEU167      0.2260
     23  O        -29.6520    4.2130   18.6470 O.2   167  LEU167     -0.2867
     24  CB       -28.8640    4.6220   21.8820 C.3   167  LEU167      0.0270
     25  CG       -29.2380    5.5340   23.0600 C.3   167  LEU167      0.0019
     26  CD1      -28.0320    5.7880   23.9370 C.3   167  LEU167      0.0001
     27  CD2      -29.8250    6.8610   22.5880 C.3   167  LEU167      0.0001
     28  N        -23.3870    9.0550   14.1810 N.3   174  LYS174     -0.1231
     29  CA       -22.3140    9.4870   15.0780 C.3   174  LYS174      0.1693
     30  C        -21.7310   10.8660   14.7210 C.2   174  LYS174      0.2593
     31  O        -21.6140   11.2110   13.5440 O.2   174  LYS174     -0.2718
     32  CB       -21.2150    8.4110   15.1850 C.3   174  LYS174      0.0285
     33  CG       -20.5970    7.9340   13.8660 C.3   174  LYS174      0.0035
     34  CD       -19.5200    6.8810   14.1200 C.3   174  LYS174      0.0206
     35  CE       -19.1640    6.0960   12.8820 C.3   174  LYS174      0.1093
     36  NZ       -18.2520    4.9620   13.1920 N.3   174  LYS174     -0.1314
     37  N        -21.3860   11.6510   15.7600 N.am  175  SER175     -0.1938
     38  CA       -20.8140   12.9970   15.6740 C.3   175  SER175      0.2055
     39  C        -19.4520   13.0340   16.3770 C.2   175  SER175      0.2642
     40  O        -19.3850   12.9010   17.6020 O.2   175  SER175     -0.2714
     41  CB       -21.7680   14.0230   16.2880 C.3   175  SER175      0.2130
     42  OG       -21.2000   15.3200   16.3760 O.3   175  SER175     -0.2179
     43  N        -18.3730   13.2200   15.5840 N.am  176  ALA176     -0.1977
     44  CA       -16.9750   13.3080   16.0270 C.3   176  ALA176      0.1597
     45  C        -16.7660   14.4250   17.0610 C.2   176  ALA176      0.2287
     46  O        -15.8910   14.2980   17.9250 O.2   176  ALA176     -0.2864
     47  CB       -16.0610   13.5250   14.8280 C.3   176  ALA176      0.0319
     48  N        -19.3090   15.4970   19.1410 N.3   178  PHE178     -0.1227
     49  CA       -19.9900   15.0000   20.3230 C.3   178  PHE178      0.1736
     50  C        -19.1080   14.0080   21.0660 C.2   178  PHE178      0.2595
     51  O        -19.1160   14.0140   22.2920 O.2   178  PHE178     -0.2718
     52  CB       -21.3650   14.4100   19.9890 C.3   178  PHE178      0.0547
     53  CG       -22.2200   14.1880   21.2140 C.ar  178  PHE178     -0.0202
     54  CD1      -22.7820   15.2630   21.8950 C.ar  178  PHE178     -0.0042
     55  CD2      -22.4440   12.9080   21.7020 C.ar  178  PHE178     -0.0042
     56  CE1      -23.5480   15.0570   23.0510 C.ar  178  PHE178     -0.0003
     57  CE2      -23.2220   12.7030   22.8500 C.ar  178  PHE178     -0.0003
     58  CZ       -23.7640   13.7770   23.5170 C.ar  178  PHE178     -0.0000
     59  N        -18.2940   13.2190   20.3390 N.am  179  ASN179     -0.1974
     60  CA       -17.3520   12.2830   20.9500 C.3   179  ASN179      0.1688
     61  C        -16.1890   13.0140   21.6350 C.2   179  ASN179      0.2292
     62  O        -15.6930   12.5230   22.6450 O.2   179  ASN179     -0.2864
     63  CB       -16.8350   11.2570   19.9440 C.3   179  ASN179      0.1181
     64  CG       -16.0840   10.1020   20.5780 C.2   179  ASN179      0.2629
     65  OD1      -16.5420    9.4590   21.5400 O.2   179  ASN179     -0.2716
     66  ND2      -14.9010    9.8170   20.0520 N.am  179  ASN179     -0.0877
     67  N        -17.6860   14.1570   25.2650 N.3   182  ILE182     -0.1245
     68  CA       -17.7350   13.0610   26.2560 C.3   182  ILE182      0.1561
     69  C        -16.3460   12.5780   26.6840 C.2   182  ILE182      0.2260
     70  O        -16.1370   12.3430   27.8800 O.2   182  ILE182     -0.2867
     71  CB       -18.6260   11.8480   25.8550 C.3   182  ILE182      0.0252
     72  CG1      -19.8560   12.2430   25.0410 C.3   182  ILE182      0.0019
     73  CG2      -19.0270   11.0140   27.0800 C.3   182  ILE182      0.0019
     74  CD1      -20.0660   11.3080   23.8970 C.3   182  ILE182      0.0001
     75  N        -21.4180    9.1240   32.3160 N.3   307  ALA307     -0.1245
     76  CA       -21.3860    9.5300   30.9050 C.3   307  ALA307      0.1562
     77  C        -20.2580    8.8530   30.1180 C.2   307  ALA307      0.2260
     78  O        -20.4950    8.3760   29.0190 O.2   307  ALA307     -0.2867
     79  CB       -21.2790   11.0470   30.7930 C.3   307  ALA307      0.0290
     80  N        -20.5980    4.9100   29.5740 N.3   310  THR310     -0.1203
     81  CA       -21.6750    4.7140   28.5950 C.3   310  THR310      0.1994
     82  C        -21.1200    4.6050   27.1610 C.2   310  THR310      0.2618
     83  O        -21.6160    3.7780   26.3960 O.2   310  THR310     -0.2717
     84  CB       -22.7460    5.8120   28.7800 C.3   310  THR310      0.1784
     85  OG1      -23.3300    5.6790   30.0740 O.3   310  THR310     -0.2211
     86  CG2      -23.8450    5.7490   27.7710 C.3   310  THR310      0.0376
     87  N        -20.0770    5.3990   26.8090 N.am  311  THR311     -0.1952
     88  CA       -19.4590    5.3660   25.4720 C.3   311  THR311      0.1897
     89  C        -18.7040    4.0490   25.2300 C.2   311  THR311      0.2313
     90  O        -18.6080    3.6040   24.0810 O.2   311  THR311     -0.2863
     91  CB       -18.6030    6.6230   25.1600 C.3   311  THR311      0.1794
     92  OG1      -17.6220    6.8550   26.1660 O.3   311  THR311     -0.2208
     93  CG2      -19.4370    7.8610   25.0030 C.3   311  THR311      0.0378
     94  N        -21.4450    1.4720   24.2160 N.3   314  LEU314     -0.1245
     95  CA       -21.8910    1.6620   22.8350 C.3   314  LEU314      0.1561
     96  C        -20.9110    1.0710   21.8380 C.2   314  LEU314      0.2260
     97  O        -21.3460    0.4370   20.8730 O.2   314  LEU314     -0.2867
     98  CB       -22.1130    3.1430   22.5260 C.3   314  LEU314      0.0270
     99  CG       -23.4390    3.7290   22.9840 C.3   314  LEU314      0.0019
    100  CD1      -23.2280    5.0410   23.7000 C.3   314  LEU314      0.0001
    101  CD2      -24.3770    3.9260   21.8160 C.3   314  LEU314      0.0001
@<TRIPOS>BOND
     1    35    36    1
     2    35    34    1
     3    31    30    2
     4    33    34    1
     5    33    32    1
     6    28    29    1
     7    30    29    1
     8    30    37   am
     9    47    44    1
    10    29    32    1
    11    43    44    1
    12    43    39   am
    13    38    37    1
    14    38    41    1
    15    38    39    1
    16    44    45    1
    17    41    42    1
    18    39    40    2
    19    45    46    2
    20     8     6    1
    21     6     7    1
    22     6     5    1
    23     5     2    1
    24    23    22    2
    25    48    49    1
    26     2     1    1
    27     2     3    1
    28    22    21    1
    29    63    64    1
    30    63    60    1
    31    52    49    1
    32    52    53    1
    33    66    64   am
    34    49    50    1
    35    59    60    1
    36    59    50   am
    37     3     4    2
    38    64    65    2
    39    97    96    2
    40    60    61    1
    41    21    20    1
    42    21    24    1
    43    50    51    2
    44    53    55   ar
    45    53    54   ar
    46    61    62    2
    47    55    57   ar
    48   101    99    1
    49    96    95    1
    50    24    25    1
    51    54    56   ar
    52    98    95    1
    53    98    99    1
    54    27    25    1
    55    95    94    1
    56    57    58   ar
    57    99   100    1
    58    56    58   ar
    59    25    26    1
    60    74    72    1
    61    90    89    2
    62    12    11    2
    63    93    91    1
    64    72    71    1
    65    91    88    1
    66    91    92    1
    67    89    88    1
    68    67    68    1
    69    88    87    1
    70    11    10    1
    71    71    68    1
    72    71    73    1
    73    68    69    1
    74    83    82    2
    75    69    70    2
    76    87    82   am
    77    10     9    1
    78    10    13    1
    79    18    19   ar
    80    18    16   ar
    81    19    17   ar
    82    82    81    1
    83    16    14   ar
    84    17    15   ar
    85    14    15   ar
    86    14    13    1
    87    86    84    1
    88    81    84    1
    89    81    80    1
    90    84    85    1
    91    78    77    2
    92    77    76    1
    93    79    76    1
    94    76    75    1
