@<TRIPOS>MOLECULE
tmp/5or2A00.pdb
 191 182 0 0 0
SMALL
GASTEIGER

@<TRIPOS>ATOM
      1  N         10.2710   17.6240   35.7620 N.3    59  LYS59      -0.1245
      2  CA         9.0490   17.8470   34.9880 C.3    59  LYS59       0.1561
      3  C          9.2740   17.4880   33.5180 C.2    59  LYS59       0.2260
      4  O          9.9210   18.2330   32.7780 O.2    59  LYS59      -0.2867
      5  CB         8.5700   19.2970   35.1290 C.3    59  LYS59       0.0271
      6  CG         8.0880   19.6730   36.5260 C.3    59  LYS59       0.0035
      7  CD         7.7060   21.1470   36.6020 C.3    59  LYS59       0.0206
      8  CE         7.0790   21.4940   37.9400 C.3    59  LYS59       0.1093
      9  NZ         6.6160   22.9080   37.9780 N.3    59  LYS59      -0.1314
     10  N          7.1470   17.3070   31.0400 N.3    61  PHE61      -0.1227
     11  CA         6.3420   18.0390   30.0620 C.3    61  PHE61       0.1736
     12  C          7.0780   19.2560   29.5130 C.2    61  PHE61       0.2595
     13  O          6.7630   19.7360   28.4270 O.2    61  PHE61      -0.2718
     14  CB         4.9840   18.4470   30.6430 C.3    61  PHE61       0.0547
     15  CG         4.0180   17.3020   30.8020 C.ar   61  PHE61      -0.0202
     16  CD1        3.6200   16.5450   29.7010 C.ar   61  PHE61      -0.0042
     17  CD2        3.4930   16.9890   32.0530 C.ar   61  PHE61      -0.0042
     18  CE1        2.7240   15.4910   29.8440 C.ar   61  PHE61      -0.0003
     19  CE2        2.5960   15.9380   32.2060 C.ar   61  PHE61      -0.0003
     20  CZ         2.2100   15.1870   31.0980 C.ar   61  PHE61      -0.0000
     21  N          8.0640   19.7430   30.2610 N.am   62  ILE62      -0.1980
     22  CA         8.8220   20.9260   29.8650 C.3    62  ILE62       0.1595
     23  C          9.9470   20.5710   28.8920 C.2    62  ILE62       0.2287
     24  O         10.8480   19.7970   29.2250 O.2    62  ILE62      -0.2864
     25  CB         9.3800   21.6830   31.0990 C.3    62  ILE62       0.0276
     26  CG1        8.2310   22.1220   32.0150 C.3    62  ILE62       0.0022
     27  CG2       10.2280   22.8850   30.6650 C.3    62  ILE62       0.0022
     28  CD1        8.6670   22.6290   33.3740 C.3    62  ILE62       0.0001
     29  N          8.6080   29.0750   29.9040 N.3    79  VAL79      -0.1245
     30  CA         8.5390   27.6270   29.7330 C.3    79  VAL79       0.1561
     31  C          7.9210   27.2490   28.3900 C.2    79  VAL79       0.2260
     32  O          6.8450   27.7320   28.0380 O.2    79  VAL79      -0.2867
     33  CB         7.7480   26.9660   30.8960 C.3    79  VAL79       0.0252
     34  CG1        7.3880   25.5130   30.5750 C.3    79  VAL79       0.0019
     35  CG2        8.5430   27.0490   32.1960 C.3    79  VAL79       0.0019
     36  N          6.6770   23.8340   26.3960 N.3    81  VAL81      -0.1245
     37  CA         6.3300   22.4330   26.6420 C.3    81  VAL81       0.1561
     38  C          6.5010   21.5290   25.4170 C.2    81  VAL81       0.2260
     39  O          6.5490   22.0020   24.2790 O.2    81  VAL81      -0.2867
     40  CB         4.8920   22.2770   27.2080 C.3    81  VAL81       0.0252
     41  CG1        4.8180   22.8040   28.6310 C.3    81  VAL81       0.0019
     42  CG2        3.8690   22.9670   26.3140 C.3    81  VAL81       0.0019
     43  N          0.3510   18.5110   23.7200 N.3    85  LEU85      -0.1231
     44  CA        -0.3480   19.0280   24.8940 C.3    85  LEU85       0.1678
     45  C         -1.2950   20.1680   24.5140 C.2    85  LEU85       0.2434
     46  O         -1.0890   20.8250   23.4890 O.2    85  LEU85      -0.2733
     47  CB         0.6570   19.5180   25.9410 C.3    85  LEU85       0.0284
     48  CG         1.4620   18.4820   26.7280 C.3    85  LEU85       0.0019
     49  CD1        2.6830   19.1420   27.3460 C.3    85  LEU85       0.0001
     50  CD2        0.6100   17.8190   27.7980 C.3    85  LEU85       0.0001
     51  N         -2.3360   20.4090   25.3400 N.am   86  PRO86      -0.2718
     52  CA        -3.2420   21.5350   25.1020 C.3    86  PRO86       0.1535
     53  C         -2.5990   22.8630   25.5060 C.2    86  PRO86       0.2598
     54  O         -3.2540   23.7110   26.1250 O.2    86  PRO86      -0.2715
     55  CB        -4.4320   21.2150   26.0080 C.3    86  PRO86       0.0310
     56  CG        -3.8410   20.4420   27.1310 C.3    86  PRO86       0.0237
     57  CD        -2.7520   19.6130   26.5110 C.3    86  PRO86       0.0939
     58  N         -1.3240   23.0230   25.1470 N.am   87  ALA87      -0.1978
     59  CA        -0.5200   24.1830   25.5230 C.3    87  ALA87       0.1597
     60  C          0.7610   24.2670   24.7010 C.2    87  ALA87       0.2287
     61  O          1.2450   23.2590   24.1820 O.2    87  ALA87      -0.2864
     62  CB        -0.1770   24.1310   27.0000 C.3    87  ALA87       0.0319
     63  N          3.2000   27.3400   25.6040 N.3    89  THR89      -0.1203
     64  CA         4.1050   28.0850   26.4790 C.3    89  THR89       0.1994
     65  C          3.4960   28.3490   27.8510 C.2    89  THR89       0.2618
     66  O          2.2910   28.1840   28.0490 O.2    89  THR89      -0.2717
     67  CB         4.5320   29.4430   25.8580 C.3    89  THR89       0.1784
     68  OG1        3.3670   30.1950   25.5000 O.3    89  THR89      -0.2211
     69  CG2        5.4100   29.2420   24.6300 C.3    89  THR89       0.0376
     70  N          4.3440   28.7600   28.7920 N.am   90  SER90      -0.1951
     71  CA         3.9090   29.1560   30.1280 C.3    90  SER90       0.1924
     72  C          4.8660   30.1780   30.7440 C.2    90  SER90       0.2314
     73  O          6.0910   30.0130   30.6940 O.2    90  SER90      -0.2863
     74  CB         3.7830   27.9310   31.0400 C.3    90  SER90       0.2116
     75  OG         3.3730   28.3060   32.3420 O.3    90  SER90      -0.2180
     76  N          5.7790   31.8330   34.3400 N.3    92  GLU92      -0.1245
     77  CA         5.6050   31.4560   35.7390 C.3    92  GLU92       0.1567
     78  C          6.4740   32.2940   36.6650 C.2    92  GLU92       0.2260
     79  O          7.6680   32.4660   36.4200 O.2    92  GLU92      -0.2867
     80  CB         5.9020   29.9650   35.9210 C.3    92  GLU92       0.0388
     81  CG         4.8820   29.0500   35.2470 C.3    92  GLU92       0.1160
     82  CD         5.4030   27.6480   34.9840 C.2    92  GLU92       0.3649
     83  OE1        6.4170   27.2490   35.5940 O.co2  92  GLU92      -0.2457
     84  OE2        4.7850   26.9390   34.1620 O.co2  92  GLU92      -0.2457
     85  N          4.9420   28.7500   42.9790 N.3   106  PHE106     -0.1241
     86  CA         4.8770   29.6540   41.8330 C.3   106  PHE106      0.1605
     87  C          3.4430   29.9890   41.4070 C.2   106  PHE106      0.2264
     88  O          2.4870   29.3260   41.8220 O.2   106  PHE106     -0.2867
     89  CB         5.7160   29.1300   40.6530 C.3   106  PHE106      0.0534
     90  CG         5.1550   27.9020   39.9880 C.ar  106  PHE106     -0.0203
     91  CD1        4.3650   28.0140   38.8480 C.ar  106  PHE106     -0.0042
     92  CD2        5.4370   26.6320   40.4830 C.ar  106  PHE106     -0.0042
     93  CE1        3.8470   26.8830   38.2200 C.ar  106  PHE106     -0.0003
     94  CE2        4.9230   25.4950   39.8630 C.ar  106  PHE106     -0.0003
     95  CZ         4.1270   25.6220   38.7270 C.ar  106  PHE106     -0.0000
     96  N          1.2920   30.7660   37.7690 N.3   108  ILE108     -0.1245
     97  CA         1.2570   30.8660   36.3150 C.3   108  ILE108      0.1561
     98  C          0.5550   32.1710   35.9440 C.2   108  ILE108      0.2260
     99  O         -0.6340   32.3500   36.2190 O.2   108  ILE108     -0.2867
    100  CB         0.5610   29.6620   35.6460 C.3   108  ILE108      0.0252
    101  CG1        1.2350   28.3480   36.0580 C.3   108  ILE108      0.0019
    102  CG2        0.5940   29.8240   34.1350 C.3   108  ILE108      0.0019
    103  CD1        0.5670   27.0900   35.5060 C.3   108  ILE108      0.0001
    104  N         -2.0210   28.6230   27.0080 N.3   113  HIS113     -0.1226
    105  CA        -2.6650   27.4850   27.6730 C.3   113  HIS113      0.1752
    106  C         -4.0240   27.9020   28.2350 C.2   113  HIS113      0.2596
    107  O         -4.3780   29.0820   28.1920 O.2   113  HIS113     -0.2718
    108  CB        -1.7780   26.9300   28.7910 C.3   113  HIS113      0.0759
    109  CG        -1.3700   27.9530   29.8010 C.ar  113  HIS113      0.0818
    110  ND1       -2.1150   28.2230   30.9280 N.ar  113  HIS113     -0.2268
    111  CD2       -0.2970   28.7770   29.8520 C.ar  113  HIS113      0.1154
    112  CE1       -1.5170   29.1670   31.6310 C.ar  113  HIS113      0.1986
    113  NE2       -0.4120   29.5220   31.0000 N.ar  113  HIS113     -0.2212
    114  N         -4.7710   26.9370   28.7710 N.am  114  ARG114     -0.1966
    115  CA        -6.1500   27.1740   29.2120 C.3   114  ARG114      0.1729
    116  C         -6.3060   27.4460   30.7140 C.2   114  ARG114      0.2616
    117  O         -7.4290   27.5280   31.2180 O.2   114  ARG114     -0.2715
    118  CB        -7.0580   26.0100   28.7880 C.3   114  ARG114      0.0348
    119  CG        -7.2080   25.8550   27.2810 C.3   114  ARG114      0.0492
    120  CD        -8.2780   24.8370   26.9090 C.3   114  ARG114      0.2205
    121  NE        -9.6320   25.3660   27.0720 N.pl3 114  ARG114     -0.0865
    122  CZ       -10.4850   24.9890   28.0210 C.cat 114  ARG114      0.5346
    123  NH1      -10.1450   24.0640   28.9100 N.pl3 114  ARG114      0.1354
    124  NH2      -11.6900   25.5350   28.0790 N.pl3 114  ARG114      0.1354
    125  N         -5.1900   27.6030   31.4220 N.am  115  LEU115     -0.1977
    126  CA        -5.2310   27.7940   32.8740 C.3   115  LEU115      0.1596
    127  C         -5.1010   29.2570   33.2930 C.2   115  LEU115      0.2287
    128  O         -4.1760   29.9520   32.8750 O.2   115  LEU115     -0.2864
    129  CB        -4.1680   26.9360   33.5720 C.3   115  LEU115      0.0297
    130  CG        -4.2600   25.4090   33.4400 C.3   115  LEU115      0.0022
    131  CD1       -2.9610   24.7570   33.8860 C.3   115  LEU115      0.0001
    132  CD2       -5.4420   24.8360   34.2160 C.3   115  LEU115      0.0001
    133  N         -3.6560   30.1070   38.2520 N.3   118  TYR118     -0.1241
    134  CA        -3.0400   28.9290   38.8570 C.3   118  TYR118      0.1605
    135  C         -1.9240   29.3370   39.8130 C.2   118  TYR118      0.2264
    136  O         -1.0240   30.1000   39.4480 O.2   118  TYR118     -0.2867
    137  CB        -2.5070   27.9620   37.7930 C.3   118  TYR118      0.0534
    138  CG        -1.9440   26.6720   38.3600 C.ar  118  TYR118     -0.0201
    139  CD1       -2.7370   25.5310   38.4730 C.ar  118  TYR118     -0.0009
    140  CD2       -0.6170   26.5940   38.7890 C.ar  118  TYR118     -0.0009
    141  CE1       -2.2240   24.3480   38.9950 C.ar  118  TYR118      0.0417
    142  CE2       -0.0960   25.4170   39.3120 C.ar  118  TYR118      0.0417
    143  CZ        -0.9050   24.2990   39.4110 C.ar  118  TYR118      0.1957
    144  OH        -0.3900   23.1360   39.9300 O.3   118  TYR118     -0.2866
    145  N          2.3720   19.0620   47.8270 N.3   139  GLU139     -0.1245
    146  CA         2.1070   20.0590   46.7960 C.3   139  GLU139      0.1567
    147  C          0.6100   20.2680   46.5940 C.2   139  GLU139      0.2260
    148  O         -0.1230   19.3420   46.2310 O.2   139  GLU139     -0.2867
    149  CB         2.7970   19.7060   45.4710 C.3   139  GLU139      0.0388
    150  CG         2.6470   20.7890   44.3980 C.3   139  GLU139      0.1160
    151  CD         3.5290   20.5640   43.1820 C.2   139  GLU139      0.3649
    152  OE1        4.7490   20.3560   43.3510 O.co2 139  GLU139     -0.2457
    153  OE2        3.0030   20.6130   42.0520 O.co2 139  GLU139     -0.2457
    154  N         -7.2090   17.0700   35.2580 N.3   157  PHE157     -0.1227
    155  CA        -6.1520   17.5740   34.3860 C.3   157  PHE157      0.1736
    156  C         -4.9260   18.0080   35.1890 C.2   157  PHE157      0.2595
    157  O         -3.7940   17.6710   34.8360 O.2   157  PHE157     -0.2718
    158  CB        -6.6820   18.7350   33.5370 C.3   157  PHE157      0.0547
    159  CG        -5.6350   19.4020   32.6930 C.ar  157  PHE157     -0.0202
    160  CD1       -5.2810   18.8760   31.4550 C.ar  157  PHE157     -0.0042
    161  CD2       -5.0070   20.5650   33.1320 C.ar  157  PHE157     -0.0042
    162  CE1       -4.3130   19.4910   30.6700 C.ar  157  PHE157     -0.0003
    163  CE2       -4.0380   21.1880   32.3530 C.ar  157  PHE157     -0.0003
    164  CZ        -3.6920   20.6490   31.1180 C.ar  157  PHE157     -0.0000
    165  N         -5.1640   18.7480   36.2690 N.am  158  ALA158     -0.1980
    166  CA        -4.0930   19.2350   37.1320 C.3   158  ALA158      0.1597
    167  C         -3.4640   18.1210   37.9730 C.2   158  ALA158      0.2287
    168  O         -2.2380   18.0560   38.1010 O.2   158  ALA158     -0.2864
    169  CB        -4.6000   20.3600   38.0170 C.3   158  ALA158      0.0319
    170  N         -1.0560   15.9070   35.9750 N.3   161  VAL161     -0.1231
    171  CA         0.2450   16.5630   35.8420 C.3   161  VAL161      0.1692
    172  C          1.0190   16.5530   37.1640 C.2   161  VAL161      0.2591
    173  O          2.1860   16.1530   37.1960 O.2   161  VAL161     -0.2718
    174  CB         0.1020   18.0140   35.3140 C.3   161  VAL161      0.0266
    175  CG1        1.4560   18.7120   35.2530 C.3   161  VAL161      0.0020
    176  CG2       -0.5570   18.0230   33.9400 C.3   161  VAL161      0.0020
    177  N          0.3630   16.9810   38.2430 N.am  162  VAL162     -0.1980
    178  CA         1.0060   17.0760   39.5570 C.3   162  VAL162      0.1595
    179  C          1.4630   15.7120   40.0820 C.2   162  VAL162      0.2287
    180  O          2.5690   15.5920   40.6130 O.2   162  VAL162     -0.2864
    181  CB         0.1150   17.8150   40.5990 C.3   162  VAL162      0.0276
    182  CG1        0.7460   17.7770   41.9870 C.3   162  VAL162      0.0022
    183  CG2       -0.1050   19.2630   40.1780 C.3   162  VAL162      0.0022
    184  N          4.6270   14.6250   37.9920 N.3   165  ASN165     -0.1240
    185  CA         5.8120   15.3930   38.3570 C.3   165  ASN165      0.1653
    186  C          6.4330   14.9170   39.6680 C.2   165  ASN165      0.2266
    187  O          7.6520   14.7800   39.7660 O.2   165  ASN165     -0.2867
    188  CB         5.4860   16.8890   38.4320 C.3   165  ASN165      0.1155
    189  CG         5.2040   17.5000   37.0680 C.2   165  ASN165      0.2627
    190  OD1        5.6920   17.0240   36.0430 O.2   165  ASN165     -0.2716
    191  ND2        4.4210   18.5700   37.0540 N.am  165  ASN165     -0.0877
@<TRIPOS>BOND
     1    46    45    2
     2    43    44    1
     3    61    60    2
     4    39    38    2
     5    45    44    1
     6    45    51   am
     7    69    67    1
     8    60    59    1
     9    44    47    1
    10    52    51    1
    11    52    53    1
    12    52    55    1
    13    58    53   am
    14    58    59    1
    15    51    57    1
    16    38    37    1
    17    68    67    1
    18    53    54    2
    19    59    62    1
    20    63    64    1
    21    67    64    1
    22    47    48    1
    23    55    56    1
    24    42    40    1
    25    36    37    1
    26    64    65    1
    27    57    56    1
    28    37    40    1
    29    48    49    1
    30    48    50    1
    31   120   121    1
    32   120   119    1
    33   104   105    1
    34   121   122    2
    35    40    41    1
    36   119   118    1
    37   105   106    1
    38   105   108    1
    39    65    66    2
    40    65    70   am
    41   122   124    1
    42   122   123    1
    43    32    31    2
    44   107   106    2
    45   106   114   am
    46    31    30    1
    47    13    12    2
    48   114   115    1
    49   118   115    1
    50   108   109    1
    51    70    71    1
    52    23    24    2
    53    23    22    1
    54   115   116    1
    55    12    11    1
    56    12    21   am
    57    16    18   ar
    58    16    15   ar
    59    30    29    1
    60    30    33    1
    61   109   111   ar
    62   109   110   ar
    63    18    20   ar
    64   111   113   ar
    65    22    21    1
    66    22    25    1
    67    11    14    1
    68    11    10    1
    69    71    72    1
    70    71    74    1
    71    34    33    1
    72    14    15    1
    73    27    25    1
    74   162   164   ar
    75   162   160   ar
    76    73    72    2
    77   116   117    2
    78   116   125   am
    79    15    17   ar
    80    33    35    1
    81   110   112   ar
    82   113   112   ar
    83    74    75    1
    84    20    19   ar
    85    25    26    1
    86   164   163   ar
    87   125   126    1
    88   160   159   ar
    89    26    28    1
    90    17    19   ar
    91   163   161   ar
    92   159   161   ar
    93   159   158    1
    94     4     3    2
    95   126   127    1
    96   126   129    1
    97   128   127    2
    98   130   129    1
    99   130   131    1
   100   130   132    1
   101     3     2    1
   102   158   155    1
   103   176   174    1
   104   102   100    1
   105    84    82   ar
   106    76    77    1
   107   155   156    1
   108   155   154    1
   109   157   156    2
   110    82    81    1
   111    82    83   ar
   112     2     5    1
   113     2     1    1
   114     5     6    1
   115   156   165   am
   116    81    80    1
   117   175   174    1
   118   174   171    1
   119   103   101    1
   120   100   101    1
   121   100    97    1
   122    77    80    1
   123    77    78    1
   124   171   170    1
   125   171   172    1
   126    98    99    2
   127    98    97    1
   128   190   189    2
   129   165   166    1
   130    97    96    1
   131    79    78    2
   132     6     7    1
   133     7     8    1
   134   191   189   am
   135   189   188    1
   136   166   167    1
   137   166   169    1
   138   172   173    2
   139   172   177   am
   140   137   138    1
   141   137   134    1
   142     8     9    1
   143   167   168    2
   144   184   185    1
   145    93    95   ar
   146    93    91   ar
   147   177   178    1
   148   133   134    1
   149   185   188    1
   150   185   186    1
   151   138   139   ar
   152   138   140   ar
   153   139   141   ar
   154    95    94   ar
   155   140   142   ar
   156    91    90   ar
   157   134   135    1
   158   141   143   ar
   159   142   143   ar
   160   143   144    1
   161   136   135    2
   162   178   179    1
   163   178   181    1
   164   186   187    2
   165    94    92   ar
   166    90    92   ar
   167    90    89    1
   168   179   180    2
   169   183   181    1
   170   181   182    1
   171    89    86    1
   172    87    88    2
   173    87    86    1
   174    86    85    1
   175   153   151   ar
   176   151   152   ar
   177   151   150    1
   178   150   149    1
   179   149   146    1
   180   148   147    2
   181   147   146    1
   182   146   145    1
