@<TRIPOS>MOLECULE
tmp/5or3A02.pdb
 73 68 0 0 0
SMALL
GASTEIGER

@<TRIPOS>ATOM
      1  N         38.5340   35.6850   44.0820 N.3    71  THR71      -0.1218
      2  CA        38.5240   34.2300   44.2310 C.3    71  THR71       0.1862
      3  C         39.8170   33.7480   44.8840 C.2    71  THR71       0.2287
      4  O         40.9050   34.1530   44.4640 O.2    71  THR71      -0.2866
      5  CB        38.3540   33.5380   42.8760 C.3    71  THR71       0.1770
      6  OG1       37.1500   33.9800   42.2380 O.3    71  THR71      -0.2211
      7  CG2       38.2900   32.0350   43.0650 C.3    71  THR71       0.0375
      8  N         41.5250   27.9410   44.2480 N.3    75  LEU75      -0.1231
      9  CA        40.3270   27.4900   43.5500 C.3    75  LEU75       0.1693
     10  C         40.3130   27.9020   42.0820 C.2    75  LEU75       0.2591
     11  O         39.7260   27.1950   41.2560 O.2    75  LEU75      -0.2718
     12  CB        39.0750   28.0420   44.2360 C.3    75  LEU75       0.0284
     13  CG        38.9090   27.7010   45.7150 C.3    75  LEU75       0.0019
     14  CD1       37.6490   28.3520   46.2650 C.3    75  LEU75       0.0001
     15  CD2       38.8680   26.1970   45.9060 C.3    75  LEU75       0.0001
     16  N         40.9400   29.0280   41.7460 N.am   76  ALA76      -0.1980
     17  CA        41.0220   29.5020   40.3620 C.3    76  ALA76       0.1597
     18  C         42.3600   30.2020   40.1740 C.2    76  ALA76       0.2287
     19  O         42.4480   31.4360   40.1850 O.2    76  ALA76      -0.2864
     20  CB        39.8640   30.4410   40.0210 C.3    76  ALA76       0.0319
     21  N         35.0860   32.6250   36.0550 N.3    88  ALA88      -0.1231
     22  CA        35.4880   31.4040   36.7530 C.3    88  ALA88       0.1694
     23  C         34.2830   30.6310   37.2790 C.2    88  ALA88       0.2592
     24  O         34.2130   29.4030   37.1400 O.2    88  ALA88      -0.2718
     25  CB        36.4420   31.7410   37.8950 C.3    88  ALA88       0.0304
     26  N         33.3360   31.3190   37.9260 N.am   89  THR89      -0.1953
     27  CA        32.2040   30.5940   38.4970 C.3    89  THR89       0.1897
     28  C         31.3370   29.9900   37.3980 C.2    89  THR89       0.2313
     29  O         30.8210   28.8750   37.5520 O.2    89  THR89      -0.2863
     30  CB        31.3870   31.5020   39.4360 C.3    89  THR89       0.1794
     31  OG1       30.5660   30.6930   40.2980 O.3    89  THR89      -0.2208
     32  CG2       30.4840   32.4540   38.6820 C.3    89  THR89       0.0378
     33  N         33.0100   26.8760   36.2710 N.3    92  ASN92      -0.1225
     34  CA        32.9450   25.8650   37.3140 C.3    92  ASN92       0.1785
     35  C         31.5760   25.2020   37.3950 C.2    92  ASN92       0.2597
     36  O         31.4820   24.0380   37.7950 O.2    92  ASN92      -0.2718
     37  CB        33.2900   26.5200   38.6470 C.3    92  ASN92       0.1169
     38  CG        33.6080   25.5200   39.7200 C.2    92  ASN92       0.2627
     39  OD1       34.3080   24.5370   39.4820 O.2    92  ASN92      -0.2716
     40  ND2       33.0960   25.7640   40.9160 N.am   92  ASN92      -0.0877
     41  N         30.5100   25.9160   37.0350 N.am   93  GLN93      -0.1979
     42  CA        29.1520   25.4170   37.2090 C.3    93  GLN93       0.1601
     43  C         28.4420   25.1290   35.8910 C.2    93  GLN93       0.2287
     44  O         27.2440   24.8300   35.9030 O.2    93  GLN93      -0.2864
     45  CB        28.3320   26.4200   38.0200 C.3    93  GLN93       0.0394
     46  CG        28.9050   26.7480   39.3780 C.3    93  GLN93       0.0908
     47  CD        27.9390   27.5710   40.2080 C.2    93  GLN93       0.2608
     48  OE1       26.9020   27.0760   40.6430 O.2    93  GLN93      -0.2717
     49  NE2       28.2690   28.8310   40.4200 N.am   93  GLN93      -0.0878
     50  N         40.7660   26.5160   34.6790 N.3   218  LEU218     -0.1245
     51  CA        40.8130   27.5790   35.6760 C.3   218  LEU218      0.1561
     52  C         42.2330   28.0580   35.9610 C.2   218  LEU218      0.2260
     53  O         42.4230   28.8890   36.8550 O.2   218  LEU218     -0.2867
     54  CB        40.1390   27.1240   36.9720 C.3   218  LEU218      0.0270
     55  CG        38.6270   26.8990   36.8860 C.3   218  LEU218      0.0019
     56  CD1       38.0870   26.3980   38.2270 C.3   218  LEU218      0.0001
     57  CD2       37.8910   28.1750   36.4510 C.3   218  LEU218      0.0001
     58  N         29.5890   31.3860   43.6290 N.3   346  GLY346     -0.1210
     59  CA        30.9360   31.2240   44.1350 C.3   346  GLY346      0.1956
     60  C         31.4080   32.5080   44.7810 C.2   346  GLY346      0.2611
     61  O         30.7590   33.0580   45.6770 O.2   346  GLY346     -0.2717
     62  N         32.5580   32.9970   44.3270 N.am  347  TYR347     -0.1976
     63  CA        33.1460   34.2260   44.8370 C.3   347  TYR347      0.1639
     64  C         32.9070   35.4170   43.9260 C.2   347  TYR347      0.2290
     65  O         33.4410   36.5020   44.1860 O.2   347  TYR347     -0.2864
     66  CB        34.6450   34.0250   45.0520 C.3   347  TYR347      0.0560
     67  CG        34.9270   33.1570   46.2500 C.ar  347  TYR347     -0.0198
     68  CD1       34.9650   31.7740   46.1370 C.ar  347  TYR347     -0.0009
     69  CD2       35.1230   33.7230   47.5010 C.ar  347  TYR347     -0.0009
     70  CE1       35.2100   30.9760   47.2440 C.ar  347  TYR347      0.0417
     71  CE2       35.3670   32.9440   48.6040 C.ar  347  TYR347      0.0417
     72  CZ        35.4070   31.5720   48.4750 C.ar  347  TYR347      0.1957
     73  OH        35.6450   30.8010   49.5810 O.3   347  TYR347     -0.2866
@<TRIPOS>BOND
     1    50    51    1
     2    51    52    1
     3    51    54    1
     4    43    44    2
     5    43    42    1
     6    52    53    2
     7    21    22    1
     8    33    34    1
     9    57    55    1
    10    22    23    1
    11    22    25    1
    12    55    54    1
    13    55    56    1
    14    41    42    1
    15    41    35   am
    16    24    23    2
    17    42    45    1
    18    23    26   am
    19    34    35    1
    20    34    37    1
    21    35    36    2
    22    28    29    2
    23    28    27    1
    24    26    27    1
    25    45    46    1
    26    27    30    1
    27    37    38    1
    28    32    30    1
    29    46    47    1
    30    30    31    1
    31    39    38    2
    32    38    40   am
    33    20    17    1
    34    18    19    2
    35    18    17    1
    36    47    49   am
    37    47    48    2
    38    17    16    1
    39    11    10    2
    40    16    10   am
    41    10     9    1
    42     6     5    1
    43     5     7    1
    44     5     2    1
    45     9    12    1
    46     9     8    1
    47    58    59    1
    48    64    65    2
    49    64    63    1
    50     1     2    1
    51    59    60    1
    52     2     3    1
    53    12    13    1
    54    62    60   am
    55    62    63    1
    56     4     3    2
    57    60    61    2
    58    63    66    1
    59    66    67    1
    60    13    15    1
    61    13    14    1
    62    68    67   ar
    63    68    70   ar
    64    67    69   ar
    65    70    72   ar
    66    69    71   ar
    67    72    71   ar
    68    72    73    1
