@<TRIPOS>MOLECULE
tmp/5or6A00.pdb
 191 182 0 0 0
SMALL
GASTEIGER

@<TRIPOS>ATOM
      1  N         10.1870   17.7450   35.5780 N.3    59  LYS59      -0.1245
      2  CA         8.9550   17.9460   34.8060 C.3    59  LYS59       0.1561
      3  C          9.1650   17.5450   33.3420 C.2    59  LYS59       0.2260
      4  O          9.8170   18.2630   32.5750 O.2    59  LYS59      -0.2867
      5  CB         8.4750   19.4000   34.9100 C.3    59  LYS59       0.0271
      6  CG         8.0940   19.8430   36.3190 C.3    59  LYS59       0.0035
      7  CD         7.4920   21.2390   36.3180 C.3    59  LYS59       0.0206
      8  CE         7.1520   21.6880   37.7260 C.3    59  LYS59       0.1093
      9  NZ         6.2890   22.8980   37.7380 N.3    59  LYS59      -0.1314
     10  N          7.0630   17.3260   30.8610 N.3    61  PHE61      -0.1227
     11  CA         6.2560   17.9870   29.8440 C.3    61  PHE61       0.1736
     12  C          6.9600   19.2230   29.3030 C.2    61  PHE61       0.2595
     13  O          6.4960   19.8350   28.3470 O.2    61  PHE61      -0.2718
     14  CB         4.8660   18.3450   30.3720 C.3    61  PHE61       0.0547
     15  CG         3.9420   17.1670   30.5040 C.ar   61  PHE61      -0.0202
     16  CD1        3.6330   16.3740   29.3980 C.ar   61  PHE61      -0.0042
     17  CD2        3.3660   16.8580   31.7320 C.ar   61  PHE61      -0.0042
     18  CE1        2.7730   15.2840   29.5150 C.ar   61  PHE61      -0.0003
     19  CE2        2.5030   15.7730   31.8610 C.ar   61  PHE61      -0.0003
     20  CZ         2.2070   14.9820   30.7490 C.ar   61  PHE61      -0.0000
     21  N          8.0880   19.5740   29.9080 N.am   62  ILE62      -0.1980
     22  CA         8.8360   20.7610   29.5130 C.3    62  ILE62       0.1595
     23  C          9.9640   20.4160   28.5400 C.2    62  ILE62       0.2287
     24  O         10.8670   19.6450   28.8640 O.2    62  ILE62      -0.2864
     25  CB         9.3790   21.5230   30.7510 C.3    62  ILE62       0.0276
     26  CG1        8.2080   21.9750   31.6370 C.3    62  ILE62       0.0022
     27  CG2       10.2540   22.7080   30.3220 C.3    62  ILE62       0.0022
     28  CD1        8.6030   22.6650   32.9270 C.3    62  ILE62       0.0001
     29  N          8.5610   28.8540   29.7730 N.3    79  VAL79      -0.1245
     30  CA         8.5340   27.4170   29.5560 C.3    79  VAL79       0.1561
     31  C          7.9520   27.1190   28.1820 C.2    79  VAL79       0.2260
     32  O          6.9150   27.6720   27.8040 O.2    79  VAL79      -0.2867
     33  CB         7.7160   26.6990   30.6650 C.3    79  VAL79       0.0252
     34  CG1        7.4330   25.2530   30.2970 C.3    79  VAL79       0.0019
     35  CG2        8.4470   26.7720   32.0050 C.3    79  VAL79       0.0019
     36  N          6.6560   23.8030   26.2680 N.3    81  VAL81      -0.1245
     37  CA         6.2970   22.4080   26.4730 C.3    81  VAL81       0.1561
     38  C          6.5930   21.5390   25.2530 C.2    81  VAL81       0.2260
     39  O          6.7320   22.0410   24.1330 O.2    81  VAL81      -0.2867
     40  CB         4.8080   22.2450   26.8850 C.3    81  VAL81       0.0252
     41  CG1        4.5580   22.8940   28.2300 C.3    81  VAL81       0.0019
     42  CG2        3.8780   22.8130   25.8270 C.3    81  VAL81       0.0019
     43  N          0.4230   18.4430   23.5290 N.3    85  LEU85      -0.1231
     44  CA        -0.2800   18.9670   24.6880 C.3    85  LEU85       0.1678
     45  C         -1.2460   20.0730   24.2730 C.2    85  LEU85       0.2434
     46  O         -1.0690   20.6870   23.2170 O.2    85  LEU85      -0.2733
     47  CB         0.7210   19.5150   25.7100 C.3    85  LEU85       0.0284
     48  CG         1.4730   18.5160   26.5900 C.3    85  LEU85       0.0019
     49  CD1        2.7160   19.1640   27.1550 C.3    85  LEU85       0.0001
     50  CD2        0.5800   18.0180   27.7070 C.3    85  LEU85       0.0001
     51  N         -2.2720   20.3350   25.1050 N.am   86  PRO86      -0.2718
     52  CA        -3.1660   21.4620   24.8410 C.3    86  PRO86       0.1535
     53  C         -2.5140   22.7740   25.2790 C.2    86  PRO86       0.2598
     54  O         -3.1490   23.5990   25.9410 O.2    86  PRO86      -0.2715
     55  CB        -4.3900   21.1380   25.6980 C.3    86  PRO86       0.0310
     56  CG        -3.8560   20.3370   26.8290 C.3    86  PRO86       0.0237
     57  CD        -2.6710   19.5770   26.3070 C.3    86  PRO86       0.0939
     58  N         -1.2460   22.9390   24.9010 N.am   87  ALA87      -0.1978
     59  CA        -0.4090   24.0540   25.3270 C.3    87  ALA87       0.1597
     60  C          0.8220   24.1550   24.4370 C.2    87  ALA87       0.2287
     61  O          1.2800   23.1560   23.8700 O.2    87  ALA87      -0.2864
     62  CB         0.0210   23.8800   26.7910 C.3    87  ALA87       0.0319
     63  N          3.2650   27.1660   25.2900 N.3    89  THR89      -0.1203
     64  CA         4.1910   27.8870   26.1540 C.3    89  THR89       0.1994
     65  C          3.5860   28.1090   27.5380 C.2    89  THR89       0.2618
     66  O          2.4080   27.8100   27.7670 O.2    89  THR89      -0.2717
     67  CB         4.5840   29.2660   25.5580 C.3    89  THR89       0.1784
     68  OG1        3.4290   30.1110   25.4950 O.3    89  THR89      -0.2211
     69  CG2        5.1950   29.1190   24.1640 C.3    89  THR89       0.0376
     70  N          4.4090   28.6280   28.4520 N.am   90  SER90      -0.1951
     71  CA         3.9650   29.0440   29.7810 C.3    90  SER90       0.1924
     72  C          4.9340   30.0460   30.4000 C.2    90  SER90       0.2314
     73  O          6.1480   29.8290   30.4150 O.2    90  SER90      -0.2863
     74  CB         3.8160   27.8370   30.7070 C.3    90  SER90       0.2116
     75  OG         3.4540   28.2440   32.0130 O.3    90  SER90      -0.2180
     76  N          5.8620   31.6800   33.9560 N.3    92  GLU92      -0.1245
     77  CA         5.6700   31.3400   35.3580 C.3    92  GLU92       0.1567
     78  C          6.5260   32.2070   36.2690 C.2    92  GLU92       0.2260
     79  O          7.6730   32.5000   35.9560 O.2    92  GLU92      -0.2867
     80  CB         5.9520   29.8510   35.5760 C.3    92  GLU92       0.0388
     81  CG         4.9310   28.9530   34.8770 C.3    92  GLU92       0.1160
     82  CD         5.3620   27.5030   34.7470 C.2    92  GLU92       0.3649
     83  OE1        6.4650   27.1480   35.2190 O.co2  92  GLU92      -0.2457
     84  OE2        4.5810   26.7180   34.1650 O.co2  92  GLU92      -0.2457
     85  N          4.8480   28.7860   42.5900 N.3   106  PHE106     -0.1241
     86  CA         4.8320   29.6210   41.3970 C.3   106  PHE106      0.1605
     87  C          3.4190   29.8960   40.9080 C.2   106  PHE106      0.2264
     88  O          2.4750   29.1880   41.2720 O.2   106  PHE106     -0.2867
     89  CB         5.7030   29.0190   40.2760 C.3   106  PHE106      0.0534
     90  CG         5.0980   27.8170   39.5960 C.ar  106  PHE106     -0.0203
     91  CD1        4.2920   27.9670   38.4690 C.ar  106  PHE106     -0.0042
     92  CD2        5.3540   26.5340   40.0660 C.ar  106  PHE106     -0.0042
     93  CE1        3.7340   26.8600   37.8320 C.ar  106  PHE106     -0.0003
     94  CE2        4.8040   25.4180   39.4340 C.ar  106  PHE106     -0.0003
     95  CZ         3.9910   25.5830   38.3140 C.ar  106  PHE106     -0.0000
     96  N          1.3490   30.5910   37.1810 N.3   108  ILE108     -0.1245
     97  CA         1.3380   30.7140   35.7340 C.3   108  ILE108      0.1561
     98  C          0.6520   32.0370   35.4210 C.2   108  ILE108      0.2260
     99  O         -0.5330   32.2140   35.7150 O.2   108  ILE108     -0.2867
    100  CB         0.6060   29.5510   35.0350 C.3   108  ILE108      0.0252
    101  CG1        1.0790   28.1980   35.5780 C.3   108  ILE108      0.0019
    102  CG2        0.8250   29.6380   33.5300 C.3   108  ILE108      0.0019
    103  CD1        0.3150   27.0030   35.0360 C.3   108  ILE108      0.0001
    104  N         -1.9770   28.3820   26.6930 N.3   113  HIS113     -0.1226
    105  CA        -2.5540   27.2300   27.3960 C.3   113  HIS113      0.1752
    106  C         -3.9100   27.6460   27.9640 C.2   113  HIS113      0.2596
    107  O         -4.2380   28.8360   27.9900 O.2   113  HIS113     -0.2718
    108  CB        -1.6370   26.7500   28.5250 C.3   113  HIS113      0.0759
    109  CG        -1.2820   27.8210   29.5050 C.ar  113  HIS113      0.0818
    110  ND1       -2.0620   28.1130   30.6020 N.ar  113  HIS113     -0.2268
    111  CD2       -0.2390   28.6830   29.5450 C.ar  113  HIS113      0.1154
    112  CE1       -1.5140   29.1070   31.2770 C.ar  113  HIS113      0.1986
    113  NE2       -0.4090   29.4730   30.6550 N.ar  113  HIS113     -0.2212
    114  N         -4.6840   26.6700   28.4330 N.am  114  ARG114     -0.1966
    115  CA        -6.0660   26.9180   28.8500 C.3   114  ARG114      0.1729
    116  C         -6.2390   27.1760   30.3520 C.2   114  ARG114      0.2616
    117  O         -7.3470   27.0520   30.8810 O.2   114  ARG114     -0.2715
    118  CB        -6.9800   25.7720   28.3860 C.3   114  ARG114      0.0348
    119  CG        -7.1290   25.6780   26.8700 C.3   114  ARG114      0.0492
    120  CD        -8.1850   24.6620   26.4520 C.3   114  ARG114      0.2205
    121  NE        -9.5460   25.1820   26.5960 N.pl3 114  ARG114     -0.0865
    122  CZ       -10.4090   24.8020   27.5370 C.cat 114  ARG114      0.5346
    123  NH1      -10.0710   23.8850   28.4340 N.pl3 114  ARG114      0.1354
    124  NH2      -11.6210   25.3360   27.5760 N.pl3 114  ARG114      0.1354
    125  N         -5.1580   27.5590   31.0290 N.am  115  LEU115     -0.1977
    126  CA        -5.1980   27.7460   32.4820 C.3   115  LEU115      0.1596
    127  C         -5.0270   29.1960   32.9190 C.2   115  LEU115      0.2287
    128  O         -4.0710   29.8710   32.5380 O.2   115  LEU115     -0.2864
    129  CB        -4.1680   26.8490   33.1800 C.3   115  LEU115      0.0297
    130  CG        -4.3080   25.3340   32.9960 C.3   115  LEU115      0.0022
    131  CD1       -3.0580   24.6250   33.4840 C.3   115  LEU115      0.0001
    132  CD2       -5.5420   24.7930   33.7020 C.3   115  LEU115      0.0001
    133  N         -3.5620   29.9180   37.7900 N.3   118  TYR118     -0.1241
    134  CA        -2.9560   28.7550   38.4230 C.3   118  TYR118      0.1605
    135  C         -1.8760   29.2350   39.3790 C.2   118  TYR118      0.2264
    136  O         -1.0090   30.0280   39.0050 O.2   118  TYR118     -0.2867
    137  CB        -2.3680   27.7820   37.3940 C.3   118  TYR118      0.0534
    138  CG        -1.7830   26.5200   38.0050 C.ar  118  TYR118     -0.0201
    139  CD1       -2.5550   25.3700   38.1510 C.ar  118  TYR118     -0.0009
    140  CD2       -0.4550   26.4800   38.4440 C.ar  118  TYR118     -0.0009
    141  CE1       -2.0250   24.2140   38.7160 C.ar  118  TYR118      0.0417
    142  CE2        0.0840   25.3300   39.0070 C.ar  118  TYR118      0.0417
    143  CZ        -0.7070   24.2010   39.1380 C.ar  118  TYR118      0.1957
    144  OH        -0.1780   23.0640   39.6960 O.3   118  TYR118     -0.2866
    145  N          2.3900   19.0400   47.3660 N.3   139  GLU139     -0.1245
    146  CA         2.1300   20.0400   46.3360 C.3   139  GLU139      0.1567
    147  C          0.6300   20.2390   46.1470 C.2   139  GLU139      0.2260
    148  O         -0.0980   19.3090   45.7850 O.2   139  GLU139     -0.2867
    149  CB         2.8090   19.6800   45.0080 C.3   139  GLU139      0.0388
    150  CG         2.6020   20.7240   43.9050 C.3   139  GLU139      0.1160
    151  CD         3.5130   20.5310   42.6990 C.2   139  GLU139      0.3649
    152  OE1        4.6570   20.0600   42.8650 O.co2 139  GLU139     -0.2457
    153  OE2        3.0860   20.8660   41.5750 O.co2 139  GLU139     -0.2457
    154  N         -7.0960   17.1980   34.8170 N.3   157  PHE157     -0.1227
    155  CA        -6.0280   17.6880   33.9490 C.3   157  PHE157      0.1736
    156  C         -4.7740   18.0300   34.7550 C.2   157  PHE157      0.2595
    157  O         -3.6920   17.5070   34.4810 O.2   157  PHE157     -0.2718
    158  CB        -6.4950   18.9020   33.1320 C.3   157  PHE157      0.0547
    159  CG        -5.4050   19.5340   32.3120 C.ar  157  PHE157     -0.0202
    160  CD1       -5.0500   19.0020   31.0780 C.ar  157  PHE157     -0.0042
    161  CD2       -4.7190   20.6550   32.7840 C.ar  157  PHE157     -0.0042
    162  CE1       -4.0350   19.5730   30.3230 C.ar  157  PHE157     -0.0003
    163  CE2       -3.6990   21.2370   32.0330 C.ar  157  PHE157     -0.0003
    164  CZ        -3.3580   20.6930   30.7990 C.ar  157  PHE157     -0.0000
    165  N         -4.9370   18.8950   35.7540 N.am  158  ALA158     -0.1980
    166  CA        -3.8280   19.3430   36.5900 C.3   158  ALA158      0.1597
    167  C         -3.2380   18.2130   37.4300 C.2   158  ALA158      0.2287
    168  O         -2.0150   18.0920   37.5330 O.2   158  ALA158     -0.2864
    169  CB        -4.2640   20.4900   37.4750 C.3   158  ALA158      0.0319
    170  N         -0.9500   15.9410   35.4610 N.3   161  VAL161     -0.1231
    171  CA         0.3500   16.6110   35.3560 C.3   161  VAL161      0.1692
    172  C          1.1230   16.6150   36.6830 C.2   161  VAL161      0.2591
    173  O          2.3090   16.2700   36.7150 O.2   161  VAL161     -0.2718
    174  CB         0.1980   18.0630   34.8340 C.3   161  VAL161      0.0266
    175  CG1        1.5550   18.7530   34.7380 C.3   161  VAL161      0.0020
    176  CG2       -0.4960   18.0760   33.4860 C.3   161  VAL161      0.0020
    177  N          0.4510   16.9970   37.7680 N.am  162  VAL162     -0.1980
    178  CA         1.0990   17.1090   39.0800 C.3   162  VAL162      0.1595
    179  C          1.5490   15.7460   39.6130 C.2   162  VAL162      0.2287
    180  O          2.6520   15.6210   40.1510 O.2   162  VAL162     -0.2864
    181  CB         0.2090   17.8450   40.1200 C.3   162  VAL162      0.0276
    182  CG1        0.8630   17.8420   41.4980 C.3   162  VAL162      0.0022
    183  CG2       -0.0690   19.2830   39.6760 C.3   162  VAL162      0.0022
    184  N          4.6930   14.6840   37.5410 N.3   165  ASN165     -0.1240
    185  CA         5.8630   15.4650   37.9260 C.3   165  ASN165      0.1653
    186  C          6.4330   15.0340   39.2720 C.2   165  ASN165      0.2266
    187  O          7.6430   14.8630   39.4090 O.2   165  ASN165     -0.2867
    188  CB         5.5280   16.9570   37.9340 C.3   165  ASN165      0.1155
    189  CG         5.2870   17.5060   36.5430 C.2   165  ASN165      0.2627
    190  OD1        5.7170   16.9210   35.5460 O.2   165  ASN165     -0.2716
    191  ND2        4.5990   18.6390   36.4660 N.am  165  ASN165     -0.0877
@<TRIPOS>BOND
     1    46    45    2
     2    43    44    1
     3    61    60    2
     4    39    38    2
     5    69    67    1
     6    45    44    1
     7    45    51   am
     8    60    59    1
     9    44    47    1
    10    52    51    1
    11    52    53    1
    12    52    55    1
    13    58    53   am
    14    58    59    1
    15    51    57    1
    16    38    37    1
    17    53    54    2
    18    63    64    1
    19    59    62    1
    20    68    67    1
    21    67    64    1
    22    55    56    1
    23    47    48    1
    24    42    40    1
    25    64    65    1
    26    36    37    1
    27    57    56    1
    28   120   121    1
    29   120   119    1
    30    37    40    1
    31    48    49    1
    32    48    50    1
    33   121   122    2
    34   104   105    1
    35   119   118    1
    36    40    41    1
    37   105   106    1
    38   105   108    1
    39   122   124    1
    40   122   123    1
    41    65    66    2
    42    65    70   am
    43    32    31    2
    44   106   107    2
    45   106   114   am
    46    31    30    1
    47    13    12    2
    48   118   115    1
    49   114   115    1
    50    70    71    1
    51   108   109    1
    52    23    24    2
    53    23    22    1
    54   115   116    1
    55    12    11    1
    56    12    21   am
    57    16    18   ar
    58    16    15   ar
    59   109   111   ar
    60   109   110   ar
    61    22    21    1
    62    22    25    1
    63    18    20   ar
    64   111   113   ar
    65    30    29    1
    66    30    33    1
    67    71    72    1
    68    71    74    1
    69    11    14    1
    70    11    10    1
    71    34    33    1
    72    27    25    1
    73   162   164   ar
    74   162   160   ar
    75   116   117    2
    76   116   125   am
    77    14    15    1
    78    72    73    2
    79    15    17   ar
    80   110   112   ar
    81   113   112   ar
    82    33    35    1
    83    74    75    1
    84    20    19   ar
    85    25    26    1
    86   164   163   ar
    87   125   126    1
    88   160   159   ar
    89    26    28    1
    90    17    19   ar
    91   163   161   ar
    92   159   161   ar
    93   159   158    1
    94   126   127    1
    95   126   129    1
    96   128   127    2
    97     4     3    2
    98   130   129    1
    99   130   131    1
   100   130   132    1
   101   158   155    1
   102     3     2    1
   103   176   174    1
   104   102   100    1
   105   155   156    1
   106   155   154    1
   107    76    77    1
   108    84    82   ar
   109   157   156    2
   110   175   174    1
   111    82    81    1
   112    82    83   ar
   113   156   165   am
   114     2     5    1
   115     2     1    1
   116   174   171    1
   117    81    80    1
   118     5     6    1
   119   100   101    1
   120   100    97    1
   121   103   101    1
   122   171   170    1
   123   171   172    1
   124    77    80    1
   125    77    78    1
   126    98    99    2
   127    98    97    1
   128   190   189    2
   129    97    96    1
   130   165   166    1
   131    79    78    2
   132     7     6    1
   133     7     8    1
   134   191   189   am
   135   189   188    1
   136   166   167    1
   137   166   169    1
   138   172   173    2
   139   172   177   am
   140   137   138    1
   141   137   134    1
   142   167   168    2
   143   184   185    1
   144     8     9    1
   145   177   178    1
   146   133   134    1
   147    93    95   ar
   148    93    91   ar
   149   185   188    1
   150   185   186    1
   151   138   139   ar
   152   138   140   ar
   153   139   141   ar
   154    95    94   ar
   155   134   135    1
   156   140   142   ar
   157    91    90   ar
   158   141   143   ar
   159   136   135    2
   160   142   143   ar
   161   178   179    1
   162   178   181    1
   163   143   144    1
   164   186   187    2
   165    94    92   ar
   166    90    92   ar
   167    90    89    1
   168   179   180    2
   169   183   181    1
   170   181   182    1
   171    89    86    1
   172    87    88    2
   173    87    86    1
   174    86    85    1
   175   153   151   ar
   176   151   152   ar
   177   151   150    1
   178   150   149    1
   179   149   146    1
   180   148   147    2
   181   147   146    1
   182   146   145    1
