@<TRIPOS>MOLECULE
tmp/5or8A00.pdb
 106 105 0 0 0
SMALL
GASTEIGER

@<TRIPOS>ATOM
      1  N         39.1620  -36.2730   36.3620 N.3    21  TRP21      -0.1228
      2  CA        40.0640  -36.6460   35.2720 C.3    21  TRP21       0.1722
      3  C         39.3610  -36.8710   33.9330 C.2    21  TRP21       0.2437
      4  O         39.9470  -36.4810   32.9060 O.2    21  TRP21      -0.2733
      5  CB        40.8980  -37.8790   35.6520 C.3    21  TRP21       0.0563
      6  CG        40.0900  -39.0540   36.0620 C.ar   21  TRP21       0.0003
      7  CD1       39.6310  -39.3300   37.3110 C.ar   21  TRP21       0.0946
      8  CD2       39.6210  -40.1090   35.2090 C.ar   21  TRP21       0.0152
      9  NE1       38.8960  -40.4900   37.2910 N.ar   21  TRP21      -0.2442
     10  CE2       38.8760  -40.9910   36.0140 C.ar   21  TRP21       0.0810
     11  CE3       39.7490  -40.3800   33.8400 C.ar   21  TRP21       0.0012
     12  CZ2       38.2700  -42.1440   35.5000 C.ar   21  TRP21       0.0191
     13  CZ3       39.1440  -41.5150   33.3260 C.ar   21  TRP21       0.0001
     14  CH2       38.4120  -42.3870   34.1550 C.ar   21  TRP21       0.0015
     15  N         38.1440  -37.4330   33.8390 N.am   22  PRO22      -0.2718
     16  CA        37.5710  -37.6600   32.4950 C.3    22  PRO22       0.1535
     17  C         37.2350  -36.3570   31.8190 C.2    22  PRO22       0.2598
     18  O         37.2560  -36.3040   30.5830 O.2    22  PRO22      -0.2715
     19  CB        36.3610  -38.5730   32.7530 C.3    22  PRO22       0.0310
     20  CG        36.4690  -38.9980   34.2280 C.3    22  PRO22       0.0237
     21  CD        37.2090  -37.8950   34.8930 C.3    22  PRO22       0.0939
     22  N         36.9220  -35.3020   32.5740 N.am   23  PHE23      -0.1974
     23  CA        36.3440  -34.0940   31.9880 C.3    23  PHE23       0.1639
     24  C         37.2560  -32.8830   31.8520 C.2    23  PHE23       0.2290
     25  O         36.7700  -31.7920   31.5100 O.2    23  PHE23      -0.2864
     26  CB        35.1300  -33.7470   32.8550 C.3    23  PHE23       0.0560
     27  CG        34.2860  -34.9390   33.1780 C.ar   23  PHE23      -0.0200
     28  CD1       33.4910  -35.5200   32.1970 C.ar   23  PHE23      -0.0042
     29  CD2       34.3420  -35.5320   34.4510 C.ar   23  PHE23      -0.0042
     30  CE1       32.7260  -36.6530   32.4790 C.ar   23  PHE23      -0.0003
     31  CE2       33.5810  -36.6590   34.7530 C.ar   23  PHE23      -0.0003
     32  CZ        32.7730  -37.2270   33.7590 C.ar   23  PHE23      -0.0000
     33  N         37.0240  -34.8550   24.8310 N.3    27  VAL27      -0.1231
     34  CA        37.2020  -36.2510   24.4800 C.3    27  VAL27       0.1692
     35  C         37.8610  -36.3250   23.1130 C.2    27  VAL27       0.2592
     36  O         37.4520  -35.6400   22.1680 O.2    27  VAL27      -0.2718
     37  CB        35.8550  -36.9870   24.5010 C.3    27  VAL27       0.0266
     38  CG1       35.9650  -38.3360   23.7960 C.3    27  VAL27       0.0020
     39  CG2       35.3840  -37.1670   25.9400 C.3    27  VAL27       0.0020
     40  N         38.9000  -37.1210   23.0130 N.am   28  ASN28      -0.1974
     41  CA        39.5560  -37.3160   21.7310 C.3    28  ASN28       0.1688
     42  C         38.8100  -38.3700   20.9250 C.2    28  ASN28       0.2292
     43  O         39.0010  -39.5710   21.1640 O.2    28  ASN28      -0.2864
     44  CB        41.0110  -37.7350   21.9320 C.3    28  ASN28       0.1181
     45  CG        41.8010  -37.7520   20.6310 C.2    28  ASN28       0.2629
     46  OD1       41.2290  -37.8330   19.5290 O.2    28  ASN28      -0.2716
     47  ND2       43.1240  -37.6750   20.7490 N.am   28  ASN28      -0.0877
     48  N         40.3590  -41.5730   19.6650 N.3    31  LEU31      -0.1231
     49  CA        40.7240  -42.5830   20.6490 C.3    31  LEU31       0.1693
     50  C         39.5230  -43.2850   21.2610 C.2    31  LEU31       0.2591
     51  O         39.6890  -44.3150   21.9260 O.2    31  LEU31      -0.2718
     52  CB        41.5450  -41.9480   21.7740 C.3    31  LEU31       0.0284
     53  CG        42.8680  -41.3450   21.3100 C.3    31  LEU31       0.0019
     54  CD1       43.4490  -40.4780   22.4190 C.3    31  LEU31       0.0001
     55  CD2       43.8220  -42.4540   20.9010 C.3    31  LEU31       0.0001
     56  N         38.3290  -42.7440   21.0690 N.am   32  VAL32      -0.1980
     57  CA        37.1190  -43.2820   21.6680 C.3    32  VAL32       0.1595
     58  C         36.2030  -43.6350   20.5100 C.2    32  VAL32       0.2287
     59  O         35.5890  -42.7550   19.8890 O.2    32  VAL32      -0.2864
     60  CB        36.4590  -42.2930   22.6300 C.3    32  VAL32       0.0276
     61  CG1       35.2110  -42.9090   23.2350 C.3    32  VAL32       0.0022
     62  CG2       37.4560  -41.8760   23.7130 C.3    32  VAL32       0.0022
     63  N         32.3990  -42.0620   19.5910 N.3    35  TYR35      -0.1241
     64  CA        32.0650  -40.8610   20.3540 C.3    35  TYR35       0.1605
     65  C         31.5440  -39.7590   19.4450 C.2    35  TYR35       0.2264
     66  O         30.5590  -39.0890   19.7730 O.2    35  TYR35      -0.2867
     67  CB        33.2750  -40.3640   21.1650 C.3    35  TYR35       0.0534
     68  CG        32.8650  -39.3880   22.2530 C.ar   35  TYR35      -0.0201
     69  CD1       32.4180  -39.8520   23.5070 C.ar   35  TYR35      -0.0009
     70  CD2       32.8930  -38.0050   22.0260 C.ar   35  TYR35      -0.0009
     71  CE1       32.0200  -38.9580   24.5040 C.ar   35  TYR35       0.0417
     72  CE2       32.4890  -37.1040   23.0040 C.ar   35  TYR35       0.0417
     73  CZ        32.0440  -37.5860   24.2470 C.ar   35  TYR35       0.1957
     74  OH        31.6380  -36.6950   25.2310 O.3    35  TYR35      -0.2866
     75  N         28.2410  -37.6530   29.3980 N.3    74  CYS74      -0.1235
     76  CA        28.8640  -38.7720   30.1050 C.3    74  CYS74       0.1677
     77  C         27.9040  -39.9430   30.2600 C.2    74  CYS74       0.2270
     78  O         28.2310  -41.0840   29.8980 O.2    74  CYS74      -0.2867
     79  CB        29.3540  -38.3130   31.4730 C.3    74  CYS74       0.0956
     80  SG        30.2770  -39.5890   32.3570 S.3    74  CYS74      -0.0801
     81  N         27.1120  -41.6640   26.8820 N.3    77  PHE77      -0.1227
     82  CA        28.1160  -42.5240   26.2690 C.3    77  PHE77       0.1736
     83  C         28.6010  -43.6580   27.1670 C.2    77  PHE77       0.2595
     84  O         28.9820  -44.7220   26.6520 O.2    77  PHE77      -0.2718
     85  CB        29.3310  -41.7060   25.8080 C.3    77  PHE77       0.0547
     86  CG        30.2600  -42.4890   24.9300 C.ar   77  PHE77      -0.0202
     87  CD1       30.0310  -42.5670   23.5670 C.ar   77  PHE77      -0.0042
     88  CD2       31.3470  -43.1750   25.4750 C.ar   77  PHE77      -0.0042
     89  CE1       30.8710  -43.3190   22.7440 C.ar   77  PHE77      -0.0003
     90  CE2       32.1960  -43.9220   24.6680 C.ar   77  PHE77      -0.0003
     91  CZ        31.9550  -43.9940   23.2930 C.ar   77  PHE77      -0.0000
     92  N         28.6250  -43.4690   28.4820 N.am   78  ASN78      -0.1974
     93  CA        29.2860  -44.4170   29.3750 C.3    78  ASN78       0.1688
     94  C         28.2730  -45.1630   30.2270 C.2    78  ASN78       0.2292
     95  O         27.3430  -44.5600   30.7700 O.2    78  ASN78      -0.2864
     96  CB        30.2950  -43.6910   30.2750 C.3    78  ASN78       0.1181
     97  CG        31.3200  -42.9130   29.4660 C.2    78  ASN78       0.2629
     98  OD1       32.3950  -43.4300   29.1310 O.2    78  ASN78      -0.2716
     99  ND2       30.9630  -41.6880   29.0910 N.am   78  ASN78      -0.0877
    100  N         34.5480  -44.1870   33.7430 N.3    84  VAL84      -0.1245
    101  CA        34.1750  -42.8220   33.3920 C.3    84  VAL84       0.1561
    102  C         32.7790  -42.5220   33.9120 C.2    84  VAL84       0.2260
    103  O         32.4970  -41.4160   34.3810 O.2    84  VAL84      -0.2867
    104  CB        34.2740  -42.6000   31.8660 C.3    84  VAL84       0.0252
    105  CG1       33.6920  -41.2350   31.4810 C.3    84  VAL84       0.0019
    106  CG2       35.7250  -42.7400   31.3950 C.3    84  VAL84       0.0019
@<TRIPOS>BOND
     1    65    66    2
     2    65    64    1
     3    46    45    2
     4    63    64    1
     5    48    49    1
     6    59    58    2
     7    64    67    1
     8    58    57    1
     9    45    47   am
    10    45    44    1
    11    49    50    1
    12    49    52    1
    13    55    53    1
    14    42    43    2
    15    42    41    1
    16    56    50   am
    17    56    57    1
    18    67    68    1
    19    50    51    2
    20    53    52    1
    21    53    54    1
    22    57    60    1
    23    41    44    1
    24    41    40    1
    25    70    68   ar
    26    70    72   ar
    27    36    35    2
    28    68    69   ar
    29    60    61    1
    30    60    62    1
    31    89    91   ar
    32    89    87   ar
    33    72    73   ar
    34    40    35   am
    35    35    34    1
    36    91    90   ar
    37    69    71   ar
    38    87    86   ar
    39    38    37    1
    40    73    71   ar
    41    73    74    1
    42    34    37    1
    43    34    33    1
    44    37    39    1
    45    90    88   ar
    46    86    88   ar
    47    86    85    1
    48    85    82    1
    49    82    81    1
    50    82    83    1
    51    84    83    2
    52    83    92   am
    53    92    93    1
    54    99    97   am
    55    98    97    2
    56    93    94    1
    57    93    96    1
    58    75    76    1
    59    97    96    1
    60    78    77    2
    61    76    77    1
    62    76    79    1
    63    94    95    2
    64    18    17    2
    65   106   104    1
    66    79    80    1
    67   105   104    1
    68    25    24    2
    69    17    16    1
    70    17    22   am
    71    24    23    1
    72   104   101    1
    73    23    22    1
    74    23    26    1
    75    28    30   ar
    76    28    27   ar
    77    30    32   ar
    78    16    19    1
    79    16    15    1
    80    19    20    1
    81    26    27    1
    82     4     3    2
    83    27    29   ar
    84    13    11   ar
    85    13    14   ar
    86   101   100    1
    87   101   102    1
    88    32    31   ar
    89    15     3   am
    90    15    21    1
    91    11     8   ar
    92   102   103    2
    93     3     2    1
    94    14    12   ar
    95    20    21    1
    96    29    31   ar
    97     8    10   ar
    98     8     6   ar
    99     2     5    1
   100     2     1    1
   101    12    10   ar
   102     5     6    1
   103    10     9   ar
   104     6     7   ar
   105     9     7   ar
