@<TRIPOS>MOLECULE
tmp/5or9A00.pdb
 137 136 0 0 0
SMALL
GASTEIGER

@<TRIPOS>ATOM
      1  N         29.3540   18.3240    3.1290 N.3    32  TRP32      -0.1228
      2  CA        30.2780   17.4940    2.3680 C.3    32  TRP32       0.1722
      3  C         29.6860   16.1860    1.8350 C.2    32  TRP32       0.2437
      4  O         30.1230   15.7620    0.7510 O.2    32  TRP32      -0.2733
      5  CB        31.5320   17.2070    3.2070 C.3    32  TRP32       0.0563
      6  CG        31.2450   16.5520    4.5140 C.ar   32  TRP32       0.0003
      7  CD1       31.0290   17.1790    5.7060 C.ar   32  TRP32       0.0946
      8  CD2       31.1440   15.1450    4.7730 C.ar   32  TRP32       0.0152
      9  NE1       30.7920   16.2490    6.6900 N.ar   32  TRP32      -0.2442
     10  CE2       30.8540   14.9940    6.1430 C.ar   32  TRP32       0.0810
     11  CE3       31.2520   14.0000    3.9760 C.ar   32  TRP32       0.0012
     12  CZ2       30.6800   13.7470    6.7380 C.ar   32  TRP32       0.0191
     13  CZ3       31.0820   12.7640    4.5640 C.ar   32  TRP32       0.0001
     14  CH2       30.7950   12.6450    5.9360 C.ar   32  TRP32       0.0015
     15  N         28.7240   15.5100    2.4840 N.am   33  PRO33      -0.2718
     16  CA        28.1930   14.2820    1.8650 C.3    33  PRO33       0.1535
     17  C         27.3500   14.5510    0.6330 C.2    33  PRO33       0.2599
     18  O         27.0740   13.6090   -0.1240 O.2    33  PRO33      -0.2715
     19  CB        27.3400   13.6520    2.9740 C.3    33  PRO33       0.0310
     20  CG        27.7270   14.3630    4.2360 C.3    33  PRO33       0.0237
     21  CD        28.0780   15.7490    3.7880 C.3    33  PRO33       0.0939
     22  N         26.9260   15.7980    0.4230 N.am   34  PHE34      -0.1960
     23  CA        25.8850   16.1200   -0.5450 C.3    34  PHE34       0.1771
     24  C         26.3490   17.0470   -1.6570 C.2    34  PHE34       0.2619
     25  O         25.5230   17.4620   -2.4780 O.2    34  PHE34      -0.2715
     26  CB        24.6860   16.7490    0.1840 C.3    34  PHE34       0.0574
     27  CG        24.2990   16.0070    1.4490 C.ar   34  PHE34      -0.0200
     28  CD1       23.7180   14.7500    1.3730 C.ar   34  PHE34      -0.0042
     29  CD2       24.5310   16.5600    2.7010 C.ar   34  PHE34      -0.0042
     30  CE1       23.3820   14.0450    2.5210 C.ar   34  PHE34      -0.0003
     31  CE2       24.1870   15.8630    3.8560 C.ar   34  PHE34      -0.0003
     32  CZ        23.6110   14.6120    3.7660 C.ar   34  PHE34      -0.0000
     33  N         27.6360   17.4020   -1.6970 N.am   35  LEU35      -0.1963
     34  CA        28.1090   18.3620   -2.6840 C.3    35  LEU35       0.1728
     35  C         28.2380   17.7400   -4.0690 C.2    35  LEU35       0.2616
     36  O         28.1150   18.4530   -5.0670 O.2    35  LEU35      -0.2715
     37  CB        29.4510   18.9580   -2.2490 C.3    35  LEU35       0.0311
     38  CG        29.4200   19.8500   -0.9990 C.3    35  LEU35       0.0022
     39  CD1       30.8220   20.2700   -0.5990 C.3    35  LEU35       0.0001
     40  CD2       28.5430   21.0690   -1.2660 C.3    35  LEU35       0.0001
     41  N         28.4700   16.4330   -4.1490 N.am   36  LEU36      -0.1964
     42  CA        28.6840   15.7110   -5.3950 C.3    36  LEU36       0.1713
     43  C         27.7850   14.4890   -5.4470 C.2    36  LEU36       0.2458
     44  O         27.3400   13.9950   -4.4070 O.2    36  LEU36      -0.2730
     45  CB        30.1470   15.2630   -5.5340 C.3    36  LEU36       0.0310
     46  CG        31.2320   16.3330   -5.5840 C.3    36  LEU36       0.0022
     47  CD1       32.5740   15.6690   -5.8430 C.3    36  LEU36       0.0001
     48  CD2       30.9150   17.3520   -6.6560 C.3    36  LEU36       0.0001
     49  N         27.5190   13.9550   -6.6390 N.am   37  PRO37      -0.2716
     50  CA        26.7190   12.7280   -6.7250 C.3    37  PRO37       0.1536
     51  C         27.4000   11.5880   -5.9820 C.2    37  PRO37       0.2598
     52  O         28.6280   11.4840   -5.9620 O.2    37  PRO37      -0.2715
     53  CB        26.6510   12.4420   -8.2340 C.3    37  PRO37       0.0310
     54  CG        26.9900   13.7140   -8.8940 C.3    37  PRO37       0.0237
     55  CD        27.8790   14.4850   -7.9670 C.3    37  PRO37       0.0939
     56  N         26.5890   10.7300   -5.3590 N.am   38  VAL38      -0.1964
     57  CA        27.1230    9.4830   -4.8210 C.3    38  VAL38       0.1727
     58  C         27.6590    8.6640   -5.9850 C.2    38  VAL38       0.2616
     59  O         27.0410    8.5980   -7.0540 O.2    38  VAL38      -0.2715
     60  CB        26.0420    8.7140   -4.0430 C.3    38  VAL38       0.0290
     61  CG1       26.5810    7.3700   -3.5250 C.3    38  VAL38       0.0023
     62  CG2       25.5040    9.5550   -2.8850 C.3    38  VAL38       0.0023
     63  N         28.8220    8.0490   -5.7920 N.am   39  ASN39      -0.1972
     64  CA        29.5050    7.3370   -6.8720 C.3    39  ASN39       0.1688
     65  C         28.8330    5.9820   -7.0750 C.2    39  ASN39       0.2292
     66  O         29.1020    5.0180   -6.3480 O.2    39  ASN39      -0.2864
     67  CB        30.9870    7.1960   -6.5470 C.3    39  ASN39       0.1181
     68  CG        31.7930    6.6930   -7.7220 C.2    39  ASN39       0.2629
     69  OD1       31.3380    5.8390   -8.4850 O.2    39  ASN39      -0.2716
     70  ND2       33.0000    7.2210   -7.8750 N.am   39  ASN39      -0.0877
     71  N         29.7190    2.5220   -4.6090 N.3    43  VAL43      -0.1245
     72  CA        28.8650    2.3280   -3.4400 C.3    43  VAL43       0.1561
     73  C         27.9150    1.1730   -3.7430 C.2    43  VAL43       0.2260
     74  O         26.9990    1.3240   -4.5650 O.2    43  VAL43      -0.2867
     75  CB        28.0960    3.6040   -3.0780 C.3    43  VAL43       0.0252
     76  CG1       27.2450    3.3710   -1.8350 C.3    43  VAL43       0.0019
     77  CG2       29.0700    4.7520   -2.8570 C.3    43  VAL43       0.0019
     78  N         23.6110    1.3320   -4.0170 N.3    46  TYR46      -0.1241
     79  CA        23.0240    2.6700   -4.0990 C.3    46  TYR46       0.1605
     80  C         22.1720    2.8310   -5.3530 C.2    46  TYR46       0.2264
     81  O         21.0110    3.2570   -5.2760 O.2    46  TYR46      -0.2867
     82  CB        24.1040    3.7430   -4.0410 C.3    46  TYR46       0.0534
     83  CG        23.5230    5.0650   -3.5930 C.ar   46  TYR46      -0.0201
     84  CD1       23.1240    6.0110   -4.5230 C.ar   46  TYR46      -0.0009
     85  CD2       23.3220    5.3390   -2.2410 C.ar   46  TYR46      -0.0009
     86  CE1       22.5750    7.2220   -4.1250 C.ar   46  TYR46       0.0417
     87  CE2       22.7660    6.5470   -1.8300 C.ar   46  TYR46       0.0417
     88  CZ        22.3900    7.4800   -2.7810 C.ar   46  TYR46       0.1957
     89  OH        21.8410    8.6870   -2.3970 O.3    46  TYR46      -0.2866
     90  N         20.1550   12.4240   -6.0410 N.3    54  MET54      -0.1245
     91  CA        20.1690   13.8780   -6.1640 C.3    54  MET54       0.1570
     92  C         21.2270   14.4210   -5.2160 C.2    54  MET54       0.2261
     93  O         21.5250   13.8040   -4.1880 O.2    54  MET54      -0.2867
     94  CB        18.7880   14.4780   -5.8700 C.3    54  MET54       0.0387
     95  CG        18.6920   16.0030   -6.0320 C.3    54  MET54       0.0595
     96  SD        19.1940   16.5350   -7.6870 S.3    54  MET54      -0.1393
     97  CE        18.0630   15.5790   -8.7010 C.3    54  MET54       0.0692
     98  N         17.2610   14.9370   -1.6820 N.3    81  VAL81      -0.1245
     99  CA        18.6150   14.6810   -1.1930 C.3    81  VAL81       0.1561
    100  C         18.5660   14.0490    0.1990 C.2    81  VAL81       0.2260
    101  O         19.2200   13.0320    0.4720 O.2    81  VAL81      -0.2867
    102  CB        19.4360   15.9850   -1.1860 C.3    81  VAL81       0.0252
    103  CG1       20.7700   15.7500   -0.5080 C.3    81  VAL81       0.0019
    104  CG2       19.6340   16.5300   -2.6260 C.3    81  VAL81       0.0019
    105  N         19.2220   10.2240    1.6550 N.3    85  CYS85      -0.1235
    106  CA        20.1790   10.0370    2.7390 C.3    85  CYS85       0.1677
    107  C         19.5720    9.2300    3.8800 C.2    85  CYS85       0.2270
    108  O         20.2360    8.3650    4.4670 O.2    85  CYS85      -0.2867
    109  CB        20.6510   11.4020    3.2440 C.3    85  CYS85       0.0956
    110  SG        21.9420   11.3520    4.5080 S.3    85  CYS85      -0.0801
    111  N         19.2430    5.4430    3.0090 N.3    88  PHE88      -0.1227
    112  CA        20.4430    4.6320    2.8540 C.3    88  PHE88       0.1736
    113  C         21.3640    4.6480    4.0630 C.2    88  PHE88       0.2595
    114  O         22.1000    3.6800    4.2680 O.2    88  PHE88      -0.2718
    115  CB        21.2330    5.0790    1.6160 C.3    88  PHE88       0.0547
    116  CG        22.0390    3.9690    0.9770 C.ar   88  PHE88      -0.0202
    117  CD1       21.4290    3.0350    0.1540 C.ar   88  PHE88      -0.0042
    118  CD2       23.4070    3.8730    1.1840 C.ar   88  PHE88      -0.0042
    119  CE1       22.1650    2.0180   -0.4410 C.ar   88  PHE88      -0.0003
    120  CE2       24.1500    2.8670    0.5850 C.ar   88  PHE88      -0.0003
    121  CZ        23.5270    1.9320   -0.2210 C.ar   88  PHE88      -0.0000
    122  N         21.3420    5.6940    4.8840 N.am   89  ASN89      -0.1974
    123  CA        22.3130    5.8360    5.9600 C.3    89  ASN89       0.1688
    124  C         21.6470    5.7240    7.3260 C.2    89  ASN89       0.2292
    125  O         20.5080    6.1640    7.5210 O.2    89  ASN89      -0.2864
    126  CB        23.0420    7.1820    5.8760 C.3    89  ASN89       0.1181
    127  CG        23.7670    7.3740    4.5560 C.2    89  ASN89       0.2629
    128  OD1       24.9040    6.9410    4.3940 O.2    89  ASN89      -0.2716
    129  ND2       23.1160    8.0480    3.6150 N.am   89  ASN89      -0.0877
    130  N         27.2160   10.5240    7.8790 N.3    95  ILE95      -0.1245
    131  CA        26.4140   10.9890    6.7520 C.3    95  ILE95       0.1561
    132  C         24.9490   11.1030    7.1480 C.2    95  ILE95       0.2260
    133  O         24.2670   12.0640    6.7770 O.2    95  ILE95      -0.2867
    134  CB        26.6000   10.0590    5.5410 C.3    95  ILE95       0.0252
    135  CG1       28.0210   10.1800    4.9950 C.3    95  ILE95       0.0019
    136  CG2       25.5610   10.3710    4.4620 C.3    95  ILE95       0.0019
    137  CD1       28.3280    9.2010    3.8700 C.3    95  ILE95       0.0001
@<TRIPOS>BOND
     1    54    53    1
     2    54    55    1
     3    97    96    1
     4    69    68    2
     5    53    50    1
     6    55    49    1
     7    70    68   am
     8    68    67    1
     9    96    95    1
    10    65    64    1
    11    65    66    2
    12    59    58    2
    13    64    67    1
    14    64    63    1
    15    50    49    1
    16    50    51    1
    17    48    46    1
    18    49    43   am
    19    91    90    1
    20    91    94    1
    21    91    92    1
    22    95    94    1
    23    58    63   am
    24    58    57    1
    25    51    52    2
    26    51    56   am
    27    47    46    1
    28    46    45    1
    29    45    42    1
    30    43    42    1
    31    43    44    2
    32    42    41    1
    33    56    57    1
    34    80    81    2
    35    80    79    1
    36    92    93    2
    37    36    35    2
    38    57    60    1
    39    71    72    1
    40    74    73    2
    41    84    86   ar
    42    84    83   ar
    43    41    35   am
    44    86    88   ar
    45    79    82    1
    46    79    78    1
    47    35    34    1
    48    60    61    1
    49    60    62    1
    50    82    83    1
    51    73    72    1
    52    83    85   ar
    53    72    75    1
    54    75    77    1
    55    75    76    1
    56    88    89    1
    57    88    87   ar
    58    34    37    1
    59    34    33    1
    60   104   102    1
    61    25    24    2
    62    37    38    1
    63    85    87   ar
    64    33    24   am
    65    98    99    1
    66    24    23    1
    67    40    38    1
    68    99   102    1
    69    99   100    1
    70   102   103    1
    71    38    39    1
    72    23    26    1
    73    23    22    1
    74   119   121   ar
    75   119   117   ar
    76   121   120   ar
    77    18    17    2
    78   117   116   ar
    79    26    27    1
    80   100   101    2
    81    22    17   am
    82   120   118   ar
    83    17    16    1
    84     4     3    2
    85   116   118   ar
    86   116   115    1
    87    28    27   ar
    88    28    30   ar
    89    27    29   ar
    90   115   112    1
    91   105   106    1
    92     3     2    1
    93     3    15   am
    94    16    15    1
    95    16    19    1
    96     2     1    1
    97     2     5    1
    98    15    21    1
    99    30    32   ar
   100    29    31   ar
   101   106   109    1
   102   106   107    1
   103   112   111    1
   104   112   113    1
   105    19    20    1
   106     5     6    1
   107   109   110    1
   108   129   127   am
   109    32    31   ar
   110    21    20    1
   111   137   135    1
   112   107   108    2
   113    11    13   ar
   114    11     8   ar
   115   113   114    2
   116   113   122   am
   117   128   127    2
   118   136   134    1
   119     6     8   ar
   120     6     7   ar
   121   127   126    1
   122    13    14   ar
   123     8    10   ar
   124   122   123    1
   125   135   134    1
   126   134   131    1
   127     7     9   ar
   128   126   123    1
   129    14    12   ar
   130   123   124    1
   131    10     9   ar
   132    10    12   ar
   133   131   132    1
   134   131   130    1
   135   133   132    2
   136   124   125    2
