@<TRIPOS>MOLECULE
tmp/5orbA00.pdb
 121 120 0 0 0
SMALL
GASTEIGER

@<TRIPOS>ATOM
      1  N        -29.0180  -18.1790    3.1420 N.3    32  TRP32      -0.1228
      2  CA       -29.9370  -17.3520    2.3680 C.3    32  TRP32       0.1722
      3  C        -29.3440  -16.0390    1.8570 C.2    32  TRP32       0.2437
      4  O        -29.7670  -15.6040    0.7720 O.2    32  TRP32      -0.2733
      5  CB       -31.2100  -17.0820    3.1850 C.3    32  TRP32       0.0563
      6  CG       -30.9710  -16.4440    4.4920 C.ar   32  TRP32       0.0003
      7  CD1      -30.7770  -17.0770    5.6890 C.ar   32  TRP32       0.0946
      8  CD2      -30.9030  -15.0400    4.7610 C.ar   32  TRP32       0.0152
      9  NE1      -30.5840  -16.1470    6.6870 N.ar   32  TRP32      -0.2442
     10  CE2      -30.6490  -14.8920    6.1420 C.ar   32  TRP32       0.0810
     11  CE3      -31.0080  -13.8910    3.9670 C.ar   32  TRP32       0.0012
     12  CZ2      -30.5110  -13.6430    6.7460 C.ar   32  TRP32       0.0191
     13  CZ3      -30.8690  -12.6480    4.5710 C.ar   32  TRP32       0.0001
     14  CH2      -30.6260  -12.5360    5.9460 C.ar   32  TRP32       0.0015
     15  N        -28.3910  -15.3750    2.5230 N.am   33  PRO33      -0.2718
     16  CA       -27.8180  -14.1710    1.9050 C.3    33  PRO33       0.1535
     17  C        -26.9690  -14.4550    0.6760 C.2    33  PRO33       0.2598
     18  O        -26.6140  -13.5120   -0.0350 O.2    33  PRO33      -0.2715
     19  CB       -26.9660  -13.5650    3.0280 C.3    33  PRO33       0.0310
     20  CG       -27.4540  -14.2070    4.2880 C.3    33  PRO33       0.0237
     21  CD       -27.8330  -15.5830    3.8750 C.3    33  PRO33       0.0939
     22  N        -26.6270  -15.7090    0.3990 N.am   34  PHE34      -0.1974
     23  CA       -25.6120  -16.0240   -0.6020 C.3    34  PHE34       0.1639
     24  C        -26.1190  -16.9420   -1.7090 C.2    34  PHE34       0.2290
     25  O        -25.3310  -17.3550   -2.5710 O.2    34  PHE34      -0.2864
     26  CB       -24.4040  -16.6400    0.1070 C.3    34  PHE34       0.0560
     27  CG       -24.0850  -15.9610    1.4300 C.ar   34  PHE34      -0.0200
     28  CD1      -23.5070  -14.7010    1.4530 C.ar   34  PHE34      -0.0042
     29  CD2      -24.3800  -16.5770    2.6440 C.ar   34  PHE34      -0.0042
     30  CE1      -23.2250  -14.0610    2.6740 C.ar   34  PHE34      -0.0003
     31  CE2      -24.0970  -15.9430    3.8560 C.ar   34  PHE34      -0.0003
     32  CZ       -23.5210  -14.6880    3.8700 C.ar   34  PHE34      -0.0000
     33  N        -28.2420  -16.3140   -4.1950 N.3    36  LEU36      -0.1231
     34  CA       -28.4420  -15.6250   -5.4610 C.3    36  LEU36       0.1678
     35  C        -27.5850  -14.3750   -5.5060 C.2    36  LEU36       0.2434
     36  O        -27.1920  -13.8480   -4.4570 O.2    36  LEU36      -0.2733
     37  CB       -29.9140  -15.2410   -5.6420 C.3    36  LEU36       0.0284
     38  CG       -30.9080  -16.3910   -5.7370 C.3    36  LEU36       0.0019
     39  CD1      -32.2970  -15.8180   -5.9470 C.3    36  LEU36       0.0001
     40  CD2      -30.5140  -17.3180   -6.8730 C.3    36  LEU36       0.0001
     41  N        -27.2820  -13.8580   -6.7030 N.am   37  PRO37      -0.2718
     42  CA       -26.4520  -12.6500   -6.7950 C.3    37  PRO37       0.1535
     43  C        -27.1180  -11.4630   -6.1160 C.2    37  PRO37       0.2598
     44  O        -28.3420  -11.3130   -6.1470 O.2    37  PRO37      -0.2715
     45  CB       -26.3150  -12.4180   -8.3040 C.3    37  PRO37       0.0310
     46  CG       -26.6540  -13.7160   -8.9240 C.3    37  PRO37       0.0237
     47  CD       -27.6550  -14.3640   -8.0310 C.3    37  PRO37       0.0939
     48  N        -26.2930  -10.6240   -5.4830 N.am   38  VAL38      -0.1964
     49  CA       -26.7690   -9.3310   -5.0000 C.3    38  VAL38       0.1727
     50  C        -27.3360   -8.5540   -6.1760 C.2    38  VAL38       0.2616
     51  O        -26.6920   -8.4390   -7.2250 O.2    38  VAL38      -0.2715
     52  CB       -25.6280   -8.5660   -4.3080 C.3    38  VAL38       0.0290
     53  CG1      -26.0730   -7.1680   -3.8950 C.3    38  VAL38       0.0023
     54  CG2      -25.1080   -9.3450   -3.0890 C.3    38  VAL38       0.0023
     55  N        -28.5600   -8.0460   -6.0230 N.am   39  ASN39      -0.1972
     56  CA       -29.2330   -7.3260   -7.1040 C.3    39  ASN39       0.1688
     57  C        -28.5820   -5.9580   -7.2670 C.2    39  ASN39       0.2292
     58  O        -28.8980   -5.0100   -6.5440 O.2    39  ASN39      -0.2864
     59  CB       -30.7210   -7.2030   -6.8080 C.3    39  ASN39       0.1181
     60  CG       -31.5100   -6.6520   -7.9850 C.2    39  ASN39       0.2629
     61  OD1      -31.0580   -5.7420   -8.6900 O.2    39  ASN39      -0.2716
     62  ND2      -32.7000   -7.2010   -8.2010 N.am   39  ASN39      -0.0877
     63  N        -29.4520   -2.5490   -4.6680 N.3    43  VAL43      -0.1245
     64  CA       -28.6140   -2.3810   -3.4920 C.3    43  VAL43       0.1561
     65  C        -27.6480   -1.2320   -3.7680 C.2    43  VAL43       0.2260
     66  O        -26.7290   -1.3770   -4.5890 O.2    43  VAL43      -0.2867
     67  CB       -27.8600   -3.6680   -3.1340 C.3    43  VAL43       0.0252
     68  CG1      -27.0600   -3.4710   -1.8550 C.3    43  VAL43       0.0019
     69  CG2      -28.8420   -4.8250   -3.0000 C.3    43  VAL43       0.0019
     70  N        -23.3170   -1.3530   -4.0640 N.3    46  TYR46      -0.1241
     71  CA       -22.7120   -2.6830   -4.1310 C.3    46  TYR46       0.1605
     72  C        -21.8450   -2.8260   -5.3710 C.2    46  TYR46       0.2264
     73  O        -20.6880   -3.2550   -5.2820 O.2    46  TYR46      -0.2867
     74  CB       -23.7740   -3.7840   -4.0840 C.3    46  TYR46       0.0534
     75  CG       -23.1640   -5.1080   -3.6300 C.ar   46  TYR46      -0.0201
     76  CD1      -22.6300   -6.0030   -4.5500 C.ar   46  TYR46      -0.0009
     77  CD2      -23.0610   -5.4210   -2.2820 C.ar   46  TYR46      -0.0009
     78  CE1      -22.0500   -7.2050   -4.1480 C.ar   46  TYR46       0.0417
     79  CE2      -22.4740   -6.6120   -1.8630 C.ar   46  TYR46       0.0417
     80  CZ       -21.9700   -7.5010   -2.8030 C.ar   46  TYR46       0.1957
     81  OH       -21.3860   -8.6850   -2.4020 O.3    46  TYR46      -0.2866
     82  N        -17.1170  -14.9610   -1.7240 N.3    81  VAL81      -0.1245
     83  CA       -18.4560  -14.7070   -1.1870 C.3    81  VAL81       0.1561
     84  C        -18.3650  -14.0940    0.2040 C.2    81  VAL81       0.2260
     85  O        -18.9540  -13.0440    0.4820 O.2    81  VAL81      -0.2867
     86  CB       -19.2790  -16.0080   -1.1570 C.3    81  VAL81       0.0252
     87  CG1      -20.6140  -15.7870   -0.4250 C.3    81  VAL81       0.0019
     88  CG2      -19.5030  -16.5570   -2.5620 C.3    81  VAL81       0.0019
     89  N        -18.8750  -10.2950    1.6580 N.3    85  CYS85      -0.1235
     90  CA       -19.8170  -10.1090    2.7580 C.3    85  CYS85       0.1677
     91  C        -19.2060   -9.2630    3.8700 C.2    85  CYS85       0.2270
     92  O        -19.8490   -8.3430    4.3880 O.2    85  CYS85      -0.2867
     93  CB       -20.2820  -11.4550    3.3130 C.3    85  CYS85       0.0956
     94  SG       -21.6030  -11.2550    4.5300 S.3    85  CYS85      -0.0801
     95  N        -18.9190   -5.4440    3.0020 N.3    88  PHE88      -0.1227
     96  CA       -20.1250   -4.6410    2.8840 C.3    88  PHE88       0.1736
     97  C        -20.9980   -4.6480    4.1300 C.2    88  PHE88       0.2595
     98  O        -21.7070   -3.6690    4.3700 O.2    88  PHE88      -0.2718
     99  CB       -20.9550   -5.1230    1.6860 C.3    88  PHE88       0.0547
    100  CG       -21.7910   -4.0420    1.0480 C.ar   88  PHE88      -0.0202
    101  CD1      -21.1970   -3.0550    0.2660 C.ar   88  PHE88      -0.0042
    102  CD2      -23.1700   -4.0230    1.2100 C.ar   88  PHE88      -0.0042
    103  CE1      -21.9680   -2.0640   -0.3400 C.ar   88  PHE88      -0.0003
    104  CE2      -23.9500   -3.0440    0.5960 C.ar   88  PHE88      -0.0003
    105  CZ       -23.3530   -2.0560   -0.1660 C.ar   88  PHE88      -0.0000
    106  N        -20.9750   -5.7080    4.9350 N.am   89  ASN89      -0.1974
    107  CA       -21.9170   -5.8340    6.0380 C.3    89  ASN89       0.1688
    108  C        -21.2150   -5.7030    7.3830 C.2    89  ASN89       0.2292
    109  O        -20.0580   -6.1030    7.5390 O.2    89  ASN89      -0.2864
    110  CB       -22.6560   -7.1760    5.9760 C.3    89  ASN89       0.1181
    111  CG       -23.4310   -7.3560    4.6760 C.2    89  ASN89       0.2629
    112  OD1      -24.5600   -6.8850    4.5470 O.2    89  ASN89      -0.2716
    113  ND2      -22.8250   -8.0430    3.7080 N.am   89  ASN89      -0.0877
    114  N        -26.9190  -10.5460    8.0780 N.3    95  ILE95      -0.1245
    115  CA       -26.1100  -10.9910    6.9450 C.3    95  ILE95       0.1561
    116  C        -24.6410  -11.0920    7.3420 C.2    95  ILE95       0.2260
    117  O        -23.9590  -12.0680    7.0100 O.2    95  ILE95      -0.2867
    118  CB       -26.3060  -10.0490    5.7420 C.3    95  ILE95       0.0252
    119  CG1      -27.7600  -10.0920    5.2560 C.3    95  ILE95       0.0019
    120  CG2      -25.3530  -10.4290    4.6180 C.3    95  ILE95       0.0019
    121  CD1      -28.0940   -9.0170    4.2260 C.3    95  ILE95       0.0001
@<TRIPOS>BOND
     1    46    45    1
     2    46    47    1
     3    61    60    2
     4    45    42    1
     5    62    60   am
     6    47    41    1
     7    60    59    1
     8    57    56    1
     9    57    58    2
    10    51    50    2
    11    56    59    1
    12    56    55    1
    13    40    38    1
    14    42    41    1
    15    42    43    1
    16    41    35   am
    17    50    55   am
    18    50    49    1
    19    44    43    2
    20    43    48   am
    21    39    38    1
    22    38    37    1
    23    37    34    1
    24    35    34    1
    25    35    36    2
    26    48    49    1
    27    34    33    1
    28    72    73    2
    29    72    71    1
    30    49    52    1
    31    63    64    1
    32    66    65    2
    33    76    78   ar
    34    76    75   ar
    35    52    53    1
    36    52    54    1
    37    78    80   ar
    38    71    74    1
    39    71    70    1
    40    74    75    1
    41    65    64    1
    42    75    77   ar
    43    64    67    1
    44    67    69    1
    45    67    68    1
    46    80    81    1
    47    80    79   ar
    48    25    24    2
    49    88    86    1
    50    77    79   ar
    51    82    83    1
    52    24    23    1
    53    83    86    1
    54    83    84    1
    55    86    87    1
    56    23    26    1
    57    23    22    1
    58   103   105   ar
    59   103   101   ar
    60   105   104   ar
    61    18    17    2
    62    26    27    1
    63    84    85    2
    64   101   100   ar
    65    22    17   am
    66   104   102   ar
    67    17    16    1
    68     4     3    2
    69   100   102   ar
    70   100    99    1
    71    27    28   ar
    72    27    29   ar
    73    28    30   ar
    74    89    90    1
    75    99    96    1
    76     3     2    1
    77     3    15   am
    78    16    15    1
    79    16    19    1
    80     2     1    1
    81     2     5    1
    82    15    21    1
    83    29    31   ar
    84    30    32   ar
    85    90    93    1
    86    90    91    1
    87    96    95    1
    88    96    97    1
    89    19    20    1
    90     5     6    1
    91    93    94    1
    92   113   111   am
    93    31    32   ar
    94    91    92    2
    95    21    20    1
    96    11    13   ar
    97    11     8   ar
    98    97    98    2
    99    97   106   am
   100   121   119    1
   101     6     8   ar
   102     6     7   ar
   103   112   111    2
   104    13    14   ar
   105   120   118    1
   106   111   110    1
   107     8    10   ar
   108   106   107    1
   109   119   118    1
   110     7     9   ar
   111   118   115    1
   112    14    12   ar
   113   110   107    1
   114   107   108    1
   115    10     9   ar
   116    10    12   ar
   117   115   116    1
   118   115   114    1
   119   117   116    2
   120   108   109    2
