@<TRIPOS>MOLECULE
tmp/5orfC01.pdb
 83 76 0 0 0
SMALL
GASTEIGER

@<TRIPOS>ATOM
      1  N        110.9110   29.8670   86.5700 N.3   393  LEU393     -0.1245
      2  CA       110.0180   29.9470   85.4060 C.3   393  LEU393      0.1561
      3  C        109.3000   31.3010   85.2270 C.2   393  LEU393      0.2260
      4  O        109.2030   31.7770   84.0830 O.2   393  LEU393     -0.2867
      5  CB       108.9970   28.8020   85.4390 C.3   393  LEU393      0.0270
      6  CG       108.2850   28.4540   84.1090 C.3   393  LEU393      0.0019
      7  CD1      109.2880   28.0400   83.0110 C.3   393  LEU393      0.0001
      8  CD2      107.2440   27.3370   84.3010 C.3   393  LEU393      0.0001
      9  N        100.8960   30.4670   80.2250 N.3   404  ASN404     -0.1225
     10  CA       100.8380   29.4520   79.2040 C.3   404  ASN404      0.1785
     11  C        101.4620   28.0960   79.6940 C.2   404  ASN404      0.2597
     12  O        100.8750   27.0090   79.4800 O.2   404  ASN404     -0.2718
     13  CB       101.4340   29.9370   77.8730 C.3   404  ASN404      0.1169
     14  CG       100.6460   31.1020   77.2830 C.2   404  ASN404      0.2627
     15  OD1       99.4300   31.1420   77.4040 O.2   404  ASN404     -0.2716
     16  ND2      101.3360   32.0890   76.7210 N.am  404  ASN404     -0.0877
     17  N        102.5780   28.1560   80.4130 N.am  405  ALA405     -0.1979
     18  CA       103.2840   26.9510   80.7660 C.3   405  ALA405      0.1597
     19  C        102.4600   26.0700   81.7770 C.2   405  ALA405      0.2287
     20  O        102.6620   24.8100   81.8960 O.2   405  ALA405     -0.2864
     21  CB       104.6630   27.3020   81.2990 C.3   405  ALA405      0.0319
     22  N         99.6410   24.1590   79.6390 N.3   408  VAL408     -0.1231
     23  CA       100.2610   22.9060   79.1630 C.3   408  VAL408      0.1692
     24  C        100.2800   21.7970   80.2020 C.2   408  VAL408      0.2591
     25  O         99.6800   20.7140   80.0450 O.2   408  VAL408     -0.2718
     26  CB       101.7040   23.1650   78.7300 C.3   408  VAL408      0.0266
     27  CG1      102.4300   21.8440   78.3640 C.3   408  VAL408      0.0020
     28  CG2      101.7250   24.1300   77.5270 C.3   408  VAL408      0.0020
     29  N        100.9660   22.0650   81.3020 N.am  409  ARG409     -0.1980
     30  CA       100.9490   21.1550   82.4840 C.3   409  ARG409      0.1597
     31  C         99.6310   20.7560   82.8870 C.2   409  ARG409      0.2287
     32  O         99.3560   19.5720   82.9330 O.2   409  ARG409     -0.2864
     33  CB       101.5870   21.8070   83.7180 C.3   409  ARG409      0.0334
     34  CG       103.0560   21.4670   83.7730 C.3   409  ARG409      0.0492
     35  CD       103.7660   22.6350   84.3280 C.3   409  ARG409      0.2205
     36  NE       103.5390   22.7540   85.7620 N.pl3 409  ARG409     -0.0865
     37  CZ       104.1510   23.6560   86.5090 C.cat 409  ARG409      0.5346
     38  NH1      104.9670   24.5090   85.9540 N.pl3 409  ARG409      0.1354
     39  NH2      103.9120   23.7020   87.7900 N.pl3 409  ARG409      0.1354
     40  N         97.5420   18.8770   80.6180 N.3   412  ARG412     -0.1245
     41  CA        98.0370   17.4860   80.5380 C.3   412  ARG412      0.1563
     42  C         97.6230   16.6930   81.7910 C.2   412  ARG412      0.2260
     43  O         97.5790   15.4640   81.8020 O.2   412  ARG412     -0.2867
     44  CB        99.6180   17.4070   80.3800 C.3   412  ARG412      0.0307
     45  CG       100.1850   17.7360   79.0350 C.3   412  ARG412      0.0489
     46  CD       101.6730   18.0540   79.0730 C.3   412  ARG412      0.2205
     47  NE       102.2340   18.1210   77.6930 N.pl3 412  ARG412     -0.0865
     48  CZ       103.4060   18.6490   77.3630 C.cat 412  ARG412      0.5346
     49  NH1      104.2080   19.1780   78.2950 N.pl3 412  ARG412      0.1354
     50  NH2      103.7690   18.6550   76.0870 N.pl3 412  ARG412      0.1354
     51  N        107.4380   19.7300   72.9890 N.3   540  ASP540     -0.1239
     52  CA       107.5820   21.1300   73.3430 C.3   540  ASP540      0.1674
     53  C        107.7590   21.9890   72.1040 C.2   540  ASP540      0.2266
     54  O        106.9700   22.9180   71.8700 O.2   540  ASP540     -0.2867
     55  CB       108.7590   21.3350   74.2890 C.3   540  ASP540      0.1410
     56  CG       108.4160   20.9970   75.7370 C.2   540  ASP540      0.3668
     57  OD1      107.3000   21.3450   76.2110 O.co2 540  ASP540     -0.2456
     58  OD2      109.2700   20.3800   76.4060 O.co2 540  ASP540     -0.2456
     59  N        104.6850   22.8420   70.3020 N.3   543  LEU543     -0.1231
     60  CA       103.9940   23.8660   71.0200 C.3   543  LEU543      0.1693
     61  C        104.4070   25.2840   70.7110 C.2   543  LEU543      0.2591
     62  O        103.5510   26.1280   70.4130 O.2   543  LEU543     -0.2718
     63  CB       104.1490   23.6500   72.4930 C.3   543  LEU543      0.0284
     64  CG       103.2070   22.5940   73.0370 C.3   543  LEU543      0.0019
     65  CD1      102.9930   22.7770   74.5430 C.3   543  LEU543      0.0001
     66  CD2      101.9050   22.5810   72.2140 C.3   543  LEU543      0.0001
     67  N        105.6990   25.5630   70.8050 N.am  544  LYS544     -0.1980
     68  CA       106.1780   26.9290   70.5960 C.3   544  LYS544      0.1596
     69  C        105.9590   27.3380   69.1230 C.2   544  LYS544      0.2287
     70  O        105.5960   28.4580   68.8130 O.2   544  LYS544     -0.2864
     71  CB       107.6490   27.0780   71.0560 C.3   544  LYS544      0.0298
     72  CG       108.2350   28.4770   70.9140 C.3   544  LYS544      0.0038
     73  CD       109.7210   28.5910   71.3620 C.3   544  LYS544      0.0206
     74  CE       109.9610   29.1450   72.7860 C.3   544  LYS544      0.1093
     75  NZ       108.9380   30.0840   73.4040 N.3   544  LYS544     -0.1314
     76  N        102.3130   28.1080   68.6700 N.3   547  MET547     -0.1245
     77  CA       101.9130   29.3320   69.4020 C.3   547  MET547      0.1570
     78  C        102.4630   30.5670   68.6500 C.2   547  MET547      0.2261
     79  O        101.8040   31.6050   68.5540 O.2   547  MET547     -0.2867
     80  CB       102.4560   29.3260   70.8150 C.3   547  MET547      0.0387
     81  CG       101.8400   28.2720   71.7020 C.3   547  MET547      0.0595
     82  SD       102.4850   28.2760   73.3990 S.3   547  MET547     -0.1393
     83  CE       104.2450   28.0220   73.0360 C.3   547  MET547      0.0692
@<TRIPOS>BOND
     1    79    78    2
     2    78    77    1
     3    76    77    1
     4    70    69    2
     5    69    68    1
     6    77    80    1
     7    59    60    1
     8    62    61    2
     9    68    67    1
    10    68    71    1
    11    61    67   am
    12    61    60    1
    13    80    81    1
    14    72    71    1
    15    72    73    1
    16    60    63    1
    17    73    74    1
    18    81    82    1
    19    54    53    2
    20    53    52    1
    21    66    64    1
    22    63    64    1
    23    74    75    1
    24    51    52    1
    25    83    82    1
    26    64    65    1
    27    52    55    1
    28    55    56    1
    29    56    57   ar
    30    56    58   ar
    31    50    48    1
    32    16    14   am
    33    14    15    2
    34    14    13    1
    35    48    47    2
    36    48    49    1
    37    28    26    1
    38    47    46    1
    39    13    10    1
    40    27    26    1
    41    26    23    1
    42    45    46    1
    43    45    44    1
    44    23    22    1
    45    23    24    1
    46    10    11    1
    47    10     9    1
    48    12    11    2
    49    11    17   am
    50    25    24    2
    51    24    29   am
    52    44    41    1
    53    17    18    1
    54    41    40    1
    55    41    42    1
    56    18    21    1
    57    18    19    1
    58    29    30    1
    59    19    20    2
    60    42    43    2
    61    30    31    1
    62    30    33    1
    63    31    32    2
    64     7     6    1
    65    33    34    1
    66    34    35    1
    67     4     3    2
    68     6     8    1
    69     6     5    1
    70    35    36    1
    71     3     2    1
    72     2     5    1
    73     2     1    1
    74    36    37    2
    75    38    37    1
    76    37    39    1
