@<TRIPOS>MOLECULE
tmp/5orgA00.pdb
 169 161 0 0 0
SMALL
GASTEIGER

@<TRIPOS>ATOM
      1  N        -19.5050  -28.5680   13.0920 N.3    11  GLU11      -0.1245
      2  CA       -18.4220  -27.8310   12.4570 C.3    11  GLU11       0.1567
      3  C        -17.5850  -28.7100   11.5220 C.2    11  GLU11       0.2260
      4  O        -17.3230  -28.3370   10.3740 O.2    11  GLU11      -0.2867
      5  CB       -17.5640  -27.1410   13.5300 C.3    11  GLU11       0.0388
      6  CG       -16.4000  -26.3290   12.9940 C.3    11  GLU11       0.1160
      7  CD       -15.2240  -26.2320   13.9470 C.2    11  GLU11       0.3649
      8  OE1      -14.5790  -25.1650   13.9970 O.co2  11  GLU11      -0.2457
      9  OE2      -14.9840  -27.1990   14.6950 O.co2  11  GLU11      -0.2457
     10  N        -14.4980  -29.6100   12.4920 N.3    13  GLY13      -0.1210
     11  CA       -13.0890  -29.2580   12.7420 C.3    13  GLY13       0.1956
     12  C        -12.6730  -29.4460   14.1850 C.2    13  GLY13       0.2611
     13  O        -11.9100  -28.6430   14.7260 O.2    13  GLY13      -0.2717
     14  N        -13.1950  -30.5000   14.8280 N.am   14  TYR14      -0.1976
     15  CA       -13.0460  -30.6780   16.2630 C.3    14  TYR14       0.1639
     16  C        -13.0580  -32.1490   16.6630 C.2    14  TYR14       0.2290
     17  O        -13.8310  -32.5610   17.5360 O.2    14  TYR14      -0.2864
     18  CB       -14.2230  -29.9260   16.9110 C.3    14  TYR14       0.0560
     19  CG       -13.9970  -29.4200   18.3160 C.ar   14  TYR14      -0.0198
     20  CD1      -13.1240  -28.3600   18.5670 C.ar   14  TYR14      -0.0009
     21  CD2      -14.7480  -29.9100   19.3790 C.ar   14  TYR14      -0.0009
     22  CE1      -12.9920  -27.8240   19.8460 C.ar   14  TYR14       0.0417
     23  CE2      -14.5810  -29.4160   20.6710 C.ar   14  TYR14       0.0417
     24  CZ       -13.7250  -28.3590   20.8950 C.ar   14  TYR14       0.1957
     25  OH       -13.6470  -27.8490   22.1530 O.3    14  TYR14      -0.2866
     26  N        -14.9670  -35.1150   18.5470 N.3    17  TRP17      -0.1227
     27  CA       -16.3720  -34.6980   18.7090 C.3    17  TRP17       0.1737
     28  C        -17.0860  -34.6840   17.3360 C.2    17  TRP17       0.2595
     29  O        -18.1500  -35.2870   17.1700 O.2    17  TRP17      -0.2718
     30  CB       -16.4790  -33.2890   19.3520 C.3    17  TRP17       0.0564
     31  CG       -15.9480  -33.2100   20.7570 C.ar   17  TRP17       0.0003
     32  CD1      -14.6380  -33.2030   21.1410 C.ar   17  TRP17       0.0946
     33  CD2      -16.7210  -33.1420   21.9670 C.ar   17  TRP17       0.0152
     34  NE1      -14.5470  -33.0960   22.5080 N.ar   17  TRP17      -0.2442
     35  CE2      -15.8100  -33.0680   23.0420 C.ar   17  TRP17       0.0810
     36  CE3      -18.1060  -33.1090   22.2440 C.ar   17  TRP17       0.0012
     37  CZ2      -16.2320  -33.0120   24.3790 C.ar   17  TRP17       0.0191
     38  CZ3      -18.5230  -33.0210   23.5690 C.ar   17  TRP17       0.0001
     39  CH2      -17.5910  -32.9770   24.6180 C.ar   17  TRP17       0.0015
     40  N        -16.4720  -33.9900   16.3660 N.am   18  ASN18      -0.1974
     41  CA       -16.9920  -33.8280   15.0200 C.3    18  ASN18       0.1688
     42  C        -15.8370  -33.5110   14.1000 C.2    18  ASN18       0.2292
     43  O        -15.0260  -32.6290   14.3840 O.2    18  ASN18      -0.2864
     44  CB       -18.0930  -32.7300   14.9590 C.3    18  ASN18       0.1181
     45  CG       -17.6900  -31.3640   15.4570 C.2    18  ASN18       0.2629
     46  OD1      -17.2460  -30.5030   14.6980 O.2    18  ASN18      -0.2716
     47  ND2      -17.8710  -31.1130   16.7320 N.am   18  ASN18      -0.0877
     48  N        -17.6180  -22.5690   12.5490 N.3    52  TRP52      -0.1241
     49  CA       -17.8970  -22.0640   13.8960 C.3    52  TRP52       0.1605
     50  C        -18.3550  -20.6040   13.9220 C.2    52  TRP52       0.2264
     51  O        -19.3080  -20.2930   14.6190 O.2    52  TRP52      -0.2867
     52  CB       -16.6670  -22.2460   14.7950 C.3    52  TRP52       0.0550
     53  CG       -16.9330  -21.8900   16.2320 C.ar   52  TRP52       0.0003
     54  CD1      -16.5130  -20.7760   16.9050 C.ar   52  TRP52       0.0946
     55  CD2      -17.6900  -22.6630   17.1650 C.ar   52  TRP52       0.0152
     56  NE1      -16.9490  -20.8200   18.2050 N.ar   52  TRP52      -0.2442
     57  CE2      -17.6540  -21.9770   18.4020 C.ar   52  TRP52       0.0810
     58  CE3      -18.3710  -23.8900   17.0860 C.ar   52  TRP52       0.0012
     59  CZ2      -18.2580  -22.4760   19.5500 C.ar   52  TRP52       0.0191
     60  CZ3      -18.9970  -24.3700   18.2200 C.ar   52  TRP52       0.0001
     61  CH2      -18.9100  -23.6860   19.4450 C.ar   52  TRP52       0.0015
     62  N        -22.0860  -29.2050   17.9660 N.3    69  ALA69      -0.1231
     63  CA       -20.6960  -28.9100   17.6010 C.3    69  ALA69       0.1694
     64  C        -19.8340  -28.6310   18.8450 C.2    69  ALA69       0.2592
     65  O        -18.9760  -27.7370   18.8340 O.2    69  ALA69      -0.2718
     66  CB       -20.6680  -27.7390   16.6290 C.3    69  ALA69       0.0304
     67  N        -20.0990  -29.4010   19.9250 N.am   70  ALA70      -0.1966
     68  CA       -19.4300  -29.3380   21.2290 C.3    70  ALA70       0.1728
     69  C        -19.6040  -27.9420   21.8250 C.2    70  ALA70       0.2616
     70  O        -18.6900  -27.3860   22.4280 O.2    70  ALA70      -0.2715
     71  CB       -17.9550  -29.7240   21.0950 C.3    70  ALA70       0.0334
     72  N        -20.8150  -27.3920   21.6640 N.am   71  MET71      -0.1963
     73  CA       -21.1340  -26.0570   22.1520 C.3    71  MET71       0.1736
     74  C        -21.5150  -26.0820   23.6210 C.2    71  MET71       0.2617
     75  O        -22.5080  -26.6980   24.0030 O.2    71  MET71      -0.2715
     76  CB       -22.2320  -25.4040   21.2920 C.3    71  MET71       0.0427
     77  CG       -22.6020  -24.0020   21.7600 C.3    71  MET71       0.0599
     78  SD       -23.6890  -23.1190   20.6260 S.3    71  MET71      -0.1393
     79  CE       -22.5400  -22.6480   19.3100 C.3    71  MET71       0.0692
     80  N        -20.7570  -25.3410   24.4250 N.am   72  SER72      -0.1950
     81  CA       -21.0480  -25.1790   25.8370 C.3    72  SER72       0.1924
     82  C        -22.2090  -24.2090   26.0380 C.2    72  SER72       0.2314
     83  O        -22.3490  -23.2350   25.2990 O.2    72  SER72      -0.2863
     84  CB       -19.8330  -24.6230   26.5660 C.3    72  SER72       0.2116
     85  OG       -18.7250  -25.5070   26.4630 O.3    72  SER72      -0.2180
     86  N        -24.6380  -16.9990   25.6100 N.3    77  ARG77      -0.1245
     87  CA       -25.2810  -17.7600   24.5250 C.3    77  ARG77       0.1563
     88  C        -26.7750  -17.9950   24.7890 C.2    77  ARG77       0.2260
     89  O        -27.5690  -18.0100   23.8510 O.2    77  ARG77      -0.2867
     90  CB       -24.5600  -19.0860   24.2750 C.3    77  ARG77       0.0307
     91  CG       -23.1860  -18.8660   23.6520 C.3    77  ARG77       0.0489
     92  CD       -22.4130  -20.1390   23.6260 C.3    77  ARG77       0.2205
     93  NE       -21.0290  -19.8840   23.2430 N.pl3  77  ARG77      -0.0865
     94  CZ       -20.0720  -20.7920   23.2520 C.cat  77  ARG77       0.5346
     95  NH1      -18.8530  -20.4770   22.8510 N.pl3  77  ARG77       0.1354
     96  NH2      -20.3270  -22.0310   23.6460 N.pl3  77  ARG77       0.1354
     97  N        -16.9790  -30.0440   29.0730 N.3    90  GLY90      -0.1225
     98  CA       -15.6630  -29.7380   28.5190 C.3    90  GLY90       0.1811
     99  C        -14.5420  -29.6850   29.5260 C.2    90  GLY90       0.2280
    100  O        -14.7000  -29.0980   30.5990 O.2    90  GLY90      -0.2866
    101  N        -10.4800  -28.5600   29.5420 N.3    92  ASN92      -0.1240
    102  CA        -9.5340  -27.7900   28.7580 C.3    92  ASN92       0.1653
    103  C         -8.1420  -27.7200   29.3480 C.2    92  ASN92       0.2266
    104  O         -7.9760  -27.6860   30.5590 O.2    92  ASN92      -0.2867
    105  CB       -10.0850  -26.3790   28.5370 C.3    92  ASN92       0.1155
    106  CG       -11.2490  -26.3660   27.5800 C.2    92  ASN92       0.2627
    107  OD1      -12.3180  -26.9200   27.8260 O.2    92  ASN92      -0.2716
    108  ND2      -11.0670  -25.7210   26.4870 N.am   92  ASN92      -0.0877
    109  N         -9.1890  -20.6120   19.6920 N.3   140  GLN140     -0.1245
    110  CA       -10.2650  -20.4310   18.7290 C.3   140  GLN140      0.1566
    111  C        -11.1530  -19.2850   19.2470 C.2   140  GLN140      0.2260
    112  O        -11.5450  -19.2950   20.4190 O.2   140  GLN140     -0.2867
    113  CB       -11.0560  -21.7250   18.5340 C.3   140  GLN140      0.0367
    114  CG       -12.2140  -21.5730   17.5580 C.3   140  GLN140      0.0905
    115  CD       -12.9320  -22.8810   17.3110 C.2   140  GLN140      0.2608
    116  OE1      -12.9610  -23.8150   18.1450 O.2   140  GLN140     -0.2717
    117  NE2      -13.5320  -22.9720   16.1540 N.am  140  GLN140     -0.0878
    118  N        -15.0490  -18.8220   21.9030 N.3   143  THR143     -0.1203
    119  CA       -15.1510  -20.1120   22.5810 C.3   143  THR143      0.1994
    120  C        -15.0230  -19.8730   24.0690 C.2   143  THR143      0.2619
    121  O        -14.6480  -18.7770   24.4860 O.2   143  THR143     -0.2717
    122  CB       -14.1010  -21.1550   22.0950 C.3   143  THR143      0.1784
    123  OG1      -12.7740  -20.6700   22.3290 O.3   143  THR143     -0.2211
    124  CG2      -14.2980  -21.5990   20.6350 C.3   143  THR143      0.0376
    125  N        -15.3060  -20.9120   24.8670 N.am  144  THR144     -0.1938
    126  CA       -15.1230  -20.8970   26.3200 C.3   144  THR144      0.2028
    127  C        -13.6150  -20.7250   26.6100 C.2   144  THR144      0.2642
    128  O        -13.2620  -20.0820   27.5930 O.2   144  THR144     -0.2714
    129  CB       -15.6890  -22.1650   26.9480 C.3   144  THR144      0.1808
    130  OG1      -15.0570  -23.3000   26.3590 O.3   144  THR144     -0.2208
    131  CG2      -17.1860  -22.2660   26.7730 C.3   144  THR144      0.0379
    132  N        -12.7370  -21.2630   25.7290 N.am  145  ALA145     -0.1977
    133  CA       -11.2820  -21.1050   25.8700 C.3   145  ALA145      0.1597
    134  C        -10.8830  -19.6520   25.6820 C.2   145  ALA145      0.2287
    135  O        -10.1120  -19.1620   26.4990 O.2   145  ALA145     -0.2864
    136  CB       -10.5150  -22.0240   24.9130 C.3   145  ALA145      0.0319
    137  N         -9.5230  -24.6320   15.2340 N.3   165  VAL165     -0.1245
    138  CA        -8.5090  -25.3290   16.0240 C.3   165  VAL165      0.1561
    139  C         -7.3340  -25.6850   15.1150 C.2   165  VAL165      0.2260
    140  O         -6.1860  -25.4620   15.4930 O.2   165  VAL165     -0.2867
    141  CB        -9.1030  -26.5720   16.7260 C.3   165  VAL165      0.0252
    142  CG1       -8.0080  -27.5300   17.2060 C.3   165  VAL165      0.0019
    143  CG2       -9.9980  -26.1590   17.8910 C.3   165  VAL165      0.0019
    144  N        -10.0050  -27.6270   24.2140 N.3   183  ASN183     -0.1240
    145  CA       -10.5240  -28.8530   24.7970 C.3   183  ASN183      0.1653
    146  C         -9.4240  -29.9290   24.7510 C.2   183  ASN183      0.2266
    147  O         -8.7630  -30.0900   23.7270 O.2   183  ASN183     -0.2867
    148  CB       -11.7910  -29.2730   24.0330 C.3   183  ASN183      0.1155
    149  CG       -12.4620  -30.4680   24.6120 C.2   183  ASN183      0.2627
    150  OD1      -12.0440  -31.5880   24.3780 O.2   183  ASN183     -0.2716
    151  ND2      -13.5070  -30.2560   25.3880 N.am  183  ASN183     -0.0877
    152  N        -16.0630  -23.1650   30.9760 N.3   211  PHE211     -0.1241
    153  CA       -16.1600  -24.3440   30.1230 C.3   211  PHE211      0.1605
    154  C        -17.5300  -24.9700   30.1550 C.2   211  PHE211      0.2264
    155  O        -18.0400  -25.3410   29.1070 O.2   211  PHE211     -0.2867
    156  CB       -15.0360  -25.3460   30.4300 C.3   211  PHE211      0.0534
    157  CG       -13.6960  -24.6580   30.3530 C.ar  211  PHE211     -0.0203
    158  CD1      -13.2520  -24.0990   29.1530 C.ar  211  PHE211     -0.0042
    159  CD2      -12.9160  -24.4930   31.4950 C.ar  211  PHE211     -0.0042
    160  CE1      -12.0520  -23.4020   29.0950 C.ar  211  PHE211     -0.0003
    161  CE2      -11.7000  -23.8150   31.4310 C.ar  211  PHE211     -0.0003
    162  CZ       -11.2720  -23.2870   30.2270 C.ar  211  PHE211     -0.0000
    163  N        -21.9120  -29.1370   27.6840 N.3   214  VAL214     -0.1245
    164  CA       -22.2580  -29.1740   26.2660 C.3   214  VAL214      0.1561
    165  C        -23.6980  -29.6280   26.0790 C.2   214  VAL214      0.2260
    166  O        -24.1100  -30.6450   26.6350 O.2   214  VAL214     -0.2867
    167  CB       -21.2610  -30.0770   25.5050 C.3   214  VAL214      0.0252
    168  CG1      -21.6460  -30.2500   24.0340 C.3   214  VAL214      0.0019
    169  CG2      -19.8590  -29.5200   25.6260 C.3   214  VAL214      0.0019
@<TRIPOS>BOND
     1     4     3    2
     2     3     2    1
     3     2     1    1
     4     2     5    1
     5    10    11    1
     6    48    49    1
     7    11    12    1
     8     6     5    1
     9     6     7    1
    10    49    50    1
    11    49    52    1
    12    50    51    2
    13     7     8   ar
    14     7     9   ar
    15    42    43    2
    16    42    41    1
    17    12    13    2
    18    12    14   am
    19    46    45    2
    20    52    53    1
    21    14    15    1
    22    44    41    1
    23    44    45    1
    24    41    40    1
    25   139   140    2
    26   139   138    1
    27   137   138    1
    28    45    47   am
    29   138   141    1
    30   117   115   am
    31    53    54   ar
    32    53    55   ar
    33    15    16    1
    34    15    18    1
    35    40    28   am
    36    66    63    1
    37    16    17    2
    38   141   142    1
    39   141   143    1
    40    54    56   ar
    41    18    19    1
    42    58    55   ar
    43    58    60   ar
    44    55    57   ar
    45    29    28    2
    46   115   114    1
    47   115   116    2
    48    28    27    1
    49   114   113    1
    50    63    62    1
    51    63    64    1
    52    56    57   ar
    53    60    61   ar
    54    19    20   ar
    55    19    21   ar
    56    57    59   ar
    57   113   110    1
    58    26    27    1
    59    20    22   ar
    60    27    30    1
    61   110   111    1
    62   110   109    1
    63    65    64    2
    64    64    67   am
    65   111   112    2
    66    79    78    1
    67    30    31    1
    68    21    23   ar
    69    61    59   ar
    70    22    24   ar
    71    67    68    1
    72    78    77    1
    73   124   122    1
    74    23    24   ar
    75    31    32   ar
    76    31    33   ar
    77    24    25    1
    78    71    68    1
    79    32    34   ar
    80    68    69    1
    81    76    77    1
    82    76    73    1
    83    72    69   am
    84    72    73    1
    85    69    70    2
    86   118   119    1
    87    33    36   ar
    88    33    35   ar
    89   122   123    1
    90   122   119    1
    91    73    74    1
    92    36    38   ar
    93    34    35   ar
    94   119   120    1
    95    95    94    1
    96    35    37   ar
    97    93    94    2
    98    93    92    1
    99    94    96    1
   100    38    39   ar
   101    74    75    2
   102    74    80   am
   103    92    91    1
   104    91    90    1
   105   147   146    2
   106    89    88    2
   107   148   149    1
   108   148   145    1
   109   168   167    1
   110   120   121    2
   111   120   125   am
   112   144   145    1
   113    90    87    1
   114   150   149    2
   115    37    39   ar
   116    80    81    1
   117    87    88    1
   118    87    86    1
   119   149   151   am
   120   146   145    1
   121   125   126    1
   122   136   133    1
   123    83    82    2
   124   167   169    1
   125   167   164    1
   126   134   133    1
   127   134   135    2
   128   132   133    1
   129   132   127   am
   130    81    82    1
   131    81    84    1
   132   165   164    1
   133   165   166    2
   134   164   163    1
   135   126   127    1
   136   126   129    1
   137   130   129    1
   138    85    84    1
   139   108   106   am
   140   127   128    2
   141   131   129    1
   142   106   107    2
   143   106   105    1
   144    98    97    1
   145    98    99    1
   146   105   102    1
   147   102   103    1
   148   102   101    1
   149   160   158   ar
   150   160   162   ar
   151   155   154    2
   152   158   157   ar
   153   103   104    2
   154    99   100    2
   155   153   154    1
   156   153   156    1
   157   153   152    1
   158   162   161   ar
   159   157   156    1
   160   157   159   ar
   161   161   159   ar
