@<TRIPOS>MOLECULE
tmp/5orkB01.pdb
 154 148 0 0 0
SMALL
GASTEIGER

@<TRIPOS>ATOM
      1  N         66.8010  133.7640  357.9030 N.3   115  ASN115     -0.1225
      2  CA        67.1730  134.4120  356.6420 C.3   115  ASN115      0.1785
      3  C         66.2340  134.1280  355.4720 C.2   115  ASN115      0.2597
      4  O         65.9610  132.9690  355.1410 O.2   115  ASN115     -0.2718
      5  CB        68.6300  134.0930  356.2520 C.3   115  ASN115      0.1169
      6  CG        69.1200  134.7690  354.9880 C.2   115  ASN115      0.2627
      7  OD1       69.7480  134.1370  354.1340 O.2   115  ASN115     -0.2716
      8  ND2       68.8880  136.0770  354.8500 N.am  115  ASN115     -0.0877
      9  N         65.7780  135.2130  354.8290 N.am  116  THR116     -0.1953
     10  CA        64.9000  135.1630  353.6630 C.3   116  THR116      0.1897
     11  C         65.7790  134.9230  352.4340 C.2   116  THR116      0.2313
     12  O         66.8380  135.5460  352.3100 O.2   116  THR116     -0.2863
     13  CB        64.0350  136.4250  353.5870 C.3   116  THR116      0.1794
     14  OG1       63.3810  136.6330  354.8430 O.3   116  THR116     -0.2208
     15  CG2       62.9900  136.3550  352.4750 C.3   116  THR116      0.0378
     16  N         67.6430  135.0030  349.0200 N.3   118  PHE118     -0.1241
     17  CA        68.1320  136.0850  348.1630 C.3   118  PHE118      0.1605
     18  C         67.2080  136.2450  346.9480 C.2   118  PHE118      0.2264
     19  O         66.7350  137.3570  346.7050 O.2   118  PHE118     -0.2867
     20  CB        69.5940  135.8050  347.7330 C.3   118  PHE118      0.0534
     21  CG        70.3980  136.8990  347.0480 C.ar  118  PHE118     -0.0203
     22  CD1       69.8810  138.1810  346.8890 C.ar  118  PHE118     -0.0042
     23  CD2       71.6800  136.6470  346.5760 C.ar  118  PHE118     -0.0042
     24  CE1       70.6170  139.1760  346.2390 C.ar  118  PHE118     -0.0003
     25  CE2       72.4160  137.6460  345.9260 C.ar  118  PHE118     -0.0003
     26  CZ        71.8780  138.9000  345.7580 C.ar  118  PHE118     -0.0000
     27  N         63.7020  137.4770  348.0370 N.3   121  LEU121     -0.1231
     28  CA        63.7920  138.8810  348.4430 C.3   121  LEU121      0.1693
     29  C         63.8870  139.7860  347.2080 C.2   121  LEU121      0.2592
     30  O         63.1420  140.7610  347.0970 O.2   121  LEU121     -0.2718
     31  CB        64.9920  139.0690  349.3930 C.3   121  LEU121      0.0284
     32  CG        64.8620  140.0940  350.5240 C.3   121  LEU121      0.0019
     33  CD1       63.6970  139.8000  351.4320 C.3   121  LEU121      0.0001
     34  CD2       66.1030  140.1200  351.3670 C.3   121  LEU121      0.0001
     35  N         64.7490  139.4000  346.2530 N.am  122  TYR122     -0.1976
     36  CA        65.0070  140.0290  344.9500 C.3   122  TYR122      0.1639
     37  C         63.7200  140.2250  344.1320 C.2   122  TYR122      0.2290
     38  O         63.6450  141.1540  343.3300 O.2   122  TYR122     -0.2864
     39  CB        65.9560  139.1070  344.1850 C.3   122  TYR122      0.0560
     40  CG        66.5530  139.6490  342.9120 C.ar  122  TYR122     -0.0198
     41  CD1       67.6850  140.4590  342.9410 C.ar  122  TYR122     -0.0009
     42  CD2       66.0740  139.2410  341.6690 C.ar  122  TYR122     -0.0009
     43  CE1       68.2840  140.9070  341.7640 C.ar  122  TYR122      0.0417
     44  CE2       66.6580  139.6850  340.4870 C.ar  122  TYR122      0.0417
     45  CZ        67.7710  140.5090  340.5400 C.ar  122  TYR122      0.1957
     46  OH        68.3770  140.9000  339.3770 O.3   122  TYR122     -0.2866
     47  N         61.2180  142.8930  346.8700 N.3   125  LEU125     -0.1245
     48  CA        61.6480  144.1820  347.4100 C.3   125  LEU125      0.1561
     49  C         61.1150  145.3690  346.6060 C.2   125  LEU125      0.2260
     50  O         61.1210  145.3600  345.3850 O.2   125  LEU125     -0.2867
     51  CB        63.1720  144.2930  347.6300 C.3   125  LEU125      0.0270
     52  CG        63.8230  143.4960  348.7940 C.3   125  LEU125      0.0019
     53  CD1       65.0320  144.2010  349.3010 C.3   125  LEU125      0.0001
     54  CD2       62.8780  143.2990  350.0010 C.3   125  LEU125      0.0001
     55  N         64.3160  148.6780  349.8960 N.3   130  ILE130     -0.1245
     56  CA        65.7410  148.8760  349.5650 C.3   130  ILE130      0.1561
     57  C         66.3130  150.0250  350.3700 C.2   130  ILE130      0.2260
     58  O         67.3450  149.8290  351.0110 O.2   130  ILE130     -0.2867
     59  CB        65.9870  148.9890  348.0450 C.3   130  ILE130      0.0252
     60  CG1       65.5590  147.6820  347.3400 C.3   130  ILE130      0.0019
     61  CG2       67.4620  149.3470  347.7200 C.3   130  ILE130      0.0019
     62  CD1       65.3670  147.8480  345.8150 C.3   130  ILE130      0.0001
     63  N         66.4520  148.7990  354.1410 N.3   133  TYR133     -0.1227
     64  CA        67.5570  147.8740  354.4410 C.3   133  TYR133      0.1736
     65  C         68.9420  148.4950  354.1900 C.2   133  TYR133      0.2595
     66  O         69.8620  148.1720  354.9260 O.2   133  TYR133     -0.2718
     67  CB        67.3980  146.5320  353.7330 C.3   133  TYR133      0.0548
     68  CG        66.2780  145.6840  354.2920 C.ar  133  TYR133     -0.0200
     69  CD1       66.2730  145.2920  355.6300 C.ar  133  TYR133     -0.0009
     70  CD2       65.2220  145.2670  353.4850 C.ar  133  TYR133     -0.0009
     71  CE1       65.2360  144.5190  356.1580 C.ar  133  TYR133      0.0417
     72  CE2       64.1930  144.4700  353.9960 C.ar  133  TYR133      0.0417
     73  CZ        64.2040  144.1040  355.3350 C.ar  133  TYR133      0.1957
     74  OH        63.2270  143.2830  355.8470 O.3   133  TYR133     -0.2866
     75  N         69.0800  149.3810  353.1630 N.am  134  MET134     -0.1979
     76  CA        70.3070  150.1350  352.9050 C.3   134  MET134      0.1605
     77  C         70.7050  150.9490  354.1530 C.2   134  MET134      0.2287
     78  O         71.8870  150.9750  354.5150 O.2   134  MET134     -0.2864
     79  CB        70.1660  151.0550  351.6560 C.3   134  MET134      0.0413
     80  CG        70.4040  150.3100  350.3270 C.3   134  MET134      0.0598
     81  SD        72.0890  149.5960  350.1450 S.3   134  MET134     -0.1393
     82  CE        73.0490  151.2130  350.1480 C.3   134  MET134      0.0692
     83  N         72.0330  148.6710  357.0730 N.3   137  ILE137     -0.1245
     84  CA        73.4290  148.2640  356.7960 C.3   137  ILE137      0.1561
     85  C         74.3800  149.4360  357.1720 C.2   137  ILE137      0.2260
     86  O         75.4520  149.1930  357.7170 O.2   137  ILE137     -0.2867
     87  CB        73.6150  147.7920  355.3100 C.3   137  ILE137      0.0252
     88  CG1       72.7670  146.5140  355.0200 C.3   137  ILE137      0.0019
     89  CG2       75.0830  147.5050  354.9960 C.3   137  ILE137      0.0019
     90  CD1       72.6200  146.1520  353.4860 C.3   137  ILE137      0.0001
     91  N         75.7040  140.6130  349.6210 N.3   156  PRO156     -0.2102
     92  CA        74.3780  140.1430  350.0790 C.3   156  PRO156      0.1504
     93  C         74.3930  138.8530  350.8930 C.2   156  PRO156      0.2575
     94  O         73.6040  138.7620  351.8020 O.2   156  PRO156     -0.2718
     95  CB        73.5680  140.0140  348.7790 C.3   156  PRO156      0.0282
     96  CG        74.2660  140.9440  347.8060 C.3   156  PRO156      0.0208
     97  CD        75.7260  140.8130  348.1550 C.3   156  PRO156      0.0893
     98  N         75.3050  137.9110  350.6350 N.am  157  HIS157     -0.1976
     99  CA        75.4010  136.6680  351.4010 C.3   157  HIS157      0.1656
    100  C         75.8620  136.8560  352.8490 C.2   157  HIS157      0.2291
    101  O         75.6550  135.9650  353.6640 O.2   157  HIS157     -0.2864
    102  CB        76.2880  135.6460  350.6760 C.3   157  HIS157      0.0771
    103  CG        75.5910  134.9410  349.5500 C.ar  157  HIS157      0.0820
    104  ND1       76.3050  134.3830  348.4940 N.ar  157  HIS157     -0.2267
    105  CD2       74.2610  134.7310  349.3450 C.ar  157  HIS157      0.1154
    106  CE1       75.3940  133.8740  347.6770 C.ar  157  HIS157      0.1986
    107  NE2       74.1450  134.0610  348.1460 N.ar  157  HIS157     -0.2212
    108  N         74.8130  139.4450  354.6330 N.3   159  VAL159     -0.1231
    109  CA        73.7580  140.2650  355.2030 C.3   159  VAL159      0.1692
    110  C         72.4990  139.3940  355.3790 C.2   159  VAL159      0.2592
    111  O         71.8450  139.0510  354.3830 O.2   159  VAL159     -0.2718
    112  CB        73.4920  141.5610  354.4050 C.3   159  VAL159      0.0266
    113  CG1       72.3700  142.3680  355.0400 C.3   159  VAL159      0.0020
    114  CG2       74.7590  142.4280  354.3090 C.3   159  VAL159      0.0020
    115  N         72.1980  139.0100  356.6530 N.am  160  MET160     -0.1965
    116  CA        71.0100  138.2200  356.9970 C.3   160  MET160      0.1736
    117  C         69.8220  139.1340  357.1480 C.2   160  MET160      0.2616
    118  O         69.8790  140.1060  357.9050 O.2   160  MET160     -0.2715
    119  CB        71.1940  137.3550  358.2570 C.3   160  MET160      0.0427
    120  CG        72.3460  136.3730  358.1860 C.3   160  MET160      0.0599
    121  SD        72.1570  134.9610  357.0870 S.3   160  MET160     -0.1393
    122  CE        72.7650  135.5530  355.5560 C.3   160  MET160      0.0692
    123  N         68.7640  138.8640  356.3760 N.am  161  ILE161     -0.1977
    124  CA        67.5160  139.6340  356.4470 C.3   161  ILE161      0.1596
    125  C         66.3290  138.6970  356.7690 C.2   161  ILE161      0.2287
    126  O         66.0700  137.7340  356.0330 O.2   161  ILE161     -0.2864
    127  CB        67.2630  140.4870  355.1650 C.3   161  ILE161      0.0276
    128  CG1       68.3530  141.6110  355.0110 C.3   161  ILE161      0.0022
    129  CG2       65.8330  141.0570  355.1960 C.3   161  ILE161      0.0022
    130  CD1       68.3060  142.4020  353.7430 C.3   161  ILE161      0.0001
    131  N         76.2300  146.4980  345.9340 N.3   218  MET218     -0.1230
    132  CA        74.9840  145.8750  346.4060 C.3   218  MET218      0.1702
    133  C         73.7800  146.7230  346.0100 C.2   218  MET218      0.2592
    134  O         72.8030  146.1670  345.5440 O.2   218  MET218     -0.2718
    135  CB        74.9820  145.7110  347.9280 C.3   218  MET218      0.0401
    136  CG        75.9130  144.6040  348.4220 C.3   218  MET218      0.0596
    137  SD        75.7660  144.3650  350.2160 S.3   218  MET218     -0.1393
    138  CE        74.0820  143.9800  350.3730 C.3   218  MET218      0.0692
    139  N         73.8610  148.0520  346.2160 N.am  219  LEU219     -0.1980
    140  CA        72.8140  149.0050  345.8380 C.3   219  LEU219      0.1596
    141  C         72.5650  148.9880  344.3280 C.2   219  LEU219      0.2287
    142  O         71.3960  148.9720  343.9040 O.2   219  LEU219     -0.2864
    143  CB        73.1570  150.4430  346.2970 C.3   219  LEU219      0.0297
    144  CG        72.1310  151.5420  345.9330 C.3   219  LEU219      0.0022
    145  CD1       70.8100  151.3690  346.6910 C.3   219  LEU219      0.0001
    146  CD2       72.6870  152.9100  346.1770 C.3   219  LEU219      0.0001
    147  N         70.6660  145.8040  343.2600 N.3   222  MET222     -0.1245
    148  CA        69.2670  145.8010  343.6730 C.3   222  MET222      0.1570
    149  C         68.3940  146.7430  342.8910 C.2   222  MET222      0.2261
    150  O         67.3300  146.3360  342.4180 O.2   222  MET222     -0.2867
    151  CB        69.1480  146.0950  345.1780 C.3   222  MET222      0.0387
    152  CG        69.6450  144.9670  346.0300 C.3   222  MET222      0.0595
    153  SD        68.7900  143.3920  345.7150 S.3   222  MET222     -0.1393
    154  CE        67.0180  143.8690  346.1250 C.3   222  MET222      0.0692
@<TRIPOS>BOND
     1    46    45    1
     2    44    45   ar
     3    44    42   ar
     4    45    43   ar
     5    42    40   ar
     6    43    41   ar
     7   150   149    2
     8   149   148    1
     9    40    41   ar
    10    40    39    1
    11   147   148    1
    12    38    37    2
    13   148   151    1
    14   142   141    2
    15    37    36    1
    16    39    36    1
    17   141   140    1
    18    36    35    1
    19   151   152    1
    20    50    49    2
    21   134   133    2
    22   153   152    1
    23   153   154    1
    24    26    25   ar
    25    26    24   ar
    26    62    60    1
    27   140   139    1
    28   140   143    1
    29    25    23   ar
    30   144   146    1
    31   144   143    1
    32   144   145    1
    33   131   132    1
    34   133   139   am
    35   133   132    1
    36    24    22   ar
    37    35    29   am
    38   132   135    1
    39    23    21   ar
    40    49    48    1
    41    19    18    2
    42    47    48    1
    43    22    21   ar
    44    18    17    1
    45    21    20    1
    46    30    29    2
    47    29    28    1
    48    60    59    1
    49    48    51    1
    50    51    52    1
    51   106   107   ar
    52   106   104   ar
    53    61    59    1
    54    20    17    1
    55    96    97    1
    56    96    95    1
    57   135   136    1
    58    27    28    1
    59    59    56    1
    60   107   105   ar
    61    97    91    1
    62    17    16    1
    63   136   137    1
    64    28    31    1
    65   104   103   ar
    66    95    92    1
    67    52    53    1
    68    52    54    1
    69   105   103   ar
    70    31    32    1
    71   103   102    1
    72    56    55    1
    73    56    57    1
    74    91    92    1
    75    92    93    1
    76    81    82    1
    77    81    80    1
    78   137   138    1
    79    80    79    1
    80    57    58    2
    81    32    34    1
    82    32    33    1
    83    98    93   am
    84    98    99    1
    85   102    99    1
    86    93    94    2
    87    99   100    1
    88    79    76    1
    89    12    11    2
    90    11    10    1
    91    15    13    1
    92   100   101    2
    93    76    75    1
    94    76    77    1
    95    75    65   am
    96    70    72   ar
    97    70    68   ar
    98    90    88    1
    99    13    10    1
   100    13    14    1
   101    10     9    1
   102    67    68    1
   103    67    64    1
   104   130   128    1
   105    72    73   ar
   106     7     6    2
   107    63    64    1
   108    77    78    2
   109    65    64    1
   110    65    66    2
   111    68    69   ar
   112   114   112    1
   113   111   110    2
   114   112   113    1
   115   112   109    1
   116   108   109    1
   117     9     3   am
   118     8     6   am
   119     6     5    1
   120    89    87    1
   121   128   127    1
   122    88    87    1
   123     4     3    2
   124   127   129    1
   125   127   124    1
   126   109   110    1
   127    87    84    1
   128    73    74    1
   129    73    71   ar
   130   110   115   am
   131     3     2    1
   132   122   121    1
   133    69    71   ar
   134   126   125    2
   135     5     2    1
   136   123   124    1
   137   123   117   am
   138   124   125    1
   139     2     1    1
   140   115   116    1
   141    84    83    1
   142    84    85    1
   143   116   117    1
   144   116   119    1
   145   121   120    1
   146   117   118    2
   147    85    86    2
   148   120   119    1
