@<TRIPOS>MOLECULE
tmp/5orlA01.pdb
 101 97 0 0 0
SMALL
GASTEIGER

@<TRIPOS>ATOM
      1  N        -17.0880   19.9250  -17.6880 N.3    54  ARG54      -0.1245
      2  CA       -17.8270   21.1640  -17.8690 C.3    54  ARG54       0.1563
      3  C        -16.8750   22.3480  -17.7040 C.2    54  ARG54       0.2260
      4  O        -16.9170   23.3030  -18.4820 O.2    54  ARG54      -0.2867
      5  CB       -18.9820   21.2290  -16.8630 C.3    54  ARG54       0.0307
      6  CG       -19.7820   22.5190  -16.8790 C.3    54  ARG54       0.0489
      7  CD       -20.4730   22.7010  -18.2360 C.3    54  ARG54       0.2205
      8  NE       -21.5060   23.7210  -18.1860 N.pl3  54  ARG54      -0.0865
      9  CZ       -22.3250   23.9830  -19.1920 C.cat  54  ARG54       0.5346
     10  NH1      -22.2380   23.2540  -20.3010 N.pl3  54  ARG54       0.1354
     11  NH2      -23.2290   24.9460  -19.0810 N.pl3  54  ARG54       0.1354
     12  N        -14.7480   22.5200  -20.8350 N.3    57  GLU57      -0.1231
     13  CA       -15.5950   22.9240  -21.9740 C.3    57  GLU57       0.1699
     14  C        -15.7840   24.4270  -22.0270 C.2    57  GLU57       0.2592
     15  O        -15.4150   25.0730  -23.0150 O.2    57  GLU57      -0.2718
     16  CB       -16.9740   22.2230  -21.8880 C.3    57  GLU57       0.0402
     17  CG       -18.0600   22.7030  -22.9050 C.3    57  GLU57       0.1161
     18  CD       -19.4720   22.1050  -22.6530 C.2    57  GLU57       0.3649
     19  OE1      -19.7110   21.4540  -21.6000 O.co2  57  GLU57      -0.2457
     20  OE2      -20.3560   22.2760  -23.5270 O.co2  57  GLU57      -0.2457
     21  N        -16.3160   24.9960  -20.9380 N.am   58  ILE58      -0.1980
     22  CA       -16.6220   26.4250  -20.8820 C.3    58  ILE58       0.1595
     23  C        -15.3540   27.2850  -20.9040 C.2    58  ILE58       0.2287
     24  O        -15.2030   28.1590  -21.7390 O.2    58  ILE58      -0.2864
     25  CB       -17.4240   26.8020  -19.6010 C.3    58  ILE58       0.0276
     26  CG1      -18.7250   25.9960  -19.4600 C.3    58  ILE58       0.0022
     27  CG2      -17.6840   28.3060  -19.5770 C.3    58  ILE58       0.0022
     28  CD1      -19.8070   26.3620  -20.4460 C.3    58  ILE58       0.0001
     29  N        -12.9080   27.7730  -24.0750 N.3    61  HIS61      -0.1226
     30  CA       -13.3790   28.4100  -25.3120 C.3    61  HIS61       0.1752
     31  C        -13.6150   29.9130  -25.2270 C.2    61  HIS61       0.2595
     32  O        -13.6380   30.6050  -26.2410 O.2    61  HIS61      -0.2718
     33  CB       -14.6410   27.6880  -25.7860 C.3    61  HIS61       0.0759
     34  CG       -14.3560   26.3260  -26.3600 C.ar   61  HIS61       0.0818
     35  ND1      -14.6150   25.1480  -25.6760 N.ar   61  HIS61      -0.2268
     36  CD2      -13.7920   25.9510  -27.5380 C.ar   61  HIS61       0.1154
     37  CE1      -14.2370   24.1190  -26.4110 C.ar   61  HIS61       0.1986
     38  NE2      -13.7380   24.5770  -27.5510 N.ar   61  HIS61      -0.2212
     39  N        -13.7510   30.4480  -24.0270 N.am   62  LEU62      -0.1980
     40  CA       -14.0990   31.8570  -23.8910 C.3    62  LEU62       0.1596
     41  C        -12.9110   32.7890  -23.9170 C.2    62  LEU62       0.2287
     42  O        -11.7760   32.3990  -23.6120 O.2    62  LEU62      -0.2864
     43  CB       -14.8760   32.0570  -22.5820 C.3    62  LEU62       0.0297
     44  CG       -16.3950   31.9980  -22.6460 C.3    62  LEU62       0.0022
     45  CD1      -16.9090   30.9800  -23.6350 C.3    62  LEU62       0.0001
     46  CD2      -16.9500   31.7060  -21.2590 C.3    62  LEU62       0.0001
     47  N        -23.0710   37.9150  -20.0930 N.3   120  TYR120     -0.1227
     48  CA       -22.5910   37.1440  -21.2380 C.3   120  TYR120      0.1736
     49  C        -23.0810   35.6720  -21.1310 C.2   120  TYR120      0.2595
     50  O        -23.6600   35.1260  -22.0870 O.2   120  TYR120     -0.2718
     51  CB       -21.0570   37.2340  -21.3350 C.3   120  TYR120      0.0548
     52  CG       -20.3950   36.4740  -22.4830 C.ar  120  TYR120     -0.0200
     53  CD1      -20.9220   36.5200  -23.7820 C.ar  120  TYR120     -0.0009
     54  CD2      -19.2080   35.7640  -22.2790 C.ar  120  TYR120     -0.0009
     55  CE1      -20.2940   35.8430  -24.8410 C.ar  120  TYR120      0.0417
     56  CE2      -18.5770   35.0870  -23.3220 C.ar  120  TYR120      0.0417
     57  CZ       -19.1200   35.1310  -24.6020 C.ar  120  TYR120      0.1957
     58  OH       -18.4770   34.4620  -25.6210 O.3   120  TYR120     -0.2866
     59  N        -22.8800   35.0350  -19.9710 N.am  121  CYS121     -0.1970
     60  CA       -23.3050   33.6430  -19.7880 C.3   121  CYS121      0.1712
     61  C        -24.8350   33.4650  -19.8690 C.2   121  CYS121      0.2296
     62  O        -25.3210   32.4690  -20.4080 O.2   121  CYS121     -0.2864
     63  CB       -22.8150   33.1060  -18.4420 C.3   121  CYS121      0.0983
     64  SG       -20.9940   32.9340  -18.4200 S.3   121  CYS121     -0.0798
     65  N        -26.5040   32.9480  -23.0650 N.3   124  LYS124     -0.1245
     66  CA       -26.3820   31.6060  -23.6280 C.3   124  LYS124      0.1561
     67  C        -27.1560   30.6110  -22.7540 C.2   124  LYS124      0.2260
     68  O        -27.0420   29.3980  -22.9380 O.2   124  LYS124     -0.2867
     69  CB       -24.9170   31.1530  -23.7220 C.3   124  LYS124      0.0271
     70  CG       -23.9690   32.0370  -24.5140 C.3   124  LYS124      0.0035
     71  CD       -24.1720   31.8590  -26.0200 C.3   124  LYS124      0.0206
     72  CE       -23.0300   32.5120  -26.8010 C.3   124  LYS124      0.1093
     73  NZ       -22.8900   33.9110  -26.3210 N.3   124  LYS124     -0.1314
     74  N        -26.5790   29.8910  -19.7380 N.3   126  VAL126     -0.1245
     75  CA       -25.6380   29.1810  -18.8490 C.3   126  VAL126      0.1561
     76  C        -25.7080   29.7990  -17.4580 C.2   126  VAL126      0.2260
     77  O        -25.5860   31.0110  -17.3430 O.2   126  VAL126     -0.2867
     78  CB       -24.1690   29.2620  -19.3760 C.3   126  VAL126      0.0252
     79  CG1      -23.1740   28.7210  -18.3480 C.3   126  VAL126      0.0019
     80  CG2      -24.0180   28.5130  -20.7240 C.3   126  VAL126      0.0019
     81  N        -16.0330   26.9490  -13.0970 N.3   149  PHE149     -0.1241
     82  CA       -17.3200   26.7610  -13.7820 C.3   149  PHE149      0.1605
     83  C        -17.8090   25.3100  -13.7190 C.2   149  PHE149      0.2264
     84  O        -18.7390   24.9290  -14.4580 O.2   149  PHE149     -0.2867
     85  CB       -17.1910   27.2410  -15.2640 C.3   149  PHE149      0.0534
     86  CG       -17.5020   28.7090  -15.4500 C.ar  149  PHE149     -0.0203
     87  CD1      -16.5900   29.6930  -15.0670 C.ar  149  PHE149     -0.0042
     88  CD2      -18.7240   29.1040  -15.9490 C.ar  149  PHE149     -0.0042
     89  CE1      -16.8870   31.0470  -15.2380 C.ar  149  PHE149     -0.0003
     90  CE2      -19.0360   30.4370  -16.1150 C.ar  149  PHE149     -0.0003
     91  CZ       -18.1190   31.4230  -15.7500 C.ar  149  PHE149     -0.0000
     92  N        -26.9340   24.2700  -18.2700 N.3   154  HIS154     -0.1241
     93  CA       -27.7580   25.1790  -19.0380 C.3   154  HIS154      0.1621
     94  C        -29.1660   25.1740  -18.4610 C.2   154  HIS154      0.2264
     95  O        -29.6430   24.1560  -17.9520 O.2   154  HIS154     -0.2867
     96  CB       -27.8470   24.9160  -20.5700 C.3   154  HIS154      0.0745
     97  CG       -26.5260   25.0040  -21.2930 C.ar  154  HIS154      0.0817
     98  ND1      -26.4240   25.3890  -22.6150 N.ar  154  HIS154     -0.2268
     99  CD2      -25.3220   24.4720  -20.9810 C.ar  154  HIS154      0.1154
    100  CE1      -25.1490   25.3070  -22.9930 C.ar  154  HIS154      0.1986
    101  NE2      -24.4780   24.7080  -22.0430 N.ar  154  HIS154     -0.2212
@<TRIPOS>BOND
     1    38    36   ar
     2    38    37   ar
     3    36    34   ar
     4    72    73    1
     5    72    71    1
     6    37    35   ar
     7    34    33    1
     8    34    35   ar
     9    32    31    2
    10    71    70    1
    11    33    30    1
    12    58    57    1
    13    30    31    1
    14    30    29    1
    15    31    39   am
    16    55    57   ar
    17    55    53   ar
    18    57    56   ar
    19    70    69    1
    20    39    40    1
    21    41    40    1
    22    41    42    2
    23    40    43    1
    24    53    52   ar
    25    69    66    1
    26    45    44    1
    27    66    65    1
    28    66    67    1
    29    20    18   ar
    30    56    54   ar
    31    15    14    2
    32   100    98   ar
    33   100   101   ar
    34    68    67    2
    35    17    18    1
    36    17    16    1
    37    18    19   ar
    38    44    43    1
    39    44    46    1
    40    98    97   ar
    41    52    54   ar
    42    52    51    1
    43    50    49    2
    44   101    99   ar
    45    14    13    1
    46    14    21   am
    47    13    16    1
    48    13    12    1
    49    24    23    2
    50    51    48    1
    51    97    99   ar
    52    97    96    1
    53    48    49    1
    54    48    47    1
    55    49    59   am
    56    21    22    1
    57    23    22    1
    58    22    25    1
    59    80    78    1
    60    96    93    1
    61    28    26    1
    62    62    61    2
    63    10     9    1
    64    59    60    1
    65    61    60    1
    66    60    63    1
    67    74    75    1
    68    25    27    1
    69    25    26    1
    70    78    75    1
    71    78    79    1
    72     9    11    1
    73     9     8    2
    74    93    94    1
    75    93    92    1
    76    75    76    1
    77     4     3    2
    78    94    95    2
    79    63    64    1
    80     7     8    1
    81     7     6    1
    82     2     3    1
    83     2     1    1
    84     2     5    1
    85    76    77    2
    86     6     5    1
    87    90    88   ar
    88    90    91   ar
    89    88    86   ar
    90    91    89   ar
    91    86    85    1
    92    86    87   ar
    93    85    82    1
    94    89    87   ar
    95    84    83    2
    96    82    83    1
    97    82    81    1
