@<TRIPOS>MOLECULE
tmp/5orrA01.pdb
 98 91 0 0 0
SMALL
GASTEIGER

@<TRIPOS>ATOM
      1  N         -7.7690   11.7050   -9.2940 N.3    40  LYS40      -0.1245
      2  CA        -8.7510   10.8490   -9.9520 C.3    40  LYS40       0.1561
      3  C         -9.4670    9.9580   -8.9620 C.2    40  LYS40       0.2260
      4  O        -10.6700    9.7150   -9.0820 O.2    40  LYS40      -0.2867
      5  CB        -8.0830    9.9880  -11.0230 C.3    40  LYS40       0.0271
      6  CG        -7.7200   10.7430  -12.2810 C.3    40  LYS40       0.0035
      7  CD        -7.0450    9.8320  -13.2870 C.3    40  LYS40       0.0206
      8  CE        -6.9260   10.5100  -14.6390 C.3    40  LYS40       0.1093
      9  NZ        -6.1850    9.6610  -15.6120 N.3    40  LYS40      -0.1314
     10  N        -12.0970   11.8700   -7.1450 N.3    43  LEU43      -0.1231
     11  CA       -13.0850   12.2880   -8.1380 C.3    43  LEU43       0.1693
     12  C        -14.0370   11.1530   -8.4760 C.2    43  LEU43       0.2591
     13  O        -15.2400   11.3670   -8.6200 O.2    43  LEU43      -0.2718
     14  CB       -12.4190   12.7930   -9.4300 C.3    43  LEU43       0.0284
     15  CG       -11.7420   14.1710   -9.4920 C.3    43  LEU43       0.0019
     16  CD1      -10.9310   14.3390  -10.7770 C.3    43  LEU43       0.0001
     17  CD2      -12.7610   15.3000   -9.3670 C.3    43  LEU43       0.0001
     18  N        -13.4850    9.9520   -8.6180 N.am   44  GLU44      -0.1979
     19  CA       -14.2830    8.7560   -8.8590 C.3    44  GLU44       0.1602
     20  C        -15.1670    8.4350   -7.6610 C.2    44  GLU44       0.2287
     21  O        -16.3360    8.0830   -7.8190 O.2    44  GLU44      -0.2864
     22  CB       -13.3810    7.5590   -9.1650 C.3    44  GLU44       0.0415
     23  CG       -12.6240    7.6510  -10.4770 C.3    44  GLU44       0.1163
     24  CD       -11.7440    6.4400  -10.7180 C.2    44  GLU44       0.3649
     25  OE1      -12.2810    5.3130  -10.7690 O.co2  44  GLU44      -0.2457
     26  OE2      -10.5140    6.6140  -10.8520 O.co2  44  GLU44      -0.2457
     27  N        -17.1130   13.2550  -12.0410 N.3    49  GLU49      -0.1245
     28  CA       -16.3800   13.3740  -13.2980 C.3    49  GLU49       0.1567
     29  C        -17.0970   14.3240  -14.2520 C.2    49  GLU49       0.2260
     30  O        -16.4610   15.0760  -14.9910 O.2    49  GLU49      -0.2867
     31  CB       -16.2050   12.0060  -13.9640 C.3    49  GLU49       0.0388
     32  CG       -15.4640   10.9770  -13.1290 C.3    49  GLU49       0.1160
     33  CD       -16.3900    9.9350  -12.5370 C.2    49  GLU49       0.3649
     34  OE1      -17.4990   10.3030  -12.0950 O.co2  49  GLU49      -0.2457
     35  OE2      -16.0110    8.7450  -12.5200 O.co2  49  GLU49      -0.2457
     36  N        -16.3490   18.0270  -13.6970 N.3    52  LEU52      -0.1231
     37  CA       -15.0440   18.4590  -14.1850 C.3    52  LEU52       0.1693
     38  C        -15.0680   18.7150  -15.6890 C.2    52  LEU52       0.2591
     39  O        -14.4760   19.6820  -16.1700 O.2    52  LEU52      -0.2718
     40  CB       -13.9730   17.4210  -13.8420 C.3    52  LEU52       0.0284
     41  CG       -12.5260   17.8670  -14.0690 C.3    52  LEU52       0.0019
     42  CD1      -12.2670   19.2010  -13.3880 C.3    52  LEU52       0.0001
     43  CD2      -11.5500   16.8160  -13.5650 C.3    52  LEU52       0.0001
     44  N        -15.7540   17.8480  -16.4290 N.am   53  ARG53      -0.1980
     45  CA       -15.8690   18.0090  -17.8750 C.3    53  ARG53       0.1597
     46  C        -16.6640   19.2560  -18.2300 C.2    53  ARG53       0.2287
     47  O        -16.3300   19.9670  -19.1770 O.2    53  ARG53      -0.2864
     48  CB       -16.5230   16.7820  -18.5080 C.3    53  ARG53       0.0334
     49  CG       -15.6660   15.5360  -18.4680 C.3    53  ARG53       0.0492
     50  CD       -16.1020   14.5410  -19.5270 C.3    53  ARG53       0.2205
     51  NE       -15.3520   13.2940  -19.4300 N.pl3  53  ARG53      -0.0865
     52  CZ       -15.6530   12.3070  -18.5940 C.cat  53  ARG53       0.5346
     53  NH1      -16.6960   12.4170  -17.7810 N.pl3  53  ARG53       0.1354
     54  NH2      -14.9130   11.2080  -18.5710 N.pl3  53  ARG53       0.1354
     55  N        -14.4180   22.2370  -17.7010 N.3    56  VAL56      -0.1245
     56  CA       -13.4590   22.3940  -18.7900 C.3    56  VAL56       0.1561
     57  C        -14.1220   22.9330  -20.0560 C.2    56  VAL56       0.2260
     58  O        -13.6130   23.8580  -20.6860 O.2    56  VAL56      -0.2867
     59  CB       -12.7560   21.0570  -19.1140 C.3    56  VAL56       0.0252
     60  CG1      -12.0000   21.1480  -20.4320 C.3    56  VAL56       0.0019
     61  CG2      -11.8210   20.6600  -17.9840 C.3    56  VAL56       0.0019
     62  N         -5.9620   21.2970  -20.6330 N.3    73  TYR73      -0.1241
     63  CA        -5.9180   20.2780  -19.6020 C.3    73  TYR73       0.1605
     64  C         -5.0850   19.0780  -20.0200 C.2    73  TYR73       0.2264
     65  O         -4.8690   18.8370  -21.2110 O.2    73  TYR73      -0.2867
     66  CB        -7.3320   19.8140  -19.2460 C.3    73  TYR73       0.0534
     67  CG        -7.9670   18.8970  -20.2720 C.ar   73  TYR73      -0.0201
     68  CD1       -8.6540   19.4170  -21.3600 C.ar   73  TYR73      -0.0009
     69  CD2       -7.8900   17.5140  -20.1450 C.ar   73  TYR73      -0.0009
     70  CE1       -9.2380   18.5870  -22.2990 C.ar   73  TYR73       0.0417
     71  CE2       -8.4700   16.6760  -21.0810 C.ar   73  TYR73       0.0417
     72  CZ        -9.1450   17.2190  -22.1550 C.ar   73  TYR73       0.1957
     73  OH        -9.7270   16.3910  -23.0880 O.3    73  TYR73      -0.2866
     74  N         -3.6790   14.9020  -18.1670 N.3    75  HIS75      -0.1241
     75  CA        -4.0100   13.8970  -17.1800 C.3    75  HIS75       0.1621
     76  C         -3.0690   12.6880  -17.2200 C.2    75  HIS75       0.2264
     77  O         -2.6330   12.2790  -18.3010 O.2    75  HIS75      -0.2867
     78  CB        -5.4430   13.4480  -17.4220 C.3    75  HIS75       0.0745
     79  CG        -5.5820   12.3820  -18.4700 C.ar   75  HIS75       0.0817
     80  ND1       -4.8370   12.3690  -19.6240 N.ar   75  HIS75      -0.2268
     81  CD2       -6.4440   11.3410  -18.5600 C.ar   75  HIS75       0.1154
     82  CE1       -5.2030   11.3340  -20.3650 C.ar   75  HIS75       0.1986
     83  NE2       -6.1710   10.6960  -19.7400 N.ar   75  HIS75      -0.2212
     84  N         -5.5460   14.8420  -12.5970 N.3    80  VAL80      -0.1245
     85  CA        -6.0260   15.6670  -13.7020 C.3    80  VAL80       0.1561
     86  C         -5.5830   17.1130  -13.4780 C.2    80  VAL80       0.2260
     87  O         -5.6810   17.6330  -12.3670 O.2    80  VAL80      -0.2867
     88  CB        -7.5610   15.6040  -13.8400 C.3    80  VAL80       0.0252
     89  CG1       -8.0310   16.4660  -15.0030 C.3    80  VAL80       0.0019
     90  CG2       -8.0190   14.1630  -14.0230 C.3    80  VAL80       0.0019
     91  N         -5.7140   21.1950  -14.6680 N.3    82  LEU82      -0.1245
     92  CA        -6.3140   22.2940  -15.4200 C.3    82  LEU82       0.1561
     93  C         -5.3500   23.4760  -15.4960 C.2    82  LEU82       0.2260
     94  O         -4.8570   23.9510  -14.4730 O.2    82  LEU82      -0.2867
     95  CB        -7.6380   22.7350  -14.7890 C.3    82  LEU82       0.0270
     96  CG        -8.7260   21.6830  -14.5550 C.3    82  LEU82       0.0019
     97  CD1      -10.0520   22.3580  -14.2300 C.3    82  LEU82       0.0001
     98  CD2       -8.8670   20.7600  -15.7540 C.3    82  LEU82       0.0001
@<TRIPOS>BOND
     1    73    72    1
     2    70    72   ar
     3    70    68   ar
     4    72    71   ar
     5    68    67   ar
     6    65    64    2
     7    71    69   ar
     8    58    57    2
     9    62    63    1
    10    60    59    1
    11    82    83   ar
    12    82    80   ar
    13    67    69   ar
    14    67    66    1
    15    57    56    1
    16    64    63    1
    17    83    81   ar
    18    80    79   ar
    19    63    66    1
    20    50    51    1
    21    50    49    1
    22    51    52    2
    23    47    46    2
    24    59    56    1
    25    59    61    1
    26    56    55    1
    27    52    54    1
    28    52    53    1
    29    81    79   ar
    30    48    49    1
    31    48    45    1
    32    79    78    1
    33    77    76    2
    34    46    45    1
    35    74    75    1
    36    45    44    1
    37    78    75    1
    38    76    75    1
    39    44    38   am
    40    39    38    2
    41    98    96    1
    42    38    37    1
    43     9     8    1
    44    93    92    1
    45    93    94    2
    46    92    95    1
    47    92    91    1
    48    89    88    1
    49    30    29    2
    50    95    96    1
    51     8     7    1
    52    96    97    1
    53    29    28    1
    54    37    40    1
    55    37    36    1
    56    41    40    1
    57    41    43    1
    58    41    42    1
    59    90    88    1
    60    31    28    1
    61    31    32    1
    62    88    85    1
    63    85    86    1
    64    85    84    1
    65    86    87    2
    66    28    27    1
    67     7     6    1
    68    32    33    1
    69    33    35   ar
    70    33    34   ar
    71     6     5    1
    72     5     2    1
    73    26    24   ar
    74    16    15    1
    75    25    24   ar
    76    24    23    1
    77    23    22    1
    78     2     1    1
    79     2     3    1
    80    15    14    1
    81    15    17    1
    82    14    11    1
    83    22    19    1
    84     4     3    2
    85    19    18    1
    86    19    20    1
    87    13    12    2
    88    18    12   am
    89    12    11    1
    90    11    10    1
    91    21    20    2
