@<TRIPOS>MOLECULE
tmp/5orsA01.pdb
 99 93 0 0 0
SMALL
GASTEIGER

@<TRIPOS>ATOM
      1  N         -7.5880   11.7810   -8.9930 N.3    40  LYS40      -0.1245
      2  CA        -8.5830   10.9450   -9.6860 C.3    40  LYS40       0.1561
      3  C         -9.3870   10.0930   -8.7140 C.2    40  LYS40       0.2260
      4  O        -10.6080    9.9730   -8.8540 O.2    40  LYS40      -0.2867
      5  CB        -7.8970   10.0530  -10.7300 C.3    40  LYS40       0.0271
      6  CG        -7.4410   10.8090  -11.9940 C.3    40  LYS40       0.0035
      7  CD        -6.7260    9.8810  -12.9790 C.3    40  LYS40       0.0206
      8  CE        -6.4340   10.5880  -14.2890 C.3    40  LYS40       0.1093
      9  NZ        -5.9180    9.6530  -15.3280 N.3    40  LYS40      -0.1314
     10  N        -12.0160   12.2260   -7.2440 N.3    43  LEU43      -0.1231
     11  CA       -13.0470   12.5770   -8.2260 C.3    43  LEU43       0.1693
     12  C        -14.0150   11.4140   -8.4860 C.2    43  LEU43       0.2591
     13  O        -15.2400   11.5930   -8.5250 O.2    43  LEU43      -0.2718
     14  CB       -12.4020   13.0120   -9.5430 C.3    43  LEU43       0.0284
     15  CG       -11.6560   14.3490   -9.5790 C.3    43  LEU43       0.0019
     16  CD1      -10.9360   14.4630  -10.8980 C.3    43  LEU43       0.0001
     17  CD2      -12.5990   15.5480   -9.3800 C.3    43  LEU43       0.0001
     18  N        -13.4470   10.2280   -8.6710 N.am   44  GLU44      -0.1979
     19  CA       -14.2510    9.0260   -8.9070 C.3    44  GLU44       0.1602
     20  C        -15.1220    8.6780   -7.7060 C.2    44  GLU44       0.2287
     21  O        -16.3010    8.3770   -7.8600 O.2    44  GLU44      -0.2864
     22  CB       -13.3480    7.8430   -9.2470 C.3    44  GLU44       0.0415
     23  CG       -14.1090    6.5750   -9.5940 C.3    44  GLU44       0.1163
     24  CD       -13.1820    5.4550  -10.0190 C.2    44  GLU44       0.3649
     25  OE1      -11.9540    5.6660  -10.0080 O.co2  44  GLU44      -0.2457
     26  OE2      -13.6740    4.3650  -10.3670 O.co2  44  GLU44      -0.2457
     27  N        -16.9160   13.4170  -12.1850 N.3    49  GLU49      -0.1245
     28  CA       -16.3240   13.5150  -13.5170 C.3    49  GLU49       0.1567
     29  C        -17.0900   14.4680  -14.4490 C.2    49  GLU49       0.2260
     30  O        -16.4790   15.2030  -15.2150 O.2    49  GLU49      -0.2867
     31  CB       -16.2530   12.1350  -14.1820 C.3    49  GLU49       0.0388
     32  CG       -15.4770   11.0920  -13.4160 C.3    49  GLU49       0.1160
     33  CD       -16.3800   10.1910  -12.5770 C.2    49  GLU49       0.3649
     34  OE1      -17.5080   10.6080  -12.2150 O.co2  49  GLU49      -0.2457
     35  OE2      -15.9620    9.0500  -12.2960 O.co2  49  GLU49      -0.2457
     36  N        -16.1410   18.1400  -13.7450 N.3    52  LEU52      -0.1231
     37  CA       -14.8330   18.3960  -14.3090 C.3    52  LEU52       0.1693
     38  C        -14.9380   18.7170  -15.8140 C.2    52  LEU52       0.2591
     39  O        -14.4460   19.7610  -16.2750 O.2    52  LEU52      -0.2718
     40  CB       -13.9220   17.1900  -14.0450 C.3    52  LEU52       0.0284
     41  CG       -12.5160   17.0870  -14.6300 C.3    52  LEU52       0.0019
     42  CD1      -11.5340   17.8090  -13.7710 C.3    52  LEU52       0.0001
     43  CD2      -12.0970   15.6370  -14.7660 C.3    52  LEU52       0.0001
     44  N        -15.6070   17.8400  -16.5650 N.am   53  ARG53      -0.1980
     45  CA       -15.8080   18.0650  -18.0030 C.3    53  ARG53       0.1597
     46  C        -16.5050   19.3850  -18.2720 C.2    53  ARG53       0.2287
     47  O        -16.0860   20.1440  -19.1320 O.2    53  ARG53      -0.2864
     48  CB       -16.6130   16.9230  -18.6360 C.3    53  ARG53       0.0334
     49  CG       -15.8660   15.6040  -18.6720 C.3    53  ARG53       0.0492
     50  CD       -16.5920   14.5800  -19.5360 C.3    53  ARG53       0.2205
     51  NE       -15.9960   13.2560  -19.4060 N.pl3  53  ARG53      -0.0865
     52  CZ       -16.3510   12.3640  -18.4890 C.cat  53  ARG53       0.5346
     53  NH1      -17.3150   12.6410  -17.6170 N.pl3  53  ARG53       0.1354
     54  NH2      -15.7430   11.1890  -18.4560 N.pl3  53  ARG53       0.1354
     55  N        -14.1360   22.4740  -17.7930 N.3    56  VAL56      -0.1231
     56  CA       -13.2240   22.6370  -18.9280 C.3    56  VAL56       0.1692
     57  C        -13.9450   23.1740  -20.1640 C.2    56  VAL56       0.2591
     58  O        -13.4920   24.1410  -20.7780 O.2    56  VAL56      -0.2718
     59  CB       -12.5140   21.2970  -19.2980 C.3    56  VAL56       0.0266
     60  CG1      -11.7060   21.4560  -20.5830 C.3    56  VAL56       0.0020
     61  CG2      -11.6010   20.8290  -18.1680 C.3    56  VAL56       0.0020
     62  N        -15.0640   22.5500  -20.5310 N.am   57  GLU57      -0.1979
     63  CA       -15.7860   22.9520  -21.7390 C.3    57  GLU57       0.1602
     64  C        -16.2740   24.3930  -21.6960 C.2    57  GLU57       0.2287
     65  O        -16.0790   25.1550  -22.6510 O.2    57  GLU57      -0.2864
     66  CB       -16.9790   22.0240  -21.9760 C.3    57  GLU57       0.0415
     67  CG       -16.5920   20.7160  -22.6580 C.3    57  GLU57       0.1163
     68  CD       -17.6400   19.6300  -22.4970 C.2    57  GLU57       0.3649
     69  OE1      -18.7500   19.9400  -22.0110 O.co2  57  GLU57      -0.2457
     70  OE2      -17.3500   18.4660  -22.8520 O.co2  57  GLU57      -0.2457
     71  N         -5.7890   21.2580  -20.3670 N.3    73  TYR73      -0.1241
     72  CA        -5.6690   20.2530  -19.3050 C.3    73  TYR73       0.1605
     73  C         -4.7960   19.0740  -19.7440 C.2    73  TYR73       0.2264
     74  O         -4.4790   18.9420  -20.9280 O.2    73  TYR73      -0.2867
     75  CB        -7.0540   19.7520  -18.8780 C.3    73  TYR73       0.0534
     76  CG        -7.7380   18.8040  -19.8620 C.ar   73  TYR73      -0.0201
     77  CD1       -8.4280   19.2970  -20.9630 C.ar   73  TYR73      -0.0009
     78  CD2       -7.6920   17.4210  -19.6830 C.ar   73  TYR73      -0.0009
     79  CE1       -9.0560   18.4400  -21.8650 C.ar   73  TYR73       0.0417
     80  CE2       -8.3140   16.5540  -20.5810 C.ar   73  TYR73       0.0417
     81  CZ        -8.9920   17.0700  -21.6720 C.ar   73  TYR73       0.1957
     82  OH        -9.6120   16.2180  -22.5650 O.3    73  TYR73      -0.2866
     83  N         -3.4560   14.8420  -17.8280 N.3    75  HIS75      -0.1241
     84  CA        -3.5730   13.9220  -16.6880 C.3    75  HIS75       0.1621
     85  C         -2.5240   12.8110  -16.7240 C.2    75  HIS75       0.2264
     86  O         -1.8740   12.6260  -17.7480 O.2    75  HIS75      -0.2867
     87  CB        -4.9800   13.3280  -16.6140 C.3    75  HIS75       0.0745
     88  CG        -5.3780   12.5260  -17.8130 C.ar   75  HIS75       0.0817
     89  ND1       -5.7290   11.1930  -17.7360 N.ar   75  HIS75      -0.2268
     90  CD2       -5.4920   12.8710  -19.1150 C.ar   75  HIS75       0.1154
     91  CE1       -6.0260   10.7490  -18.9410 C.ar   75  HIS75       0.1986
     92  NE2       -5.8940   11.7490  -19.7940 N.ar   75  HIS75      -0.2212
     93  N         -5.4680   14.8310  -12.3780 N.3    80  VAL80      -0.1245
     94  CA        -5.8390   15.6650  -13.5060 C.3    80  VAL80       0.1561
     95  C         -5.3520   17.0990  -13.2400 C.2    80  VAL80       0.2260
     96  O         -5.4390   17.5850  -12.1130 O.2    80  VAL80      -0.2867
     97  CB        -7.3770   15.6620  -13.7420 C.3    80  VAL80       0.0252
     98  CG1       -7.7370   16.5640  -14.9150 C.3    80  VAL80       0.0019
     99  CG2       -7.9270   14.2060  -13.9270 C.3    80  VAL80       0.0019
@<TRIPOS>BOND
     1    70    68   ar
     2    67    68    1
     3    67    66    1
     4    65    64    2
     5    82    81    1
     6    68    69   ar
     7    66    63    1
     8    79    81   ar
     9    79    77   ar
    10    63    64    1
    11    63    62    1
    12    81    80   ar
    13    77    76   ar
    14    74    73    2
    15    58    57    2
    16    60    59    1
    17    80    78   ar
    18    62    57   am
    19    71    72    1
    20    57    56    1
    21    76    78   ar
    22    76    75    1
    23    92    90   ar
    24    92    91   ar
    25    73    72    1
    26    50    51    1
    27    50    49    1
    28    51    52    2
    29    72    75    1
    30    59    56    1
    31    59    61    1
    32    47    46    2
    33    90    88   ar
    34    91    89   ar
    35    56    55    1
    36    49    48    1
    37    48    45    1
    38    52    54    1
    39    52    53    1
    40    46    45    1
    41    45    44    1
    42    83    84    1
    43    88    89   ar
    44    88    87    1
    45    86    85    2
    46    85    84    1
    47    84    87    1
    48    44    38   am
    49    39    38    2
    50    38    37    1
    51     9     8    1
    52    30    29    2
    53    98    97    1
    54    43    41    1
    55    41    40    1
    56    41    42    1
    57    29    28    1
    58    37    40    1
    59    37    36    1
    60     8     7    1
    61    31    28    1
    62    31    32    1
    63    99    97    1
    64    97    94    1
    65    28    27    1
    66    94    95    1
    67    94    93    1
    68    32    33    1
    69    95    96    2
    70     7     6    1
    71    33    35   ar
    72    33    34   ar
    73     6     5    1
    74    16    15    1
    75     5     2    1
    76    26    24   ar
    77    24    25   ar
    78    24    23    1
    79     2     1    1
    80     2     3    1
    81    23    22    1
    82    15    14    1
    83    15    17    1
    84    14    11    1
    85    22    19    1
    86    19    18    1
    87    19    20    1
    88     4     3    2
    89    18    12   am
    90    13    12    2
    91    12    11    1
    92    11    10    1
    93    21    20    2
