@<TRIPOS>MOLECULE
tmp/5ortA01.pdb
 90 84 0 0 0
SMALL
GASTEIGER

@<TRIPOS>ATOM
      1  N         -8.0830   11.7600   -9.7470 N.3    40  LYS40      -0.1245
      2  CA        -9.0700   10.8940  -10.3890 C.3    40  LYS40       0.1561
      3  C         -9.8350   10.0190   -9.4020 C.2    40  LYS40       0.2260
      4  O        -11.0360    9.8420   -9.5600 O.2    40  LYS40      -0.2867
      5  CB        -8.3930   10.0080  -11.4390 C.3    40  LYS40       0.0271
      6  CG        -8.1310   10.7190  -12.7740 C.3    40  LYS40       0.0035
      7  CD        -7.2950    9.8770  -13.7380 C.3    40  LYS40       0.0206
      8  CE        -7.2040   10.5440  -15.1070 C.3    40  LYS40       0.1093
      9  NZ        -6.2760    9.8500  -16.0390 N.3    40  LYS40      -0.1314
     10  N        -12.4060   11.9750   -7.7130 N.3    43  LEU43      -0.1245
     11  CA       -13.4610   12.3070   -8.6630 C.3    43  LEU43       0.1561
     12  C        -14.4370   11.1460   -8.9240 C.2    43  LEU43       0.2260
     13  O        -15.6550   11.3630   -9.0220 O.2    43  LEU43      -0.2867
     14  CB       -12.8500   12.7600   -9.9890 C.3    43  LEU43       0.0270
     15  CG       -12.0730   14.0710  -10.0860 C.3    43  LEU43       0.0019
     16  CD1      -11.3880   14.1630  -11.4480 C.3    43  LEU43       0.0001
     17  CD2      -12.9980   15.2720   -9.8700 C.3    43  LEU43       0.0001
     18  N        -17.4310   13.7090  -12.1970 N.3    49  GLU49      -0.1245
     19  CA       -16.8030   13.7930  -13.5220 C.3    49  GLU49       0.1567
     20  C        -17.5140   14.7520  -14.4700 C.2    49  GLU49       0.2260
     21  O        -16.8660   15.4420  -15.2480 O.2    49  GLU49      -0.2867
     22  CB       -16.7520   12.4230  -14.1930 C.3    49  GLU49       0.0388
     23  CG       -15.9260   11.3870  -13.4800 C.3    49  GLU49       0.1160
     24  CD       -16.7620   10.3150  -12.7810 C.2    49  GLU49       0.3649
     25  OE1      -17.9240   10.5730  -12.3840 O.co2  49  GLU49      -0.2457
     26  OE2      -16.2430    9.1900  -12.6520 O.co2  49  GLU49      -0.2457
     27  N        -16.5770   18.5000  -13.8920 N.3    52  LEU52      -0.1231
     28  CA       -15.2510   18.9000  -14.3760 C.3    52  LEU52       0.1693
     29  C        -15.2800   19.1670  -15.8860 C.2    52  LEU52       0.2591
     30  O        -14.7950   20.1960  -16.3540 O.2    52  LEU52      -0.2718
     31  CB       -14.2080   17.8300  -14.0340 C.3    52  LEU52       0.0284
     32  CG       -12.7480   18.1860  -14.3260 C.3    52  LEU52       0.0019
     33  CD1      -12.4600   19.6390  -13.9320 C.3    52  LEU52       0.0001
     34  CD2      -11.8070   17.2260  -13.6320 C.3    52  LEU52       0.0001
     35  N        -15.8890   18.2470  -16.6280 N.am   53  ARG53      -0.1980
     36  CA       -16.0680   18.3540  -18.0790 C.3    53  ARG53       0.1597
     37  C        -16.7790   19.6660  -18.4900 C.2    53  ARG53       0.2287
     38  O        -16.3400   20.3800  -19.3980 O.2    53  ARG53      -0.2864
     39  CB       -16.8390   17.1170  -18.5730 C.3    53  ARG53       0.0334
     40  CG       -16.4520   16.6030  -19.9500 C.3    53  ARG53       0.0492
     41  CD       -16.0200   15.1300  -19.9440 C.3    53  ARG53       0.2205
     42  NE       -16.8980   14.2680  -19.1620 N.pl3  53  ARG53      -0.0865
     43  CZ       -16.5450   13.0870  -18.6680 C.cat  53  ARG53       0.5346
     44  NH1      -15.3300   12.6110  -18.8830 N.pl3  53  ARG53       0.1354
     45  NH2      -17.4130   12.3790  -17.9660 N.pl3  53  ARG53       0.1354
     46  N        -14.5820   22.6760  -17.9610 N.3    56  VAL56      -0.1231
     47  CA       -13.6400   22.7700  -19.0670 C.3    56  VAL56       0.1692
     48  C        -14.2690   23.4450  -20.2960 C.2    56  VAL56       0.2591
     49  O        -13.6950   24.3720  -20.8620 O.2    56  VAL56      -0.2718
     50  CB       -13.1030   21.3800  -19.4510 C.3    56  VAL56       0.0266
     51  CG1      -12.3420   21.4350  -20.7550 C.3    56  VAL56       0.0020
     52  CG2      -12.2400   20.8400  -18.3390 C.3    56  VAL56       0.0020
     53  N        -15.4680   23.0050  -20.6650 N.am   57  GLU57      -0.1979
     54  CA       -16.0910   23.4440  -21.8980 C.3    57  GLU57       0.1602
     55  C        -16.5700   24.8970  -21.8920 C.2    57  GLU57       0.2287
     56  O        -16.1970   25.6820  -22.7750 O.2    57  GLU57      -0.2864
     57  CB       -17.2400   22.4980  -22.2370 C.3    57  GLU57       0.0415
     58  CG       -16.7280   21.0940  -22.5600 C.3    57  GLU57       0.1163
     59  CD       -17.8260   20.1070  -22.9230 C.2    57  GLU57       0.3649
     60  OE1      -18.9870   20.5420  -23.0910 O.co2  57  GLU57      -0.2457
     61  OE2      -17.5210   18.8960  -23.0450 O.co2  57  GLU57      -0.2457
     62  N         -5.9110   21.4810  -20.9420 N.3    73  TYR73      -0.1241
     63  CA        -5.9170   20.4240  -19.9250 C.3    73  TYR73       0.1605
     64  C         -5.1850   19.1650  -20.3910 C.2    73  TYR73       0.2264
     65  O         -4.9770   18.9620  -21.5780 O.2    73  TYR73      -0.2867
     66  CB        -7.3560   20.0650  -19.5190 C.3    73  TYR73       0.0534
     67  CG        -8.0620   19.1260  -20.4740 C.ar   73  TYR73      -0.0201
     68  CD1       -8.6560   19.6030  -21.6390 C.ar   73  TYR73      -0.0009
     69  CD2       -8.1360   17.7590  -20.2070 C.ar   73  TYR73      -0.0009
     70  CE1       -9.2960   18.7380  -22.5230 C.ar   73  TYR73       0.0417
     71  CE2       -8.7720   16.8920  -21.0700 C.ar   73  TYR73       0.0417
     72  CZ        -9.3470   17.3800  -22.2310 C.ar   73  TYR73       0.1957
     73  OH        -9.9760   16.5050  -23.0950 O.3    73  TYR73      -0.2866
     74  N         -4.0640   14.8580  -18.5400 N.3    75  HIS75      -0.1241
     75  CA        -4.1490   13.9310  -17.3970 C.3    75  HIS75       0.1621
     76  C         -3.0300   12.8850  -17.4140 C.2    75  HIS75       0.2264
     77  O         -2.2680   12.8310  -18.3760 O.2    75  HIS75      -0.2867
     78  CB        -5.5190   13.2420  -17.3500 C.3    75  HIS75       0.0745
     79  CG        -5.9360   12.5990  -18.6440 C.ar   75  HIS75       0.0817
     80  ND1       -6.2620   13.3250  -19.7730 N.ar   75  HIS75      -0.2268
     81  CD2       -6.1060   11.2940  -18.9740 C.ar   75  HIS75       0.1154
     82  CE1       -6.5980   12.4920  -20.7440 C.ar   75  HIS75       0.1986
     83  NE2       -6.5080   11.2550  -20.2860 N.ar   75  HIS75      -0.2212
     84  N         -5.9640   14.7850  -13.1320 N.3    80  VAL80      -0.1245
     85  CA        -6.3130   15.6720  -14.2440 C.3    80  VAL80       0.1561
     86  C         -5.7540   17.0800  -13.9510 C.2    80  VAL80       0.2260
     87  O         -5.7990   17.5450  -12.8060 O.2    80  VAL80      -0.2867
     88  CB        -7.8460   15.7370  -14.4620 C.3    80  VAL80       0.0252
     89  CG1       -8.1820   16.6800  -15.5590 C.3    80  VAL80       0.0019
     90  CG2       -8.4300   14.3510  -14.7560 C.3    80  VAL80       0.0019
@<TRIPOS>BOND
     1    73    72    1
     2    60    59   ar
     3    61    59   ar
     4    59    58    1
     5    56    55    2
     6    58    57    1
     7    70    72   ar
     8    70    68   ar
     9    57    54    1
    10    72    71   ar
    11    54    55    1
    12    54    53    1
    13    68    67   ar
    14    65    64    2
    15    71    69   ar
    16    62    63    1
    17    49    48    2
    18    51    50    1
    19    82    83   ar
    20    82    80   ar
    21    53    48   am
    22    67    69   ar
    23    67    66    1
    24    64    63    1
    25    48    47    1
    26    83    81   ar
    27    40    41    1
    28    40    39    1
    29    41    42    1
    30    63    66    1
    31    80    79   ar
    32    50    47    1
    33    50    52    1
    34    38    37    2
    35    42    43    2
    36    47    46    1
    37    81    79   ar
    38    44    43    1
    39    43    45    1
    40    79    78    1
    41    39    36    1
    42    74    75    1
    43    37    36    1
    44    77    76    2
    45    36    35    1
    46    76    75    1
    47    75    78    1
    48    35    29   am
    49    30    29    2
    50     9     8    1
    51    29    28    1
    52    89    88    1
    53    21    20    2
    54     8     7    1
    55    90    88    1
    56    20    19    1
    57    88    85    1
    58    28    31    1
    59    28    27    1
    60    32    31    1
    61    32    33    1
    62    32    34    1
    63    85    86    1
    64    85    84    1
    65    22    19    1
    66    22    23    1
    67    86    87    2
    68     7     6    1
    69    19    18    1
    70    23    24    1
    71    24    26   ar
    72    24    25   ar
    73     6     5    1
    74    16    15    1
    75     5     2    1
    76     2     1    1
    77     2     3    1
    78    15    14    1
    79    15    17    1
    80    14    11    1
    81     4     3    2
    82    13    12    2
    83    12    11    1
    84    11    10    1
