@<TRIPOS>MOLECULE
tmp/5orwA01.pdb
 99 93 0 0 0
SMALL
GASTEIGER

@<TRIPOS>ATOM
      1  N         -7.7570   11.9160   -9.2320 N.3    40  LYS40      -0.1245
      2  CA        -8.7280   11.0580   -9.9230 C.3    40  LYS40       0.1561
      3  C         -9.4880   10.1580   -8.9550 C.2    40  LYS40       0.2260
      4  O        -10.6820    9.9210   -9.1320 O.2    40  LYS40      -0.2867
      5  CB        -8.0340   10.1950  -10.9880 C.3    40  LYS40       0.0271
      6  CG        -7.6830   10.9350  -12.2690 C.3    40  LYS40       0.0035
      7  CD        -6.9860   10.0320  -13.2770 C.3    40  LYS40       0.0206
      8  CE        -6.6750   10.8020  -14.5490 C.3    40  LYS40       0.1093
      9  NZ        -6.1960    9.9350  -15.6570 N.3    40  LYS40      -0.1314
     10  N        -12.1370   12.3000   -7.2640 N.3    43  LEU43      -0.1231
     11  CA       -13.1450   12.7040   -8.2440 C.3    43  LEU43       0.1693
     12  C        -14.1360   11.5650   -8.4950 C.2    43  LEU43       0.2591
     13  O        -15.3540   11.7750   -8.6490 O.2    43  LEU43      -0.2718
     14  CB       -12.4890   13.1050   -9.5620 C.3    43  LEU43       0.0284
     15  CG       -11.7560   14.4480   -9.5540 C.3    43  LEU43       0.0019
     16  CD1      -11.1120   14.6530  -10.8840 C.3    43  LEU43       0.0001
     17  CD2      -12.7110   15.5920   -9.2320 C.3    43  LEU43       0.0001
     18  N        -13.5900   10.3580   -8.5290 N.am   44  GLU44      -0.1979
     19  CA       -14.3680    9.1500   -8.7590 C.3    44  GLU44       0.1602
     20  C        -15.2260    8.7680   -7.5530 C.2    44  GLU44       0.2287
     21  O        -16.4170    8.4910   -7.7090 O.2    44  GLU44      -0.2864
     22  CB       -13.4280    8.0160   -9.1190 C.3    44  GLU44       0.0415
     23  CG       -14.1150    6.7500   -9.5190 C.3    44  GLU44       0.1163
     24  CD       -13.1300    5.7320  -10.0350 C.2    44  GLU44       0.3649
     25  OE1      -12.5630    4.9700   -9.2140 O.co2  44  GLU44      -0.2457
     26  OE2      -12.9110    5.7080  -11.2670 O.co2  44  GLU44      -0.2457
     27  N        -17.1410   13.4850  -12.0810 N.3    49  GLU49      -0.1245
     28  CA       -16.5560   13.5360  -13.4220 C.3    49  GLU49       0.1567
     29  C        -17.2900   14.5110  -14.3590 C.2    49  GLU49       0.2260
     30  O        -16.6580   15.2500  -15.1050 O.2    49  GLU49      -0.2867
     31  CB       -16.5440   12.1270  -14.0540 C.3    49  GLU49       0.0388
     32  CG       -15.7710   11.0680  -13.2620 C.3    49  GLU49       0.1160
     33  CD       -16.6810   10.0980  -12.5000 C.2    49  GLU49       0.3649
     34  OE1      -17.8150   10.4910  -12.1360 O.co2  49  GLU49      -0.2457
     35  OE2      -16.2530    8.9470  -12.2770 O.co2  49  GLU49      -0.2457
     36  N        -16.4360   18.2650  -13.6910 N.3    52  LEU52      -0.1231
     37  CA       -15.1350   18.6130  -14.2340 C.3    52  LEU52       0.1693
     38  C        -15.2260   18.8820  -15.7410 C.2    52  LEU52       0.2591
     39  O        -14.7530   19.9150  -16.2270 O.2    52  LEU52      -0.2718
     40  CB       -14.1350   17.5080  -13.9400 C.3    52  LEU52       0.0284
     41  CG       -12.7120   17.8420  -14.3680 C.3    52  LEU52       0.0019
     42  CD1      -12.3400   19.2280  -13.8390 C.3    52  LEU52       0.0001
     43  CD2      -11.7490   16.7810  -13.8710 C.3    52  LEU52       0.0001
     44  N        -15.8680   17.9670  -16.4650 N.am   53  ARG53      -0.1980
     45  CA       -16.0790   18.1180  -17.9020 C.3    53  ARG53       0.1597
     46  C        -16.7890   19.4370  -18.2210 C.2    53  ARG53       0.2287
     47  O        -16.3790   20.1610  -19.1210 O.2    53  ARG53      -0.2864
     48  CB       -16.8800   16.9300  -18.4450 C.3    53  ARG53       0.0334
     49  CG       -16.2320   16.2380  -19.6300 C.3    53  ARG53       0.0492
     50  CD       -16.9200   14.9130  -19.9710 C.3    53  ARG53       0.2205
     51  NE       -16.0740   13.7690  -19.6420 N.pl3  53  ARG53      -0.0865
     52  CZ       -16.3690   12.8480  -18.7300 C.cat  53  ARG53       0.5346
     53  NH1      -17.5080   12.9190  -18.0490 N.pl3  53  ARG53       0.1354
     54  NH2      -15.5250   11.8480  -18.5120 N.pl3  53  ARG53       0.1354
     55  N        -14.3090   22.4890  -17.7220 N.3    56  VAL56      -0.1231
     56  CA       -13.3870   22.6650  -18.8440 C.3    56  VAL56       0.1692
     57  C        -14.1040   23.2010  -20.1010 C.2    56  VAL56       0.2591
     58  O        -13.6380   24.1530  -20.7360 O.2    56  VAL56      -0.2718
     59  CB       -12.6480   21.3310  -19.1830 C.3    56  VAL56       0.0266
     60  CG1      -11.7570   21.5040  -20.3950 C.3    56  VAL56       0.0020
     61  CG2      -11.8090   20.8580  -17.9940 C.3    56  VAL56       0.0020
     62  N        -15.2400   22.5970  -20.4470 N.am   57  GLU57      -0.1979
     63  CA       -15.9800   22.9820  -21.6460 C.3    57  GLU57       0.1602
     64  C        -16.4760   24.4180  -21.6090 C.2    57  GLU57       0.2287
     65  O        -16.1550   25.2130  -22.4980 O.2    57  GLU57      -0.2864
     66  CB       -17.1660   22.0440  -21.8640 C.3    57  GLU57       0.0415
     67  CG       -16.7450   20.6260  -22.2250 C.3    57  GLU57       0.1163
     68  CD       -17.9170   19.6710  -22.3490 C.2    57  GLU57       0.3649
     69  OE1      -19.0500   20.0730  -22.0100 O.co2  57  GLU57      -0.2457
     70  OE2      -17.6970   18.5160  -22.7770 O.co2  57  GLU57      -0.2457
     71  N         -5.7570   21.4690  -20.4450 N.3    73  TYR73      -0.1241
     72  CA        -5.7270   20.4200  -19.4260 C.3    73  TYR73       0.1605
     73  C         -4.9060   19.2080  -19.8880 C.2    73  TYR73       0.2264
     74  O         -4.7020   19.0110  -21.0850 O.2    73  TYR73      -0.2867
     75  CB        -7.1520   19.9800  -19.0570 C.3    73  TYR73       0.0534
     76  CG        -7.8190   19.0410  -20.0540 C.ar   73  TYR73      -0.0201
     77  CD1       -8.5380   19.5320  -21.1370 C.ar   73  TYR73      -0.0009
     78  CD2       -7.7330   17.6600  -19.9020 C.ar   73  TYR73      -0.0009
     79  CE1       -9.1470   18.6700  -22.0480 C.ar   73  TYR73       0.0417
     80  CE2       -8.3330   16.7920  -20.8080 C.ar   73  TYR73       0.0417
     81  CZ        -9.0390   17.3000  -21.8800 C.ar   73  TYR73       0.1957
     82  OH        -9.6370   16.4310  -22.7800 O.3    73  TYR73      -0.2866
     83  N         -3.5500   14.9820  -18.0470 N.3    75  HIS75      -0.1241
     84  CA        -3.7120   14.0410  -16.9320 C.3    75  HIS75       0.1621
     85  C         -2.6570   12.9480  -16.9710 C.2    75  HIS75       0.2264
     86  O         -2.0140   12.7440  -18.0040 O.2    75  HIS75      -0.2867
     87  CB        -5.1220   13.4210  -16.9190 C.3    75  HIS75       0.0745
     88  CG        -5.5330   12.7720  -18.2080 C.ar   75  HIS75       0.0817
     89  ND1       -5.7220   11.4110  -18.3280 N.ar   75  HIS75      -0.2268
     90  CD2       -5.8280   13.2990  -19.4220 C.ar   75  HIS75       0.1154
     91  CE1       -6.0930   11.1260  -19.5630 C.ar   75  HIS75       0.1986
     92  NE2       -6.1670   12.2530  -20.2470 N.ar   75  HIS75      -0.2212
     93  N         -5.6410   14.9700  -12.5260 N.3    80  VAL80      -0.1245
     94  CA        -5.9950   15.8370  -13.6420 C.3    80  VAL80       0.1561
     95  C         -5.4710   17.2600  -13.3610 C.2    80  VAL80       0.2260
     96  O         -5.5190   17.7300  -12.2220 O.2    80  VAL80      -0.2867
     97  CB        -7.5220   15.8650  -13.8940 C.3    80  VAL80       0.0252
     98  CG1       -7.8460   16.7370  -15.0990 C.3    80  VAL80       0.0019
     99  CG2       -8.0620   14.4380  -14.0920 C.3    80  VAL80       0.0019
@<TRIPOS>BOND
     1    82    81    1
     2    70    68   ar
     3    65    64    2
     4    68    67    1
     5    68    69   ar
     6    67    66    1
     7    79    81   ar
     8    79    77   ar
     9    81    80   ar
    10    66    63    1
    11    63    64    1
    12    63    62    1
    13    77    76   ar
    14    74    73    2
    15    80    78   ar
    16    58    57    2
    17    62    57   am
    18    71    72    1
    19    60    59    1
    20    92    91   ar
    21    92    90   ar
    22    57    56    1
    23    76    78   ar
    24    76    75    1
    25    50    51    1
    26    50    49    1
    27    73    72    1
    28    51    52    2
    29    49    48    1
    30    91    89   ar
    31    72    75    1
    32    90    88   ar
    33    59    56    1
    34    59    61    1
    35    47    46    2
    36    56    55    1
    37    52    54    1
    38    52    53    1
    39    48    45    1
    40    89    88   ar
    41    46    45    1
    42    88    87    1
    43    83    84    1
    44    86    85    2
    45    45    44    1
    46    85    84    1
    47    84    87    1
    48    44    38   am
    49    39    38    2
    50    38    37    1
    51     9     8    1
    52    30    29    2
    53    98    97    1
    54     8     7    1
    55    41    40    1
    56    41    43    1
    57    41    42    1
    58    29    28    1
    59    37    40    1
    60    37    36    1
    61    99    97    1
    62    31    28    1
    63    31    32    1
    64    97    94    1
    65    94    95    1
    66    94    93    1
    67    28    27    1
    68    95    96    2
    69     7     6    1
    70    32    33    1
    71    33    35   ar
    72    33    34   ar
    73     6     5    1
    74    26    24   ar
    75     5     2    1
    76    16    15    1
    77    24    23    1
    78    24    25   ar
    79     2     1    1
    80     2     3    1
    81    14    15    1
    82    14    11    1
    83    15    17    1
    84    23    22    1
    85     4     3    2
    86    22    19    1
    87    19    18    1
    88    19    20    1
    89    13    12    2
    90    18    12   am
    91    12    11    1
    92    11    10    1
    93    21    20    2
