@<TRIPOS>MOLECULE
tmp/5orxA01.pdb
 90 84 0 0 0
SMALL
GASTEIGER

@<TRIPOS>ATOM
      1  N         -7.9360   11.8860   -9.4790 N.3    40  LYS40      -0.1245
      2  CA        -8.9170   11.0370  -10.1640 C.3    40  LYS40       0.1561
      3  C         -9.6920   10.1710   -9.1800 C.2    40  LYS40       0.2260
      4  O        -10.9030    9.9860   -9.3240 O.2    40  LYS40      -0.2867
      5  CB        -8.2300   10.1540  -11.2200 C.3    40  LYS40       0.0271
      6  CG        -7.9550   10.8780  -12.5400 C.3    40  LYS40       0.0035
      7  CD        -7.3150    9.9840  -13.5780 C.3    40  LYS40       0.0206
      8  CE        -6.9770   10.7780  -14.8350 C.3    40  LYS40       0.1093
      9  NZ        -6.4200    9.8990  -15.9130 N.3    40  LYS40      -0.1314
     10  N        -12.3590   12.2420   -7.6200 N.3    43  LEU43      -0.1245
     11  CA       -13.4150   12.5810   -8.5790 C.3    43  LEU43       0.1561
     12  C        -14.3590   11.3950   -8.7660 C.2    43  LEU43       0.2260
     13  O        -15.5800   11.5620   -8.8350 O.2    43  LEU43      -0.2867
     14  CB       -12.8360   12.9860   -9.9400 C.3    43  LEU43       0.0270
     15  CG       -12.0950   14.3180  -10.0010 C.3    43  LEU43       0.0019
     16  CD1      -11.4140   14.4330  -11.3590 C.3    43  LEU43       0.0001
     17  CD2      -13.0290   15.4990   -9.7520 C.3    43  LEU43       0.0001
     18  N        -17.3750   13.6010  -12.1810 N.3    49  GLU49      -0.1245
     19  CA       -16.7160   13.7370  -13.4880 C.3    49  GLU49       0.1567
     20  C        -17.4580   14.7000  -14.4220 C.2    49  GLU49       0.2260
     21  O        -16.8400   15.5200  -15.0950 O.2    49  GLU49      -0.2867
     22  CB       -16.5790   12.3710  -14.1770 C.3    49  GLU49       0.0388
     23  CG       -15.7460   11.3410  -13.4210 C.3    49  GLU49       0.1160
     24  CD       -16.6050   10.3450  -12.6350 C.2    49  GLU49       0.3649
     25  OE1      -17.7280   10.7080  -12.2230 O.co2  49  GLU49      -0.2457
     26  OE2      -16.1590    9.2030  -12.4450 O.co2  49  GLU49      -0.2457
     27  N        -16.7540   18.3830  -13.8310 N.3    52  LEU52      -0.1231
     28  CA       -15.4500   18.8290  -14.2840 C.3    52  LEU52       0.1693
     29  C        -15.4780   19.1030  -15.8040 C.2    52  LEU52       0.2591
     30  O        -14.8510   20.0580  -16.2770 O.2    52  LEU52      -0.2718
     31  CB       -14.3690   17.8000  -13.9330 C.3    52  LEU52       0.0284
     32  CG       -12.8860   18.1640  -14.1560 C.3    52  LEU52       0.0019
     33  CD1      -11.9610   17.2940  -13.3530 C.3    52  LEU52       0.0001
     34  CD2      -12.5060   17.9960  -15.5880 C.3    52  LEU52       0.0001
     35  N        -16.1710   18.2550  -16.5670 N.am   53  ARG53      -0.1980
     36  CA       -16.2390   18.4240  -18.0200 C.3    53  ARG53       0.1597
     37  C        -16.9830   19.7060  -18.3490 C.2    53  ARG53       0.2287
     38  O        -16.6040   20.4480  -19.2480 O.2    53  ARG53      -0.2864
     39  CB       -16.9120   17.2160  -18.6920 C.3    53  ARG53       0.0334
     40  CG       -16.0260   15.9730  -18.6630 C.3    53  ARG53       0.0492
     41  CD       -16.5790   14.8040  -19.4830 C.3    53  ARG53       0.2205
     42  NE       -15.8080   13.5910  -19.2240 N.pl3  53  ARG53      -0.0865
     43  CZ       -16.1910   12.6130  -18.4110 C.cat  53  ARG53       0.5346
     44  NH1      -17.3530   12.6820  -17.7950 N.pl3  53  ARG53       0.1354
     45  NH2      -15.4120   11.5640  -18.2340 N.pl3  53  ARG53       0.1354
     46  N        -14.7310   22.7880  -17.8030 N.3    56  VAL56      -0.1231
     47  CA       -13.8040   23.0170  -18.9120 C.3    56  VAL56       0.1692
     48  C        -14.5120   23.5670  -20.1640 C.2    56  VAL56       0.2591
     49  O        -14.0800   24.5660  -20.7450 O.2    56  VAL56      -0.2718
     50  CB       -13.0320   21.7200  -19.2710 C.3    56  VAL56       0.0266
     51  CG1      -12.1860   21.9250  -20.5170 C.3    56  VAL56       0.0020
     52  CG2      -12.1430   21.2950  -18.1150 C.3    56  VAL56       0.0020
     53  N        -15.6000   22.9280  -20.5680 N.am   57  GLU57      -0.1979
     54  CA       -16.3100   23.3340  -21.7800 C.3    57  GLU57       0.1602
     55  C        -16.9130   24.7350  -21.7040 C.2    57  GLU57       0.2287
     56  O        -16.7410   25.5330  -22.6250 O.2    57  GLU57      -0.2864
     57  CB       -17.4000   22.3200  -22.1070 C.3    57  GLU57       0.0415
     58  CG       -16.8450   20.9400  -22.4350 C.3    57  GLU57       0.1163
     59  CD       -15.8420   20.9620  -23.5800 C.2    57  GLU57       0.3649
     60  OE1      -16.0820   21.6750  -24.5790 O.co2  57  GLU57      -0.2457
     61  OE2      -14.8060   20.2690  -23.4690 O.co2  57  GLU57      -0.2457
     62  N         -6.3920   21.7310  -20.6290 N.3    73  TYR73      -0.1241
     63  CA        -6.3120   20.6890  -19.6060 C.3    73  TYR73       0.1605
     64  C         -5.4980   19.4870  -20.0920 C.2    73  TYR73       0.2264
     65  O         -5.3040   19.3070  -21.3000 O.2    73  TYR73      -0.2867
     66  CB        -7.7170   20.2480  -19.1950 C.3    73  TYR73       0.0534
     67  CG        -8.3740   19.2830  -20.1690 C.ar   73  TYR73      -0.0201
     68  CD1       -9.0690   19.7480  -21.2810 C.ar   73  TYR73      -0.0009
     69  CD2       -8.3070   17.9050  -19.9640 C.ar   73  TYR73      -0.0009
     70  CE1       -9.6730   18.8510  -22.1830 C.ar   73  TYR73       0.0417
     71  CE2       -8.9000   17.0090  -20.8500 C.ar   73  TYR73       0.0417
     72  CZ        -9.5780   17.4880  -21.9560 C.ar   73  TYR73       0.1957
     73  OH       -10.1660   16.5720  -22.8220 O.3    73  TYR73      -0.2866
     74  N         -3.9740   15.2470  -18.3500 N.3    75  HIS75      -0.1241
     75  CA        -4.0710   14.2810  -17.2530 C.3    75  HIS75       0.1621
     76  C         -2.9790   13.1980  -17.3090 C.2    75  HIS75       0.2264
     77  O         -2.3270   13.0300  -18.3390 O.2    75  HIS75      -0.2867
     78  CB        -5.4760   13.6460  -17.2260 C.3    75  HIS75       0.0745
     79  CG        -5.8330   12.8570  -18.4520 C.ar   75  HIS75       0.0817
     80  ND1       -6.0140   11.4890  -18.4270 N.ar   75  HIS75      -0.2268
     81  CD2       -6.0710   13.2430  -19.7290 C.ar   75  HIS75       0.1154
     82  CE1       -6.3280   11.0650  -19.6390 C.ar   75  HIS75       0.1986
     83  NE2       -6.3720   12.1080  -20.4470 N.ar   75  HIS75      -0.2212
     84  N         -5.9600   15.1050  -12.8750 N.3    80  VAL80      -0.1245
     85  CA        -6.3760   15.9620  -13.9820 C.3    80  VAL80       0.1561
     86  C         -5.8810   17.3960  -13.6900 C.2    80  VAL80       0.2260
     87  O         -5.9430   17.8570  -12.5360 O.2    80  VAL80      -0.2867
     88  CB        -7.9160   15.9440  -14.1730 C.3    80  VAL80       0.0252
     89  CG1       -8.3350   16.8830  -15.2790 C.3    80  VAL80       0.0019
     90  CG2       -8.4100   14.5180  -14.4480 C.3    80  VAL80       0.0019
@<TRIPOS>BOND
     1    60    59   ar
     2    59    61   ar
     3    59    58    1
     4    73    72    1
     5    56    55    2
     6    58    57    1
     7    70    72   ar
     8    70    68   ar
     9    57    54    1
    10    72    71   ar
    11    54    55    1
    12    54    53    1
    13    65    64    2
    14    68    67   ar
    15    71    69   ar
    16    49    48    2
    17    62    63    1
    18    53    48   am
    19    51    50    1
    20    83    81   ar
    21    83    82   ar
    22    67    69   ar
    23    67    66    1
    24    48    47    1
    25    64    63    1
    26    81    79   ar
    27    82    80   ar
    28    63    66    1
    29    41    42    1
    30    41    40    1
    31    50    47    1
    32    50    52    1
    33    38    37    2
    34    42    43    2
    35    47    46    1
    36    39    40    1
    37    39    36    1
    38    79    80   ar
    39    79    78    1
    40    43    45    1
    41    43    44    1
    42    74    75    1
    43    37    36    1
    44    77    76    2
    45    36    35    1
    46    76    75    1
    47    75    78    1
    48    35    29   am
    49    30    29    2
    50     9     8    1
    51    29    28    1
    52    34    32    1
    53    89    88    1
    54    21    20    2
    55     8     7    1
    56    90    88    1
    57    20    19    1
    58    28    31    1
    59    28    27    1
    60    22    19    1
    61    22    23    1
    62    88    85    1
    63    32    31    1
    64    32    33    1
    65    85    86    1
    66    85    84    1
    67    86    87    2
    68     7     6    1
    69    19    18    1
    70    23    24    1
    71    24    26   ar
    72    24    25   ar
    73     6     5    1
    74    16    15    1
    75     5     2    1
    76     2     1    1
    77     2     3    1
    78    15    14    1
    79    15    17    1
    80    14    11    1
    81     4     3    2
    82    13    12    2
    83    12    11    1
    84    11    10    1
