@<TRIPOS>MOLECULE
tmp/5orzA01.pdb
 90 84 0 0 0
SMALL
GASTEIGER

@<TRIPOS>ATOM
      1  N         -7.5020   11.5160   -8.8920 N.3    40  LYS40      -0.1245
      2  CA        -8.4840   10.6900   -9.5970 C.3    40  LYS40       0.1561
      3  C         -9.2830    9.7820   -8.6470 C.2    40  LYS40       0.2260
      4  O        -10.4590    9.5230   -8.8760 O.2    40  LYS40      -0.2867
      5  CB        -7.7910    9.8440  -10.6700 C.3    40  LYS40       0.0271
      6  CG        -7.3940   10.6270  -11.9170 C.3    40  LYS40       0.0035
      7  CD        -6.7460    9.7240  -12.9520 C.3    40  LYS40       0.0206
      8  CE        -6.4790   10.4620  -14.2580 C.3    40  LYS40       0.1093
      9  NZ        -5.8060    9.5910  -15.2650 N.3    40  LYS40      -0.1314
     10  N        -11.7420   11.7910   -7.2070 N.3    43  LEU43      -0.1231
     11  CA       -12.7190   12.2090   -8.2140 C.3    43  LEU43       0.1693
     12  C        -13.7090   11.0890   -8.4780 C.2    43  LEU43       0.2591
     13  O        -14.9130   11.3240   -8.5520 O.2    43  LEU43      -0.2718
     14  CB       -12.0450   12.6520   -9.5130 C.3    43  LEU43       0.0284
     15  CG       -11.3790   14.0280   -9.5240 C.3    43  LEU43       0.0019
     16  CD1      -10.6620   14.2090  -10.8510 C.3    43  LEU43       0.0001
     17  CD2      -12.4200   15.1200   -9.3240 C.3    43  LEU43       0.0001
     18  N        -13.2000    9.8640   -8.5140 N.am   44  GLU44      -0.1979
     19  CA       -14.0270    8.6890   -8.7390 C.3    44  GLU44       0.1602
     20  C        -14.8830    8.3800   -7.5190 C.2    44  GLU44       0.2287
     21  O        -16.0530    8.0180   -7.6460 O.2    44  GLU44      -0.2864
     22  CB       -13.1470    7.4890   -9.0900 C.3    44  GLU44       0.0415
     23  CG       -13.8870    6.1610   -9.1670 C.3    44  GLU44       0.1163
     24  CD       -12.9970    5.0290   -9.6410 C.2    44  GLU44       0.3649
     25  OE1      -12.0890    5.2910  -10.4570 O.co2  44  GLU44      -0.2457
     26  OE2      -13.1960    3.8810   -9.1900 O.co2  44  GLU44      -0.2457
     27  N        -16.7780   13.2540  -12.0910 N.3    49  GLU49      -0.1245
     28  CA       -16.0670   13.4200  -13.3570 C.3    49  GLU49       0.1567
     29  C        -16.8380   14.3240  -14.3030 C.2    49  GLU49       0.2260
     30  O        -16.2430   15.0930  -15.0550 O.2    49  GLU49      -0.2867
     31  CB       -15.8160   12.0710  -14.0300 C.3    49  GLU49       0.0388
     32  CG       -14.8670   11.1760  -13.2770 C.3    49  GLU49       0.1160
     33  CD       -15.5970   10.1850  -12.4160 C.2    49  GLU49       0.3649
     34  OE1      -16.7440   10.4810  -12.0120 O.co2  49  GLU49      -0.2457
     35  OE2      -15.0420    9.0980  -12.1440 O.co2  49  GLU49      -0.2457
     36  N        -16.1200   17.9060  -13.6610 N.3    52  LEU52      -0.1231
     37  CA       -14.8000   18.3390  -14.1080 C.3    52  LEU52       0.1693
     38  C        -14.7480   18.5890  -15.6180 C.2    52  LEU52       0.2591
     39  O        -14.1060   19.5330  -16.0710 O.2    52  LEU52      -0.2718
     40  CB       -13.7380   17.3120  -13.7150 C.3    52  LEU52       0.0284
     41  CG       -12.3030   17.8360  -13.8020 C.3    52  LEU52       0.0019
     42  CD1      -12.1590   19.1330  -13.0160 C.3    52  LEU52       0.0001
     43  CD2      -11.3120   16.7970  -13.3070 C.3    52  LEU52       0.0001
     44  N        -15.4210   17.7450  -16.3960 N.am   53  ARG53      -0.1980
     45  CA       -15.4900   17.9520  -17.8480 C.3    53  ARG53       0.1597
     46  C        -16.2740   19.2050  -18.1960 C.2    53  ARG53       0.2287
     47  O        -15.9490   19.9080  -19.1610 O.2    53  ARG53      -0.2864
     48  CB       -16.1250   16.7610  -18.5570 C.3    53  ARG53       0.0334
     49  CG       -15.4060   15.4980  -18.3480 C.3    53  ARG53       0.0492
     50  CD       -16.2210   14.3480  -18.8130 C.3    53  ARG53       0.2205
     51  NE       -15.6130   13.1180  -18.3360 N.pl3  53  ARG53      -0.0865
     52  CZ       -16.2870   12.1020  -17.8100 C.cat  53  ARG53       0.5346
     53  NH1      -17.6010   12.1490  -17.6940 N.pl3  53  ARG53       0.1354
     54  NH2      -15.6500   11.0230  -17.4060 N.pl3  53  ARG53       0.1354
     55  N        -14.0100   22.1470  -17.6360 N.3    56  VAL56      -0.1245
     56  CA       -13.0920   22.3070  -18.7570 C.3    56  VAL56       0.1561
     57  C        -13.8120   22.8240  -20.0000 C.2    56  VAL56       0.2260
     58  O        -13.3720   23.7910  -20.6200 O.2    56  VAL56      -0.2867
     59  CB       -12.3820   20.9810  -19.0990 C.3    56  VAL56       0.0252
     60  CG1      -11.5390   21.1360  -20.3570 C.3    56  VAL56       0.0019
     61  CG2      -11.5230   20.5220  -17.9320 C.3    56  VAL56       0.0019
     62  N         -5.5960   21.0410  -20.3280 N.3    73  TYR73      -0.1241
     63  CA        -5.4750   20.0430  -19.2730 C.3    73  TYR73       0.1605
     64  C         -4.6540   18.8320  -19.7020 C.2    73  TYR73       0.2264
     65  O         -4.3980   18.6250  -20.8890 O.2    73  TYR73      -0.2867
     66  CB        -6.8620   19.5790  -18.8180 C.3    73  TYR73       0.0534
     67  CG        -7.5740   18.7000  -19.8250 C.ar   73  TYR73      -0.0201
     68  CD1       -8.2860   19.2550  -20.8790 C.ar   73  TYR73      -0.0009
     69  CD2       -7.5330   17.3150  -19.7180 C.ar   73  TYR73      -0.0009
     70  CE1       -8.9360   18.4550  -21.8020 C.ar   73  TYR73       0.0417
     71  CE2       -8.1770   16.5080  -20.6360 C.ar   73  TYR73       0.0417
     72  CZ        -8.8780   17.0830  -21.6740 C.ar   73  TYR73       0.1957
     73  OH        -9.5230   16.2810  -22.5890 O.3    73  TYR73      -0.2866
     74  N         -3.4160   14.6130  -17.8060 N.3    75  HIS75      -0.1241
     75  CA        -3.5320   13.7100  -16.6680 C.3    75  HIS75       0.1621
     76  C         -2.5090   12.5830  -16.7270 C.2    75  HIS75       0.2264
     77  O         -2.0020   12.2480  -17.7990 O.2    75  HIS75      -0.2867
     78  CB        -4.9470   13.1230  -16.5930 C.3    75  HIS75       0.0745
     79  CG        -5.3190   12.2820  -17.7770 C.ar   75  HIS75       0.0817
     80  ND1       -4.8620   10.9930  -17.9480 N.ar   75  HIS75      -0.2268
     81  CD2       -6.1110   12.5450  -18.8430 C.ar   75  HIS75       0.1154
     82  CE1       -5.3520   10.5000  -19.0720 C.ar   75  HIS75       0.1986
     83  NE2       -6.1130   11.4210  -19.6340 N.ar   75  HIS75      -0.2212
     84  N         -5.2990   14.6580  -12.2580 N.3    80  VAL80      -0.1245
     85  CA        -5.7320   15.4840  -13.3790 C.3    80  VAL80       0.1561
     86  C         -5.2590   16.9190  -13.1510 C.2    80  VAL80       0.2260
     87  O         -5.3920   17.4530  -12.0500 O.2    80  VAL80      -0.2867
     88  CB        -7.2640   15.4600  -13.5530 C.3    80  VAL80       0.0252
     89  CG1       -7.6780   16.2860  -14.7630 C.3    80  VAL80       0.0019
     90  CG2       -7.7600   14.0270  -13.6890 C.3    80  VAL80       0.0019
@<TRIPOS>BOND
     1    73    72    1
     2    70    72   ar
     3    70    68   ar
     4    72    71   ar
     5    65    64    2
     6    68    67   ar
     7    71    69   ar
     8    58    57    2
     9    60    59    1
    10    62    63    1
    11    57    56    1
    12    67    69   ar
    13    67    66    1
    14    64    63    1
    15    83    82   ar
    16    83    81   ar
    17    63    66    1
    18    47    46    2
    19    59    56    1
    20    59    61    1
    21    82    80   ar
    22    81    79   ar
    23    50    49    1
    24    50    51    1
    25    56    55    1
    26    48    49    1
    27    48    45    1
    28    51    52    2
    29    46    45    1
    30    80    79   ar
    31    45    44    1
    32    52    53    1
    33    52    54    1
    34    74    75    1
    35    77    76    2
    36    79    78    1
    37    76    75    1
    38    75    78    1
    39    44    38   am
    40    39    38    2
    41    38    37    1
    42     9     8    1
    43    30    29    2
    44    89    88    1
    45    29    28    1
    46     8     7    1
    47    37    40    1
    48    37    36    1
    49    31    28    1
    50    31    32    1
    51    41    40    1
    52    41    43    1
    53    41    42    1
    54    90    88    1
    55    88    85    1
    56    85    86    1
    57    85    84    1
    58    28    27    1
    59    32    33    1
    60    86    87    2
    61     7     6    1
    62    33    35   ar
    63    33    34   ar
    64     6     5    1
    65    16    15    1
    66     5     2    1
    67    25    24   ar
    68    24    26   ar
    69    24    23    1
    70     2     1    1
    71     2     3    1
    72    15    14    1
    73    15    17    1
    74    14    11    1
    75    23    22    1
    76    22    19    1
    77     4     3    2
    78    19    18    1
    79    19    20    1
    80    13    12    2
    81    18    12   am
    82    12    11    1
    83    11    10    1
    84    21    20    2
