@<TRIPOS>MOLECULE
tmp/5os0A01.pdb
 101 97 0 0 0
SMALL
GASTEIGER

@<TRIPOS>ATOM
      1  N         -7.7590   11.8680   -9.3660 N.3    40  LYS40      -0.1245
      2  CA        -8.7700   11.0380  -10.0250 C.3    40  LYS40       0.1561
      3  C         -9.5400   10.1590   -9.0380 C.2    40  LYS40       0.2260
      4  O        -10.7420    9.9300   -9.2150 O.2    40  LYS40      -0.2867
      5  CB        -8.1220   10.1740  -11.1250 C.3    40  LYS40       0.0271
      6  CG        -7.8090   10.9600  -12.4130 C.3    40  LYS40       0.0035
      7  CD        -7.1860   10.0860  -13.5030 C.3    40  LYS40       0.0206
      8  CE        -7.0440   10.8690  -14.8030 C.3    40  LYS40       0.1093
      9  NZ        -6.4450   10.0720  -15.9120 N.3    40  LYS40      -0.1314
     10  N        -12.2080   12.2420   -7.4740 N.3    43  LEU43      -0.1231
     11  CA       -13.2620   12.5870   -8.4270 C.3    43  LEU43       0.1693
     12  C        -14.2090   11.4030   -8.6590 C.2    43  LEU43       0.2591
     13  O        -15.4300   11.5770   -8.7140 O.2    43  LEU43      -0.2718
     14  CB       -12.6610   13.0460   -9.7580 C.3    43  LEU43       0.0284
     15  CG       -11.8340   14.3380   -9.7720 C.3    43  LEU43       0.0019
     16  CD1      -11.2010   14.4650  -11.1310 C.3    43  LEU43       0.0001
     17  CD2      -12.6800   15.5700   -9.4700 C.3    43  LEU43       0.0001
     18  N        -13.6290   10.2120   -8.7970 N.am   44  GLU44      -0.1979
     19  CA       -14.3960    8.9890   -9.0290 C.3    44  GLU44       0.1602
     20  C        -15.2450    8.6300   -7.8120 C.2    44  GLU44       0.2287
     21  O        -16.4130    8.2670   -7.9390 O.2    44  GLU44      -0.2864
     22  CB       -13.4550    7.8240   -9.3910 C.3    44  GLU44       0.0415
     23  CG       -14.1720    6.5090   -9.7200 C.3    44  GLU44       0.1163
     24  CD       -13.2540    5.4720  -10.3710 C.2    44  GLU44       0.3649
     25  OE1      -13.1920    4.3250   -9.8720 O.co2  44  GLU44      -0.2457
     26  OE2      -12.5990    5.8010  -11.3880 O.co2  44  GLU44      -0.2457
     27  N        -17.2440   13.4770  -12.1480 N.3    49  GLU49      -0.1245
     28  CA       -16.6100   13.5730  -13.4680 C.3    49  GLU49       0.1567
     29  C        -17.3440   14.5460  -14.3860 C.2    49  GLU49       0.2260
     30  O        -16.7180   15.2490  -15.1630 O.2    49  GLU49      -0.2867
     31  CB       -16.5480   12.1920  -14.1530 C.3    49  GLU49       0.0388
     32  CG       -15.7800   11.1280  -13.4080 C.3    49  GLU49       0.1160
     33  CD       -16.6740   10.2230  -12.5660 C.2    49  GLU49       0.3649
     34  OE1      -17.7860   10.6400  -12.1740 O.co2  49  GLU49      -0.2457
     35  OE2      -16.2480    9.0880  -12.2860 O.co2  49  GLU49      -0.2457
     36  N        -16.5450   18.2390  -13.7360 N.3    52  LEU52      -0.1231
     37  CA       -15.2540   18.5630  -14.3040 C.3    52  LEU52       0.1693
     38  C        -15.3450   18.8540  -15.8180 C.2    52  LEU52       0.2591
     39  O        -14.7630   19.8170  -16.3150 O.2    52  LEU52      -0.2718
     40  CB       -14.2660   17.4320  -14.0380 C.3    52  LEU52       0.0284
     41  CG       -12.9070   17.5990  -14.6900 C.3    52  LEU52       0.0019
     42  CD1      -12.2830   18.8750  -14.1800 C.3    52  LEU52       0.0001
     43  CD2      -12.0250   16.4090  -14.3880 C.3    52  LEU52       0.0001
     44  N        -16.0890   18.0230  -16.5430 N.am   53  ARG53      -0.1980
     45  CA       -16.2420   18.2190  -17.9780 C.3    53  ARG53       0.1597
     46  C        -16.9460   19.5220  -18.2830 C.2    53  ARG53       0.2287
     47  O        -16.5900   20.2090  -19.2390 O.2    53  ARG53      -0.2864
     48  CB       -17.0100   17.0450  -18.6060 C.3    53  ARG53       0.0334
     49  CG       -16.1290   15.9360  -19.1140 C.3    53  ARG53       0.0492
     50  CD       -16.9480   14.8040  -19.7440 C.3    53  ARG53       0.2205
     51  NE       -16.8370   13.5920  -18.9390 N.pl3  53  ARG53      -0.0865
     52  CZ       -15.9330   12.6500  -19.1670 C.cat  53  ARG53       0.5346
     53  NH1      -15.8760   11.5790  -18.3970 N.pl3  53  ARG53       0.1354
     54  NH2      -15.0880   12.7850  -20.1800 N.pl3  53  ARG53       0.1354
     55  N        -14.4710   22.5520  -17.7130 N.3    56  VAL56      -0.1245
     56  CA       -13.5940   22.6990  -18.8740 C.3    56  VAL56       0.1561
     57  C        -14.3200   23.2430  -20.1180 C.2    56  VAL56       0.2260
     58  O        -13.8890   24.2250  -20.7320 O.2    56  VAL56      -0.2867
     59  CB       -12.9440   21.3470  -19.2300 C.3    56  VAL56       0.0252
     60  CG1      -12.3220   21.4450  -20.5530 C.3    56  VAL56       0.0019
     61  CG2      -11.9210   20.9400  -18.1720 C.3    56  VAL56       0.0019
     62  N         -5.6500   21.5970  -20.5950 N.3    73  TYR73      -0.1227
     63  CA        -5.5710   20.5440  -19.5760 C.3    73  TYR73       0.1736
     64  C         -4.8710   19.2740  -20.0140 C.2    73  TYR73       0.2595
     65  O         -4.6440   19.0510  -21.1990 O.2    73  TYR73      -0.2718
     66  CB        -6.9520   20.1410  -19.1110 C.3    73  TYR73       0.0548
     67  CG        -7.9160   20.0320  -20.2120 C.ar   73  TYR73      -0.0200
     68  CD1       -8.6280   21.1540  -20.5590 C.ar   73  TYR73      -0.0009
     69  CD2       -8.0710   18.8630  -20.9330 C.ar   73  TYR73      -0.0009
     70  CE1       -9.4640   21.1050  -21.5260 C.ar   73  TYR73       0.0417
     71  CE2       -8.9980   18.7990  -21.9530 C.ar   73  TYR73       0.0417
     72  CZ        -9.6360   19.9650  -22.2080 C.ar   73  TYR73       0.1957
     73  OH       -10.5690   20.1470  -23.1730 O.3    73  TYR73      -0.2866
     74  N         -4.5840   18.4270  -19.0330 N.am   74  PHE74      -0.1962
     75  CA        -3.9440   17.1400  -19.2660 C.3    74  PHE74       0.1771
     76  C         -4.1440   16.2600  -18.0460 C.2    74  PHE74       0.2619
     77  O         -4.6590   16.7350  -17.0240 O.2    74  PHE74      -0.2715
     78  CB        -2.4490   17.2970  -19.6030 C.3    74  PHE74       0.0574
     79  CG        -1.6390   18.0790  -18.5900 C.ar   74  PHE74      -0.0200
     80  CD1       -1.6600   19.4680  -18.5890 C.ar   74  PHE74      -0.0042
     81  CD2       -0.8080   17.4240  -17.6880 C.ar   74  PHE74      -0.0042
     82  CE1       -0.9020   20.1950  -17.6790 C.ar   74  PHE74      -0.0003
     83  CE2       -0.0380   18.1370  -16.7690 C.ar   74  PHE74      -0.0003
     84  CZ        -0.0850   19.5250  -16.7670 C.ar   74  PHE74      -0.0000
     85  N         -3.7670   14.9830  -18.1500 N.am   75  HIS75      -0.1973
     86  CA        -3.9090   14.0620  -17.0170 C.3    75  HIS75       0.1656
     87  C         -2.9260   12.9070  -17.1070 C.2    75  HIS75       0.2291
     88  O         -2.3960   12.6330  -18.1770 O.2    75  HIS75      -0.2864
     89  CB        -5.3650   13.5590  -16.8950 C.3    75  HIS75       0.0771
     90  CG        -5.8970   12.8620  -18.1110 C.ar   75  HIS75       0.0820
     91  ND1       -5.5090   11.5900  -18.4760 N.ar   75  HIS75      -0.2267
     92  CD2       -6.8230   13.2480  -19.0220 C.ar   75  HIS75       0.1154
     93  CE1       -6.1580   11.2310  -19.5700 C.ar   75  HIS75       0.1986
     94  NE2       -6.9620   12.2190  -19.9210 N.ar   75  HIS75      -0.2212
     95  N         -5.7620   14.9620  -12.6620 N.3    80  VAL80      -0.1245
     96  CA        -6.1450   15.8330  -13.7670 C.3    80  VAL80       0.1561
     97  C         -5.6150   17.2600  -13.4910 C.2    80  VAL80       0.2260
     98  O         -5.7050   17.7290  -12.3690 O.2    80  VAL80      -0.2867
     99  CB        -7.6830   15.8690  -13.9710 C.3    80  VAL80       0.0252
    100  CG1       -8.0640   16.8470  -15.0630 C.3    80  VAL80       0.0019
    101  CG2       -8.2220   14.4510  -14.2880 C.3    80  VAL80       0.0019
@<TRIPOS>BOND
     1    73    72    1
     2    72    71   ar
     3    72    70   ar
     4    71    69   ar
     5    70    68   ar
     6    65    64    2
     7    69    67   ar
     8    58    57    2
     9    62    63    1
    10    68    67   ar
    11    60    59    1
    12    67    66    1
    13    54    52    1
    14    57    56    1
    15    64    63    1
    16    64    74   am
    17    94    93   ar
    18    94    92   ar
    19    50    49    1
    20    50    51    1
    21    78    75    1
    22    78    79    1
    23    63    66    1
    24    93    91   ar
    25    75    74    1
    26    75    76    1
    27    47    46    2
    28    59    56    1
    29    59    61    1
    30    52    51    2
    31    52    53    1
    32    49    48    1
    33    92    90   ar
    34    56    55    1
    35    48    45    1
    36    79    80   ar
    37    79    81   ar
    38    80    82   ar
    39    91    90   ar
    40    46    45    1
    41    88    87    2
    42    85    76   am
    43    85    86    1
    44    90    89    1
    45    76    77    2
    46    45    44    1
    47    81    83   ar
    48    82    84   ar
    49    87    86    1
    50    86    89    1
    51    83    84   ar
    52    44    38   am
    53    39    38    2
    54     9     8    1
    55    38    37    1
    56    30    29    2
    57   100    99    1
    58     8     7    1
    59    41    43    1
    60    41    42    1
    61    41    40    1
    62    29    28    1
    63    37    40    1
    64    37    36    1
    65   101    99    1
    66    31    28    1
    67    31    32    1
    68    99    96    1
    69    96    97    1
    70    96    95    1
    71     7     6    1
    72    97    98    2
    73    28    27    1
    74    32    33    1
    75    33    35   ar
    76    33    34   ar
    77     6     5    1
    78    26    24   ar
    79    16    15    1
    80     5     2    1
    81    24    25   ar
    82    24    23    1
    83     2     1    1
    84     2     3    1
    85    15    14    1
    86    15    17    1
    87    14    11    1
    88    23    22    1
    89    22    19    1
    90     4     3    2
    91    19    18    1
    92    19    20    1
    93    18    12   am
    94    13    12    2
    95    12    11    1
    96    11    10    1
    97    21    20    2
