@<TRIPOS>MOLECULE
tmp/5os1A01.pdb
 99 93 0 0 0
SMALL
GASTEIGER

@<TRIPOS>ATOM
      1  N         -7.7510   11.6540   -9.0850 N.3    40  LYS40      -0.1245
      2  CA        -8.7700   10.8370   -9.7480 C.3    40  LYS40       0.1561
      3  C         -9.5170    9.9360   -8.7670 C.2    40  LYS40       0.2260
      4  O        -10.7280    9.7140   -8.9110 O.2    40  LYS40      -0.2867
      5  CB        -8.1440    9.9890  -10.8530 C.3    40  LYS40       0.0271
      6  CG        -7.7090   10.7750  -12.0890 C.3    40  LYS40       0.0035
      7  CD        -7.0980    9.8360  -13.1180 C.3    40  LYS40       0.0206
      8  CE        -6.7190   10.5570  -14.4020 C.3    40  LYS40       0.1093
      9  NZ        -6.2320    9.5810  -15.4170 N.3    40  LYS40      -0.1314
     10  N        -12.1010   12.0520   -7.2380 N.3    43  LEU43      -0.1231
     11  CA       -13.1360   12.3750   -8.2260 C.3    43  LEU43       0.1693
     12  C        -14.0870   11.2000   -8.4550 C.2    43  LEU43       0.2591
     13  O        -15.3040   11.3840   -8.5640 O.2    43  LEU43      -0.2718
     14  CB       -12.5010   12.7840   -9.5600 C.3    43  LEU43       0.0284
     15  CG       -11.7330   14.1150   -9.5950 C.3    43  LEU43       0.0019
     16  CD1      -10.9700   14.2040  -10.8850 C.3    43  LEU43       0.0001
     17  CD2      -12.6630   15.3070   -9.4620 C.3    43  LEU43       0.0001
     18  N        -13.5320    9.9930   -8.5350 N.am   44  GLU44      -0.1979
     19  CA       -14.3500    8.8080   -8.8200 C.3    44  GLU44       0.1602
     20  C        -15.1920    8.4220   -7.6100 C.2    44  GLU44       0.2287
     21  O        -16.3350    7.9970   -7.7430 O.2    44  GLU44      -0.2864
     22  CB       -13.4780    7.6220   -9.2650 C.3    44  GLU44       0.0415
     23  CG       -14.2730    6.2970   -9.3480 C.3    44  GLU44       0.1163
     24  CD       -13.5320    5.1690  -10.0600 C.2    44  GLU44       0.3649
     25  OE1      -12.5880    5.4760  -10.8180 O.co2  44  GLU44      -0.2457
     26  OE2      -13.9390    3.9840   -9.9250 O.co2  44  GLU44      -0.2457
     27  N        -17.1040   13.2990  -12.0310 N.3    49  GLU49      -0.1245
     28  CA       -16.4400   13.4080  -13.3260 C.3    49  GLU49       0.1567
     29  C        -17.2060   14.3440  -14.2730 C.2    49  GLU49       0.2260
     30  O        -16.6040   15.1110  -15.0210 O.2    49  GLU49      -0.2867
     31  CB       -16.2980   12.0220  -13.9820 C.3    49  GLU49       0.0388
     32  CG       -15.5750   10.9760  -13.1350 C.3    49  GLU49       0.1160
     33  CD       -16.5220    9.9870  -12.4630 C.2    49  GLU49       0.3649
     34  OE1      -17.6170   10.4030  -12.0240 O.co2  49  GLU49      -0.2457
     35  OE2      -16.1750    8.7880  -12.3890 O.co2  49  GLU49      -0.2457
     36  N        -16.4210   18.0860  -13.5970 N.3    52  LEU52      -0.1231
     37  CA       -15.1380   18.4900  -14.1460 C.3    52  LEU52       0.1693
     38  C        -15.1910   18.6620  -15.6720 C.2    52  LEU52       0.2591
     39  O        -14.5920   19.5940  -16.2180 O.2    52  LEU52      -0.2718
     40  CB       -14.0630   17.4720  -13.7720 C.3    52  LEU52       0.0284
     41  CG       -12.6220   17.8640  -14.0810 C.3    52  LEU52       0.0019
     42  CD1      -12.2910   19.1960  -13.4370 C.3    52  LEU52       0.0001
     43  CD2      -11.6700   16.7940  -13.5950 C.3    52  LEU52       0.0001
     44  N        -15.8890   17.7700  -16.3690 N.am   53  ARG53      -0.1980
     45  CA       -15.9980   17.9180  -17.8190 C.3    53  ARG53       0.1597
     46  C        -16.7190   19.2070  -18.1550 C.2    53  ARG53       0.2287
     47  O        -16.3400   19.8950  -19.0930 O.2    53  ARG53      -0.2864
     48  CB       -16.7110   16.7270  -18.4660 C.3    53  ARG53       0.0334
     49  CG       -15.8120   15.5170  -18.5940 C.3    53  ARG53       0.0492
     50  CD       -16.3450   14.4850  -19.5900 C.3    53  ARG53       0.2205
     51  NE       -15.5070   13.2930  -19.5230 N.pl3  53  ARG53      -0.0865
     52  CZ       -15.6760   12.3370  -18.6180 C.cat  53  ARG53       0.5346
     53  NH1      -16.6620   12.4360  -17.7330 N.pl3  53  ARG53       0.1354
     54  NH2      -14.8700   11.2840  -18.6040 N.pl3  53  ARG53       0.1354
     55  N        -14.3260   22.2880  -17.6300 N.3    56  VAL56      -0.1231
     56  CA       -13.4390   22.4660  -18.7850 C.3    56  VAL56       0.1692
     57  C        -14.1750   22.9790  -20.0240 C.2    56  VAL56       0.2591
     58  O        -13.7740   23.9790  -20.6190 O.2    56  VAL56      -0.2718
     59  CB       -12.7120   21.1470  -19.1400 C.3    56  VAL56       0.0266
     60  CG1      -11.9600   21.2950  -20.4520 C.3    56  VAL56       0.0020
     61  CG2      -11.7620   20.7490  -18.0150 C.3    56  VAL56       0.0020
     62  N        -15.2430   22.2920  -20.4120 N.am   57  GLU57      -0.1979
     63  CA       -16.0080   22.6650  -21.5930 C.3    57  GLU57       0.1602
     64  C        -16.5980   24.0690  -21.5440 C.2    57  GLU57       0.2287
     65  O        -16.4950   24.8150  -22.5190 O.2    57  GLU57      -0.2864
     66  CB       -17.1320   21.6620  -21.8250 C.3    57  GLU57       0.0415
     67  CG       -16.6580   20.3200  -22.3550 C.3    57  GLU57       0.1163
     68  CD       -17.8010   19.3430  -22.5330 C.2    57  GLU57       0.3649
     69  OE1      -18.9480   19.7200  -22.1980 O.co2  57  GLU57      -0.2457
     70  OE2      -17.5570   18.2140  -23.0190 O.co2  57  GLU57      -0.2457
     71  N         -6.0320   21.2200  -20.4210 N.3    73  TYR73      -0.1241
     72  CA        -5.8990   20.2300  -19.3610 C.3    73  TYR73       0.1605
     73  C         -5.0860   19.0400  -19.8380 C.2    73  TYR73       0.2264
     74  O         -4.9610   18.8010  -21.0410 O.2    73  TYR73      -0.2867
     75  CB        -7.2770   19.7700  -18.8830 C.3    73  TYR73       0.0534
     76  CG        -7.9400   18.7730  -19.8150 C.ar   73  TYR73      -0.0201
     77  CD1       -8.6860   19.1930  -20.9090 C.ar   73  TYR73      -0.0009
     78  CD2       -7.7960   17.4080  -19.6050 C.ar   73  TYR73      -0.0009
     79  CE1       -9.2830   18.2620  -21.7680 C.ar   73  TYR73       0.0417
     80  CE2       -8.3790   16.4880  -20.4440 C.ar   73  TYR73       0.0417
     81  CZ        -9.1190   16.9120  -21.5240 C.ar   73  TYR73       0.1957
     82  OH        -9.6920   15.9620  -22.3490 O.3    73  TYR73      -0.2866
     83  N         -3.5840   14.8920  -18.0400 N.3    75  HIS75      -0.1241
     84  CA        -3.7440   13.9860  -16.9060 C.3    75  HIS75       0.1621
     85  C         -2.7860   12.8150  -16.9630 C.2    75  HIS75       0.2264
     86  O         -2.3130   12.4390  -18.0390 O.2    75  HIS75      -0.2867
     87  CB        -5.1950   13.4760  -16.8150 C.3    75  HIS75       0.0745
     88  CG        -5.6470   12.6780  -18.0040 C.ar   75  HIS75       0.0817
     89  ND1       -5.6760   11.2990  -18.0080 N.ar   75  HIS75      -0.2268
     90  CD2       -6.1260   13.0680  -19.2100 C.ar   75  HIS75       0.1154
     91  CE1       -6.1240   10.8730  -19.1760 C.ar   75  HIS75       0.1986
     92  NE2       -6.4110   11.9250  -19.9220 N.ar   75  HIS75      -0.2212
     93  N         -5.5960   14.7620  -12.4400 N.3    80  VAL80      -0.1245
     94  CA        -6.0020   15.6050  -13.5540 C.3    80  VAL80       0.1561
     95  C         -5.5060   17.0340  -13.2740 C.2    80  VAL80       0.2260
     96  O         -5.5730   17.5020  -12.1360 O.2    80  VAL80      -0.2867
     97  CB        -7.5340   15.5900  -13.7600 C.3    80  VAL80       0.0252
     98  CG1       -7.9410   16.5160  -14.9060 C.3    80  VAL80       0.0019
     99  CG2       -8.0210   14.1470  -14.0170 C.3    80  VAL80       0.0019
@<TRIPOS>BOND
     1    70    68   ar
     2    68    67    1
     3    68    69   ar
     4    65    64    2
     5    67    66    1
     6    82    81    1
     7    66    63    1
     8    79    81   ar
     9    79    77   ar
    10    63    64    1
    11    63    62    1
    12    81    80   ar
    13    74    73    2
    14    77    76   ar
    15    58    57    2
    16    60    59    1
    17    80    78   ar
    18    71    72    1
    19    62    57   am
    20    57    56    1
    21    92    90   ar
    22    92    91   ar
    23    73    72    1
    24    76    78   ar
    25    76    75    1
    26    50    51    1
    27    50    49    1
    28    51    52    2
    29    72    75    1
    30    90    88   ar
    31    91    89   ar
    32    59    56    1
    33    59    61    1
    34    47    46    2
    35    56    55    1
    36    52    54    1
    37    52    53    1
    38    49    48    1
    39    48    45    1
    40    46    45    1
    41    83    84    1
    42    86    85    2
    43    89    88   ar
    44    88    87    1
    45    45    44    1
    46    85    84    1
    47    84    87    1
    48    44    38   am
    49    39    38    2
    50    38    37    1
    51     9     8    1
    52    30    29    2
    53    98    97    1
    54     8     7    1
    55    29    28    1
    56    37    40    1
    57    37    36    1
    58    41    40    1
    59    41    43    1
    60    41    42    1
    61    99    97    1
    62    31    28    1
    63    31    32    1
    64    97    94    1
    65    94    95    1
    66    94    93    1
    67    28    27    1
    68    95    96    2
    69    32    33    1
    70     7     6    1
    71    33    35   ar
    72    33    34   ar
    73     6     5    1
    74    16    15    1
    75     5     2    1
    76    25    24   ar
    77    24    26   ar
    78    24    23    1
    79     2     1    1
    80     2     3    1
    81    15    14    1
    82    15    17    1
    83    14    11    1
    84    23    22    1
    85    22    19    1
    86     4     3    2
    87    19    18    1
    88    19    20    1
    89    13    12    2
    90    18    12   am
    91    12    11    1
    92    11    10    1
    93    21    20    2
