@<TRIPOS>MOLECULE
tmp/5os2A01.pdb
 99 93 0 0 0
SMALL
GASTEIGER

@<TRIPOS>ATOM
      1  N         -7.4730   11.5480   -8.8020 N.3    40  LYS40      -0.1245
      2  CA        -8.4660   10.6980   -9.4730 C.3    40  LYS40       0.1561
      3  C         -9.2500    9.8080   -8.5130 C.2    40  LYS40       0.2260
      4  O        -10.4530    9.6070   -8.6920 O.2    40  LYS40      -0.2867
      5  CB        -7.7950    9.8290  -10.5240 C.3    40  LYS40       0.0271
      6  CG        -7.5090   10.5510  -11.8260 C.3    40  LYS40       0.0035
      7  CD        -6.7790    9.6250  -12.7790 C.3    40  LYS40       0.0206
      8  CE        -6.5320   10.2870  -14.1080 C.3    40  LYS40       0.1093
      9  NZ        -5.8640    9.3800  -15.0750 N.3    40  LYS40      -0.1314
     10  N        -11.8260   12.0590   -7.0600 N.3    43  LEU43      -0.1231
     11  CA       -12.8200   12.3020   -8.1150 C.3    43  LEU43       0.1693
     12  C        -13.7470   11.0980   -8.3560 C.2    43  LEU43       0.2591
     13  O        -14.9720   11.2420   -8.4960 O.2    43  LEU43      -0.2718
     14  CB       -12.1310   12.6560   -9.4290 C.3    43  LEU43       0.0284
     15  CG       -11.3830   13.9840   -9.4940 C.3    43  LEU43       0.0019
     16  CD1      -10.6570   14.0710  -10.8060 C.3    43  LEU43       0.0001
     17  CD2      -12.3080   15.1860   -9.3150 C.3    43  LEU43       0.0001
     18  N        -13.1460    9.9140   -8.4350 N.am   44  GLU44      -0.1979
     19  CA       -13.9080    8.7050   -8.6980 C.3    44  GLU44       0.1602
     20  C        -14.8070    8.3610   -7.5000 C.2    44  GLU44       0.2287
     21  O        -15.9780    8.0220   -7.6810 O.2    44  GLU44      -0.2864
     22  CB       -12.9780    7.5390   -9.0360 C.3    44  GLU44       0.0415
     23  CG       -13.7400    6.2470   -9.3730 C.3    44  GLU44       0.1163
     24  CD       -12.8370    5.1000   -9.8020 C.2    44  GLU44       0.3649
     25  OE1      -12.4100    4.3100   -8.9270 O.co2  44  GLU44      -0.2457
     26  OE2      -12.5610    4.9810  -11.0160 O.co2  44  GLU44      -0.2457
     27  N        -16.9350   13.2470  -12.0570 N.3    49  GLU49      -0.1245
     28  CA       -16.2680   13.3040  -13.3530 C.3    49  GLU49       0.1567
     29  C        -16.9900   14.2740  -14.2860 C.2    49  GLU49       0.2260
     30  O        -16.3580   15.0750  -14.9670 O.2    49  GLU49      -0.2867
     31  CB       -16.1900   11.9080  -14.0080 C.3    49  GLU49       0.0388
     32  CG       -15.3990   10.8480  -13.2330 C.3    49  GLU49       0.1160
     33  CD       -16.2970    9.9660  -12.3650 C.2    49  GLU49       0.3649
     34  OE1      -17.4030   10.4250  -11.9930 O.co2  49  GLU49      -0.2457
     35  OE2      -15.8950    8.8190  -12.0590 O.co2  49  GLU49      -0.2457
     36  N        -16.3340   17.9690  -13.5980 N.3    52  LEU52      -0.1231
     37  CA       -14.9800   18.2880  -14.0750 C.3    52  LEU52       0.1693
     38  C        -14.9380   18.5040  -15.6090 C.2    52  LEU52       0.2591
     39  O        -14.3010   19.4310  -16.1060 O.2    52  LEU52      -0.2718
     40  CB       -13.9980   17.1890  -13.6980 C.3    52  LEU52       0.0284
     41  CG       -12.5400   17.5770  -13.9350 C.3    52  LEU52       0.0019
     42  CD1      -12.3050   18.9940  -13.4170 C.3    52  LEU52       0.0001
     43  CD2      -11.6230   16.5950  -13.2460 C.3    52  LEU52       0.0001
     44  N        -15.6230   17.6350  -16.3480 N.am   53  ARG53      -0.1980
     45  CA       -15.7650   17.7960  -17.7980 C.3    53  ARG53       0.1597
     46  C        -16.4520   19.1120  -18.1580 C.2    53  ARG53       0.2287
     47  O        -16.0360   19.8130  -19.0750 O.2    53  ARG53      -0.2864
     48  CB       -16.5520   16.6190  -18.3740 C.3    53  ARG53       0.0334
     49  CG       -16.4270   16.4690  -19.8570 C.3    53  ARG53       0.0492
     50  CD       -16.4590   15.0090  -20.2100 C.3    53  ARG53       0.2205
     51  NE       -16.9470   14.1730  -19.1070 N.pl3  53  ARG53      -0.0865
     52  CZ       -16.3770   13.0490  -18.7550 C.cat  53  ARG53       0.5346
     53  NH1      -15.2970   12.6280  -19.4140 N.pl3  53  ARG53       0.1354
     54  NH2      -16.8340   12.3100  -17.7570 N.pl3  53  ARG53       0.1354
     55  N        -14.0110   22.1200  -17.6410 N.3    56  VAL56      -0.1231
     56  CA       -13.0650   22.2850  -18.7500 C.3    56  VAL56       0.1692
     57  C        -13.7510   22.8330  -20.0180 C.2    56  VAL56       0.2591
     58  O        -13.3050   23.8250  -20.6050 O.2    56  VAL56      -0.2718
     59  CB       -12.3450   20.9600  -19.0830 C.3    56  VAL56       0.0266
     60  CG1      -11.5240   21.1080  -20.3630 C.3    56  VAL56       0.0020
     61  CG2      -11.4430   20.5530  -17.9390 C.3    56  VAL56       0.0020
     62  N        -14.8390   22.1900  -20.4260 N.am   57  GLU57      -0.1979
     63  CA       -15.4980   22.5900  -21.6620 C.3    57  GLU57       0.1602
     64  C        -16.0700   23.9990  -21.5970 C.2    57  GLU57       0.2287
     65  O        -15.8740   24.7930  -22.5240 O.2    57  GLU57      -0.2864
     66  CB       -16.5900   21.5840  -22.0230 C.3    57  GLU57       0.0415
     67  CG       -16.0110   20.3460  -22.7300 C.3    57  GLU57       0.1163
     68  CD       -17.0520   19.2720  -23.0670 C.2    57  GLU57       0.3649
     69  OE1      -18.2500   19.4720  -22.7680 O.co2  57  GLU57      -0.2457
     70  OE2      -16.6580   18.2190  -23.6280 O.co2  57  GLU57      -0.2457
     71  N         -5.5800   20.9300  -20.2270 N.3    73  TYR73      -0.1241
     72  CA        -5.5410   19.9280  -19.1780 C.3    73  TYR73       0.1605
     73  C         -4.7320   18.7230  -19.6160 C.2    73  TYR73       0.2264
     74  O         -4.4700   18.5360  -20.7970 O.2    73  TYR73      -0.2867
     75  CB        -6.9540   19.4840  -18.7860 C.3    73  TYR73       0.0534
     76  CG        -7.6050   18.5200  -19.7610 C.ar   73  TYR73      -0.0201
     77  CD1       -8.3010   18.9860  -20.8660 C.ar   73  TYR73      -0.0009
     78  CD2       -7.5230   17.1410  -19.5700 C.ar   73  TYR73      -0.0009
     79  CE1       -8.8950   18.1070  -21.7600 C.ar   73  TYR73       0.0417
     80  CE2       -8.1080   16.2540  -20.4530 C.ar   73  TYR73       0.0417
     81  CZ        -8.7890   16.7410  -21.5510 C.ar   73  TYR73       0.1957
     82  OH        -9.3790   15.8520  -22.4330 O.3    73  TYR73      -0.2866
     83  N         -3.4350   14.5370  -17.6950 N.3    75  HIS75      -0.1241
     84  CA        -3.5780   13.6560  -16.5430 C.3    75  HIS75       0.1621
     85  C         -2.5740   12.5190  -16.6200 C.2    75  HIS75       0.2264
     86  O         -1.9990   12.2800  -17.6810 O.2    75  HIS75      -0.2867
     87  CB        -5.0120   13.1180  -16.4280 C.3    75  HIS75       0.0745
     88  CG        -5.5420   12.4780  -17.6750 C.ar   75  HIS75       0.0817
     89  ND1       -5.7780   13.1820  -18.8380 N.ar   75  HIS75      -0.2268
     90  CD2       -5.9090   11.1970  -17.9300 C.ar   75  HIS75       0.1154
     91  CE1       -6.2540   12.3620  -19.7580 C.ar   75  HIS75       0.1986
     92  NE2       -6.3420   11.1520  -19.2340 N.ar   75  HIS75      -0.2212
     93  N         -5.4390   14.5760  -12.1890 N.3    80  VAL80      -0.1245
     94  CA        -5.7980   15.4260  -13.3100 C.3    80  VAL80       0.1561
     95  C         -5.2440   16.8430  -13.0540 C.2    80  VAL80       0.2260
     96  O         -5.2570   17.3120  -11.9110 O.2    80  VAL80      -0.2867
     97  CB        -7.3260   15.4860  -13.5230 C.3    80  VAL80       0.0252
     98  CG1       -7.6610   16.2110  -14.8470 C.3    80  VAL80       0.0019
     99  CG2       -7.9300   14.0740  -13.4990 C.3    80  VAL80       0.0019
@<TRIPOS>BOND
     1    70    68   ar
     2    68    69   ar
     3    68    67    1
     4    67    66    1
     5    65    64    2
     6    82    81    1
     7    66    63    1
     8    79    81   ar
     9    79    77   ar
    10    63    64    1
    11    63    62    1
    12    81    80   ar
    13    77    76   ar
    14    74    73    2
    15    58    57    2
    16    80    78   ar
    17    62    57   am
    18    60    59    1
    19    71    72    1
    20    50    49    1
    21    50    51    1
    22    57    56    1
    23    49    48    1
    24    76    78   ar
    25    76    75    1
    26    91    92   ar
    27    91    89   ar
    28    73    72    1
    29    53    52    1
    30    92    90   ar
    31    72    75    1
    32    51    52    2
    33    59    56    1
    34    59    61    1
    35    47    46    2
    36    89    88   ar
    37    52    54    1
    38    56    55    1
    39    48    45    1
    40    46    45    1
    41    90    88   ar
    42    45    44    1
    43    83    84    1
    44    86    85    2
    45    88    87    1
    46    85    84    1
    47    84    87    1
    48    44    38   am
    49    39    38    2
    50    38    37    1
    51     9     8    1
    52    30    29    2
    53    98    97    1
    54    29    28    1
    55     8     7    1
    56    37    40    1
    57    37    36    1
    58    31    28    1
    59    31    32    1
    60    41    40    1
    61    41    42    1
    62    41    43    1
    63    97    99    1
    64    97    94    1
    65    28    27    1
    66    94    95    1
    67    94    93    1
    68    32    33    1
    69    95    96    2
    70     7     6    1
    71    33    35   ar
    72    33    34   ar
    73     6     5    1
    74    26    24   ar
    75    16    15    1
    76     5     2    1
    77    24    23    1
    78    24    25   ar
    79    15    14    1
    80    15    17    1
    81     2     1    1
    82     2     3    1
    83    14    11    1
    84    23    22    1
    85    22    19    1
    86    19    18    1
    87    19    20    1
    88     4     3    2
    89    13    12    2
    90    18    12   am
    91    12    11    1
    92    11    10    1
    93    21    20    2
