@<TRIPOS>MOLECULE
tmp/5os3A01.pdb
 99 93 0 0 0
SMALL
GASTEIGER

@<TRIPOS>ATOM
      1  N         -7.5820   11.4640   -9.0860 N.3    40  LYS40      -0.1245
      2  CA        -8.5490   10.6130   -9.7840 C.3    40  LYS40       0.1561
      3  C         -9.3510    9.7380   -8.8240 C.2    40  LYS40       0.2260
      4  O        -10.5500    9.5380   -9.0200 O.2    40  LYS40      -0.2867
      5  CB        -7.8370    9.7330  -10.8190 C.3    40  LYS40       0.0271
      6  CG        -7.5000   10.4550  -12.1250 C.3    40  LYS40       0.0035
      7  CD        -6.6640    9.5800  -13.0490 C.3    40  LYS40       0.0206
      8  CE        -6.4600   10.2540  -14.3890 C.3    40  LYS40       0.1093
      9  NZ        -5.8150    9.3350  -15.3640 N.3    40  LYS40      -0.1314
     10  N        -11.9960   11.9430   -7.2130 N.3    43  LEU43      -0.1231
     11  CA       -12.9990   12.2360   -8.2510 C.3    43  LEU43       0.1693
     12  C        -13.9840   11.0710   -8.4750 C.2    43  LEU43       0.2591
     13  O        -15.2030   11.2640   -8.5310 O.2    43  LEU43      -0.2718
     14  CB       -12.3100   12.5740   -9.5810 C.3    43  LEU43       0.0284
     15  CG       -11.5430   13.8990   -9.6720 C.3    43  LEU43       0.0019
     16  CD1      -10.8610   14.0270  -11.0200 C.3    43  LEU43       0.0001
     17  CD2      -12.4610   15.0810   -9.4300 C.3    43  LEU43       0.0001
     18  N        -13.4330    9.8700   -8.6120 N.am   44  GLU44      -0.1979
     19  CA       -14.2320    8.6700   -8.8420 C.3    44  GLU44       0.1602
     20  C        -15.0940    8.3210   -7.6270 C.2    44  GLU44       0.2287
     21  O        -16.2700    7.9900   -7.7670 O.2    44  GLU44      -0.2864
     22  CB       -13.3210    7.4930   -9.2060 C.3    44  GLU44       0.0415
     23  CG       -12.8800    7.4470  -10.6670 C.3    44  GLU44       0.1163
     24  CD       -11.9950    6.2390  -11.0010 C.2    44  GLU44       0.3649
     25  OE1      -11.8700    5.3130  -10.1620 O.co2  44  GLU44      -0.2457
     26  OE2      -11.4160    6.2210  -12.1100 O.co2  44  GLU44      -0.2457
     27  N        -16.9690   13.1470  -12.0180 N.3    49  GLU49      -0.1245
     28  CA       -16.3900   13.2270  -13.3580 C.3    49  GLU49       0.1567
     29  C        -17.1250   14.2140  -14.2710 C.2    49  GLU49       0.2260
     30  O        -16.4930   14.9440  -15.0170 O.2    49  GLU49      -0.2867
     31  CB       -16.3790   11.8430  -14.0260 C.3    49  GLU49       0.0388
     32  CG       -15.5320   10.8060  -13.3070 C.3    49  GLU49       0.1160
     33  CD       -16.3720    9.8410  -12.4910 C.2    49  GLU49       0.3649
     34  OE1      -17.4690   10.2340  -12.0310 O.co2  49  GLU49      -0.2457
     35  OE2      -15.9380    8.6850  -12.3170 O.co2  49  GLU49      -0.2457
     36  N        -16.1400   17.8780  -13.6500 N.3    52  LEU52      -0.1231
     37  CA       -14.8260   18.1720  -14.2170 C.3    52  LEU52       0.1693
     38  C        -14.9270   18.4290  -15.7190 C.2    52  LEU52       0.2591
     39  O        -14.3640   19.3980  -16.2390 O.2    52  LEU52      -0.2718
     40  CB       -13.8510   17.0220  -13.9320 C.3    52  LEU52       0.0284
     41  CG       -12.3990   17.2490  -14.3420 C.3    52  LEU52       0.0019
     42  CD1      -11.8280   18.4170  -13.5600 C.3    52  LEU52       0.0001
     43  CD2      -11.5530   15.9970  -14.1640 C.3    52  LEU52       0.0001
     44  N        -15.6610   17.5620  -16.4160 N.am   53  ARG53      -0.1980
     45  CA       -15.8840   17.7360  -17.8470 C.3    53  ARG53       0.1597
     46  C        -16.5690   19.0610  -18.1550 C.2    53  ARG53       0.2287
     47  O        -16.1920   19.7400  -19.1000 O.2    53  ARG53      -0.2864
     48  CB       -16.7060   16.5590  -18.4100 C.3    53  ARG53       0.0334
     49  CG       -16.0140   15.2060  -18.2410 C.3    53  ARG53       0.0492
     50  CD       -16.6500   14.1030  -19.0940 C.3    53  ARG53       0.2205
     51  NE       -16.1630   12.7770  -18.7120 N.pl3  53  ARG53      -0.0865
     52  CZ       -15.0290   12.2450  -19.1570 C.cat  53  ARG53       0.5346
     53  NH1      -14.2590   12.9280  -19.9990 N.pl3  53  ARG53       0.1354
     54  NH2      -14.6540   11.0370  -18.7590 N.pl3  53  ARG53       0.1354
     55  N        -14.0530   22.1520  -17.6580 N.3    56  VAL56      -0.1231
     56  CA       -13.1670   22.2860  -18.8120 C.3    56  VAL56       0.1692
     57  C        -13.9150   22.8050  -20.0560 C.2    56  VAL56       0.2591
     58  O        -13.4760   23.7690  -20.6840 O.2    56  VAL56      -0.2718
     59  CB       -12.4540   20.9250  -19.1420 C.3    56  VAL56       0.0266
     60  CG1      -11.7730   20.9770  -20.4870 C.3    56  VAL56       0.0020
     61  CG2      -11.4250   20.5820  -18.0700 C.3    56  VAL56       0.0020
     62  N        -15.0410   22.1900  -20.4060 N.am   57  GLU57      -0.1979
     63  CA       -15.7580   22.6190  -21.6130 C.3    57  GLU57       0.1602
     64  C        -16.2740   24.0470  -21.5630 C.2    57  GLU57       0.2287
     65  O        -16.0260   24.8320  -22.4860 O.2    57  GLU57      -0.2864
     66  CB       -16.9220   21.6690  -21.9000 C.3    57  GLU57       0.0415
     67  CG       -16.4550   20.2500  -22.1500 C.3    57  GLU57       0.1163
     68  CD       -17.5730   19.3190  -22.5350 C.2    57  GLU57       0.3649
     69  OE1      -18.7490   19.7130  -22.3880 O.co2  57  GLU57      -0.2457
     70  OE2      -17.2670   18.1900  -22.9750 O.co2  57  GLU57      -0.2457
     71  N         -5.7760   20.9430  -20.3660 N.3    73  TYR73      -0.1241
     72  CA        -5.5890   19.9530  -19.3160 C.3    73  TYR73       0.1605
     73  C         -4.7670   18.7490  -19.7690 C.2    73  TYR73       0.2264
     74  O         -4.5310   18.5570  -20.9620 O.2    73  TYR73      -0.2867
     75  CB        -6.9460   19.4800  -18.7930 C.3    73  TYR73       0.0534
     76  CG        -7.6610   18.4820  -19.6910 C.ar   73  TYR73      -0.0201
     77  CD1       -8.3970   18.9090  -20.7880 C.ar   73  TYR73      -0.0009
     78  CD2       -7.6030   17.1160  -19.4260 C.ar   73  TYR73      -0.0009
     79  CE1       -9.0500   18.0050  -21.6080 C.ar   73  TYR73       0.0417
     80  CE2       -8.2570   16.2010  -20.2420 C.ar   73  TYR73       0.0417
     81  CZ        -8.9770   16.6550  -21.3270 C.ar   73  TYR73       0.1957
     82  OH        -9.6270   15.7550  -22.1420 O.3    73  TYR73      -0.2866
     83  N         -3.3760   14.5420  -17.8780 N.3    75  HIS75      -0.1241
     84  CA        -3.5070   13.6330  -16.7310 C.3    75  HIS75       0.1621
     85  C         -2.4740   12.5110  -16.7610 C.2    75  HIS75       0.2264
     86  O         -1.8610   12.2530  -17.8020 O.2    75  HIS75      -0.2867
     87  CB        -4.9310   13.0450  -16.6450 C.3    75  HIS75       0.0745
     88  CG        -5.3410   12.2290  -17.8330 C.ar   75  HIS75       0.0817
     89  ND1       -5.2730   12.7010  -19.1270 N.ar   75  HIS75      -0.2268
     90  CD2       -5.8580   10.9800  -17.9170 C.ar   75  HIS75       0.1154
     91  CE1       -5.7100   11.7710  -19.9580 C.ar   75  HIS75       0.1986
     92  NE2       -6.0690   10.7150  -19.2490 N.ar   75  HIS75      -0.2212
     93  N         -5.4060   14.5180  -12.3480 N.3    80  VAL80      -0.1245
     94  CA        -5.7810   15.3550  -13.4740 C.3    80  VAL80       0.1561
     95  C         -5.2920   16.7950  -13.1940 C.2    80  VAL80       0.2260
     96  O         -5.3650   17.2660  -12.0550 O.2    80  VAL80      -0.2867
     97  CB        -7.3160   15.3140  -13.7160 C.3    80  VAL80       0.0252
     98  CG1       -7.7380   16.2700  -14.8220 C.3    80  VAL80       0.0019
     99  CG2       -7.7490   13.8780  -14.0580 C.3    80  VAL80       0.0019
@<TRIPOS>BOND
     1    70    68   ar
     2    68    69   ar
     3    68    67    1
     4    65    64    2
     5    67    66    1
     6    82    81    1
     7    66    63    1
     8    63    64    1
     9    63    62    1
    10    79    81   ar
    11    79    77   ar
    12    81    80   ar
    13    74    73    2
    14    77    76   ar
    15    58    57    2
    16    60    59    1
    17    62    57   am
    18    71    72    1
    19    80    78   ar
    20    57    56    1
    21    53    52    1
    22    91    92   ar
    23    91    89   ar
    24    73    72    1
    25    76    78   ar
    26    76    75    1
    27    72    75    1
    28    92    90   ar
    29    52    54    1
    30    52    51    2
    31    59    56    1
    32    59    61    1
    33    89    88   ar
    34    47    46    2
    35    50    51    1
    36    50    49    1
    37    56    55    1
    38    48    49    1
    39    48    45    1
    40    46    45    1
    41    90    88   ar
    42    83    84    1
    43    45    44    1
    44    88    87    1
    45    86    85    2
    46    85    84    1
    47    84    87    1
    48    44    38   am
    49    39    38    2
    50    38    37    1
    51     9     8    1
    52    30    29    2
    53    98    97    1
    54     8     7    1
    55    41    43    1
    56    41    40    1
    57    41    42    1
    58    29    28    1
    59    37    40    1
    60    37    36    1
    61    99    97    1
    62    31    28    1
    63    31    32    1
    64    97    94    1
    65    94    95    1
    66    94    93    1
    67    28    27    1
    68    32    33    1
    69    95    96    2
    70     7     6    1
    71    33    35   ar
    72    33    34   ar
    73     6     5    1
    74    26    24   ar
    75    16    15    1
    76    24    23    1
    77    24    25   ar
    78     5     2    1
    79    23    22    1
    80     2     1    1
    81     2     3    1
    82    15    14    1
    83    15    17    1
    84    14    11    1
    85    22    19    1
    86     4     3    2
    87    19    18    1
    88    19    20    1
    89    18    12   am
    90    13    12    2
    91    12    11    1
    92    11    10    1
    93    21    20    2
