@<TRIPOS>MOLECULE
tmp/5os4A01.pdb
 99 93 0 0 0
SMALL
GASTEIGER

@<TRIPOS>ATOM
      1  N         -7.4020   11.4140   -8.8770 N.3    40  LYS40      -0.1245
      2  CA        -8.3840   10.5460   -9.5390 C.3    40  LYS40       0.1561
      3  C         -9.1510    9.6540   -8.5620 C.2    40  LYS40       0.2260
      4  O        -10.3430    9.4270   -8.7470 O.2    40  LYS40      -0.2867
      5  CB        -7.6990    9.6870  -10.6130 C.3    40  LYS40       0.0271
      6  CG        -7.4320   10.4580  -11.9160 C.3    40  LYS40       0.0035
      7  CD        -6.6860    9.6040  -12.9480 C.3    40  LYS40       0.0206
      8  CE        -6.6300   10.2800  -14.2930 C.3    40  LYS40       0.1093
      9  NZ        -6.0450    9.3920  -15.3480 N.3    40  LYS40      -0.1314
     10  N        -11.8110   11.9450   -7.1120 N.3    43  LEU43      -0.1231
     11  CA       -12.8240   12.1790   -8.1420 C.3    43  LEU43       0.1693
     12  C        -13.7470   10.9620   -8.3190 C.2    43  LEU43       0.2591
     13  O        -14.9670   11.1070   -8.4390 O.2    43  LEU43      -0.2718
     14  CB       -12.1550   12.5230   -9.4750 C.3    43  LEU43       0.0284
     15  CG       -11.3690   13.8350   -9.4710 C.3    43  LEU43       0.0019
     16  CD1      -10.5020   13.9490  -10.7200 C.3    43  LEU43       0.0001
     17  CD2      -12.3010   15.0340   -9.3470 C.3    43  LEU43       0.0001
     18  N        -13.1490    9.7710   -8.3310 N.am   44  GLU44      -0.1979
     19  CA       -13.8930    8.5340   -8.5510 C.3    44  GLU44       0.1602
     20  C        -14.7650    8.1900   -7.3350 C.2    44  GLU44       0.2287
     21  O        -15.9150    7.7550   -7.4780 O.2    44  GLU44      -0.2864
     22  CB       -12.9310    7.3890   -8.8690 C.3    44  GLU44       0.0415
     23  CG       -13.6270    6.0780   -9.2730 C.3    44  GLU44       0.1163
     24  CD       -12.6430    4.9770   -9.6590 C.2    44  GLU44       0.3649
     25  OE1      -12.5800    3.9520   -8.9450 O.co2  44  GLU44      -0.2457
     26  OE2      -11.9420    5.1300  -10.6830 O.co2  44  GLU44      -0.2457
     27  N        -16.7980   13.1130  -11.9520 N.3    49  GLU49      -0.1245
     28  CA       -16.2010   13.2450  -13.2890 C.3    49  GLU49       0.1567
     29  C        -17.0030   14.1860  -14.2060 C.2    49  GLU49       0.2260
     30  O        -16.4260   14.9130  -14.9990 O.2    49  GLU49      -0.2867
     31  CB       -16.0670   11.8700  -13.9800 C.3    49  GLU49       0.0388
     32  CG       -15.2570   10.8210  -13.2160 C.3    49  GLU49       0.1160
     33  CD       -16.1420    9.8810  -12.4020 C.2    49  GLU49       0.3649
     34  OE1      -17.2730   10.2830  -12.0550 O.co2  49  GLU49      -0.2457
     35  OE2      -15.7040    8.7470  -12.1210 O.co2  49  GLU49      -0.2457
     36  N        -16.2330   17.9100  -13.6310 N.3    52  LEU52      -0.1231
     37  CA       -14.9070   18.3040  -14.0860 C.3    52  LEU52       0.1693
     38  C        -14.9020   18.5140  -15.6160 C.2    52  LEU52       0.2591
     39  O        -14.2870   19.4600  -16.1250 O.2    52  LEU52      -0.2718
     40  CB       -13.8700   17.2740  -13.6500 C.3    52  LEU52       0.0284
     41  CG       -12.4220   17.6620  -13.9470 C.3    52  LEU52       0.0019
     42  CD1      -12.0980   18.9390  -13.1970 C.3    52  LEU52       0.0001
     43  CD2      -11.5190   16.5330  -13.5030 C.3    52  LEU52       0.0001
     44  N        -15.6000   17.6470  -16.3480 N.am   53  ARG53      -0.1980
     45  CA       -15.7390   17.8220  -17.7960 C.3    53  ARG53       0.1597
     46  C        -16.4480   19.1180  -18.1390 C.2    53  ARG53       0.2287
     47  O        -16.0660   19.8100  -19.0720 O.2    53  ARG53      -0.2864
     48  CB       -16.4970   16.6580  -18.4250 C.3    53  ARG53       0.0334
     49  CG       -15.6270   15.4570  -18.7210 C.3    53  ARG53       0.0492
     50  CD       -16.3580   14.4200  -19.5750 C.3    53  ARG53       0.2205
     51  NE       -15.5640   13.2010  -19.6790 N.pl3  53  ARG53      -0.0865
     52  CZ       -15.6150   12.2200  -18.7900 C.cat  53  ARG53       0.5346
     53  NH1      -16.4280   12.3230  -17.7510 N.pl3  53  ARG53       0.1354
     54  NH2      -14.8610   11.1430  -18.9430 N.pl3  53  ARG53       0.1354
     55  N        -14.0780   22.2110  -17.6370 N.3    56  VAL56      -0.1231
     56  CA       -13.1900   22.3810  -18.7830 C.3    56  VAL56       0.1692
     57  C        -13.9430   22.8700  -20.0310 C.2    56  VAL56       0.2591
     58  O        -13.5430   23.8490  -20.6610 O.2    56  VAL56      -0.2718
     59  CB       -12.4300   21.0580  -19.1060 C.3    56  VAL56       0.0266
     60  CG1      -11.6540   21.1910  -20.4070 C.3    56  VAL56       0.0020
     61  CG2      -11.4840   20.7110  -17.9770 C.3    56  VAL56       0.0020
     62  N        -15.0400   22.2050  -20.3750 N.am   57  GLU57      -0.1979
     63  CA       -15.7870   22.5670  -21.5790 C.3    57  GLU57       0.1602
     64  C        -16.3210   23.9920  -21.5300 C.2    57  GLU57       0.2287
     65  O        -16.1590   24.7700  -22.4830 O.2    57  GLU57      -0.2864
     66  CB       -16.9470   21.6020  -21.8020 C.3    57  GLU57       0.0415
     67  CG       -16.5160   20.1840  -22.1660 C.3    57  GLU57       0.1163
     68  CD       -17.7010   19.2450  -22.3620 C.2    57  GLU57       0.3649
     69  OE1      -18.5590   19.5500  -23.2200 O.co2  57  GLU57      -0.2457
     70  OE2      -17.7740   18.2070  -21.6630 O.co2  57  GLU57      -0.2457
     71  N         -5.7940   21.0150  -20.2550 N.3    73  TYR73      -0.1241
     72  CA        -5.7410   20.0270  -19.1920 C.3    73  TYR73       0.1605
     73  C         -4.9340   18.8140  -19.6460 C.2    73  TYR73       0.2264
     74  O         -4.7490   18.6030  -20.8440 O.2    73  TYR73      -0.2867
     75  CB        -7.1530   19.6120  -18.7770 C.3    73  TYR73       0.0534
     76  CG        -7.8220   18.6600  -19.7550 C.ar   73  TYR73      -0.0201
     77  CD1       -8.4150   19.1320  -20.9220 C.ar   73  TYR73      -0.0009
     78  CD2       -7.8430   17.2890  -19.5150 C.ar   73  TYR73      -0.0009
     79  CE1       -9.0150   18.2620  -21.8210 C.ar   73  TYR73       0.0417
     80  CE2       -8.4350   16.4140  -20.4090 C.ar   73  TYR73       0.0417
     81  CZ        -9.0140   16.9060  -21.5610 C.ar   73  TYR73       0.1957
     82  OH        -9.6070   16.0320  -22.4500 O.3    73  TYR73      -0.2866
     83  N         -3.6270   14.5660  -17.8460 N.3    75  HIS75      -0.1241
     84  CA        -3.7710   13.6390  -16.7210 C.3    75  HIS75       0.1621
     85  C         -2.7830   12.4840  -16.8140 C.2    75  HIS75       0.2264
     86  O         -2.2590   12.2100  -17.8910 O.2    75  HIS75      -0.2867
     87  CB        -5.2080   13.1040  -16.6190 C.3    75  HIS75       0.0745
     88  CG        -5.6980   12.3800  -17.8400 C.ar   75  HIS75       0.0817
     89  ND1       -6.1930   11.0940  -17.7860 N.ar   75  HIS75      -0.2268
     90  CD2       -5.8300   12.7790  -19.1280 C.ar   75  HIS75       0.1154
     91  CE1       -6.5760   10.7190  -18.9930 C.ar   75  HIS75       0.1986
     92  NE2       -6.3700   11.7240  -19.8250 N.ar   75  HIS75      -0.2212
     93  N         -5.4550   14.5110  -12.2860 N.3    80  VAL80      -0.1245
     94  CA        -5.8730   15.3460  -13.4050 C.3    80  VAL80       0.1561
     95  C         -5.3810   16.7880  -13.1490 C.2    80  VAL80       0.2260
     96  O         -5.4330   17.2610  -12.0110 O.2    80  VAL80      -0.2867
     97  CB        -7.4060   15.3330  -13.5960 C.3    80  VAL80       0.0252
     98  CG1       -7.8120   16.2390  -14.7470 C.3    80  VAL80       0.0019
     99  CG2       -7.9060   13.8980  -13.8370 C.3    80  VAL80       0.0019
@<TRIPOS>BOND
     1    69    68   ar
     2    65    64    2
     3    82    81    1
     4    68    67    1
     5    68    70   ar
     6    67    66    1
     7    79    81   ar
     8    79    77   ar
     9    66    63    1
    10    63    64    1
    11    63    62    1
    12    81    80   ar
    13    77    76   ar
    14    74    73    2
    15    58    57    2
    16    80    78   ar
    17    60    59    1
    18    62    57   am
    19    71    72    1
    20    57    56    1
    21    92    90   ar
    22    92    91   ar
    23    76    78   ar
    24    76    75    1
    25    51    50    1
    26    51    52    2
    27    73    72    1
    28    50    49    1
    29    72    75    1
    30    90    88   ar
    31    59    56    1
    32    59    61    1
    33    47    46    2
    34    91    89   ar
    35    54    52    1
    36    52    53    1
    37    56    55    1
    38    49    48    1
    39    48    45    1
    40    46    45    1
    41    86    85    2
    42    83    84    1
    43    88    89   ar
    44    88    87    1
    45    45    44    1
    46    85    84    1
    47    84    87    1
    48    44    38   am
    49    39    38    2
    50    38    37    1
    51     9     8    1
    52    30    29    2
    53    98    97    1
    54     8     7    1
    55    29    28    1
    56    37    40    1
    57    37    36    1
    58    31    28    1
    59    31    32    1
    60    41    40    1
    61    41    43    1
    62    41    42    1
    63    99    97    1
    64    97    94    1
    65    94    95    1
    66    94    93    1
    67    28    27    1
    68    32    33    1
    69    95    96    2
    70     7     6    1
    71    33    35   ar
    72    33    34   ar
    73     6     5    1
    74    16    15    1
    75    26    24   ar
    76     5     2    1
    77    24    23    1
    78    24    25   ar
    79     2     1    1
    80     2     3    1
    81    14    15    1
    82    14    11    1
    83    15    17    1
    84    23    22    1
    85    22    19    1
    86     4     3    2
    87    19    18    1
    88    19    20    1
    89    13    12    2
    90    18    12   am
    91    12    11    1
    92    11    10    1
    93    21    20    2
