@<TRIPOS>MOLECULE
tmp/5os5A01.pdb
 90 84 0 0 0
SMALL
GASTEIGER

@<TRIPOS>ATOM
      1  N         -8.0740   12.0340   -9.5580 N.3    42  LYS42      -0.1245
      2  CA        -9.0750   11.2110  -10.2360 C.3    42  LYS42       0.1561
      3  C         -9.8330   10.3130   -9.2610 C.2    42  LYS42       0.2260
      4  O        -11.0260   10.0600   -9.4490 O.2    42  LYS42      -0.2867
      5  CB        -8.4290   10.3660  -11.3430 C.3    42  LYS42       0.0271
      6  CG        -8.0770   11.1750  -12.5930 C.3    42  LYS42       0.0035
      7  CD        -7.5380   10.2810  -13.7030 C.3    42  LYS42       0.0206
      8  CE        -7.3170   11.0630  -14.9840 C.3    42  LYS42       0.1093
      9  NZ        -6.7080   10.2240  -16.0550 N.3    42  LYS42      -0.1314
     10  N        -12.5110   12.4340   -7.5310 N.3    45  LEU45      -0.1245
     11  CA       -13.5580   12.6940   -8.5250 C.3    45  LEU45       0.1561
     12  C        -14.4700   11.4910   -8.7500 C.2    45  LEU45       0.2260
     13  O        -15.6840   11.6490   -8.8460 O.2    45  LEU45      -0.2867
     14  CB       -12.9410   13.1130   -9.8710 C.3    45  LEU45       0.0270
     15  CG       -12.1730   14.4260   -9.8980 C.3    45  LEU45       0.0019
     16  CD1      -11.4160   14.5200  -11.2140 C.3    45  LEU45       0.0001
     17  CD2      -13.0970   15.6510   -9.7070 C.3    45  LEU45       0.0001
     18  N        -17.5230   13.6500  -12.1820 N.3    51  GLU51      -0.1245
     19  CA       -16.8200   13.7990  -13.4530 C.3    51  GLU51       0.1567
     20  C        -17.5600   14.7720  -14.3850 C.2    51  GLU51       0.2260
     21  O        -16.9340   15.5880  -15.0670 O.2    51  GLU51      -0.2867
     22  CB       -16.6620   12.4290  -14.1430 C.3    51  GLU51       0.0388
     23  CG       -15.9160   11.3750  -13.3140 C.3    51  GLU51       0.1160
     24  CD       -16.8290   10.4080  -12.5770 C.2    51  GLU51       0.3649
     25  OE1      -17.9770   10.7760  -12.2100 O.co2  51  GLU51      -0.2457
     26  OE2      -16.4160    9.2410  -12.3780 O.co2  51  GLU51      -0.2457
     27  N        -16.8520   18.5140  -13.7380 N.3    54  LEU54      -0.1231
     28  CA       -15.5680   18.9620  -14.2700 C.3    54  LEU54       0.1693
     29  C        -15.6330   19.1680  -15.7930 C.2    54  LEU54       0.2591
     30  O        -15.0530   20.1210  -16.3190 O.2    54  LEU54      -0.2718
     31  CB       -14.4470   17.9670  -13.8990 C.3    54  LEU54       0.0284
     32  CG       -12.9630   18.3520  -14.1280 C.3    54  LEU54       0.0019
     33  CD1      -12.0180   17.4210  -13.3940 C.3    54  LEU54       0.0001
     34  CD2      -12.5670   18.3510  -15.5920 C.3    54  LEU54       0.0001
     35  N        -16.3040   18.2760  -16.5220 N.am   55  ARG55      -0.1980
     36  CA       -16.4160   18.4680  -17.9690 C.3    55  ARG55       0.1597
     37  C        -17.1630   19.7560  -18.2940 C.2    55  ARG55       0.2287
     38  O        -16.7910   20.4670  -19.2260 O.2    55  ARG55      -0.2864
     39  CB       -17.1020   17.2700  -18.6370 C.3    55  ARG55       0.0334
     40  CG       -16.1760   16.0850  -18.7830 C.3    55  ARG55       0.0492
     41  CD       -16.7850   14.9430  -19.6020 C.3    55  ARG55       0.2205
     42  NE       -16.0240   13.7200  -19.3640 N.pl3  55  ARG55      -0.0865
     43  CZ       -16.3320   12.8090  -18.4430 C.cat  55  ARG55       0.5346
     44  NH1      -17.4100   12.9560  -17.6870 N.pl3  55  ARG55       0.1354
     45  NH2      -15.5600   11.7440  -18.2880 N.pl3  55  ARG55       0.1354
     46  N        -14.8510   22.8450  -17.6740 N.3    58  VAL58      -0.1231
     47  CA       -13.9670   23.0250  -18.8370 C.3    58  VAL58       0.1692
     48  C        -14.6780   23.5140  -20.1010 C.2    58  VAL58       0.2591
     49  O        -14.2690   24.5120  -20.7020 O.2    58  VAL58      -0.2718
     50  CB       -13.2130   21.7150  -19.1580 C.3    58  VAL58       0.0266
     51  CG1      -12.5010   21.7990  -20.5090 C.3    58  VAL58       0.0020
     52  CG2      -12.2300   21.3930  -18.0420 C.3    58  VAL58       0.0020
     53  N        -15.7280   22.8220  -20.5210 N.am   59  GLU59      -0.1979
     54  CA       -16.3740   23.1860  -21.7700 C.3    59  GLU59       0.1602
     55  C        -16.9780   24.5930  -21.7240 C.2    59  GLU59       0.2287
     56  O        -16.8340   25.3660  -22.6690 O.2    59  GLU59      -0.2864
     57  CB       -17.4410   22.1530  -22.1290 C.3    59  GLU59       0.0415
     58  CG       -16.8670   20.8540  -22.6800 C.3    59  GLU59       0.1163
     59  CD       -15.8470   21.0850  -23.7930 C.2    59  GLU59       0.3649
     60  OE1      -16.1430   21.8480  -24.7400 O.co2  59  GLU59      -0.2457
     61  OE2      -14.7450   20.4960  -23.7210 O.co2  59  GLU59      -0.2457
     62  N         -6.5270   21.9820  -20.7110 N.3    75  TYR75      -0.1241
     63  CA        -6.4280   20.9620  -19.6660 C.3    75  TYR75       0.1605
     64  C         -5.6040   19.7440  -20.1100 C.2    75  TYR75       0.2264
     65  O         -5.3140   19.5690  -21.2990 O.2    75  TYR75      -0.2867
     66  CB        -7.8290   20.5130  -19.2230 C.3    75  TYR75       0.0534
     67  CG        -8.5050   19.5940  -20.2180 C.ar   75  TYR75      -0.0201
     68  CD1       -9.2810   20.1070  -21.2480 C.ar   75  TYR75      -0.0009
     69  CD2       -8.3550   18.2140  -20.1300 C.ar   75  TYR75      -0.0009
     70  CE1       -9.8950   19.2610  -22.1740 C.ar   75  TYR75       0.0417
     71  CE2       -8.9600   17.3620  -21.0450 C.ar   75  TYR75       0.0417
     72  CZ        -9.7300   17.8920  -22.0640 C.ar   75  TYR75       0.1957
     73  OH       -10.3360   17.0400  -22.9670 O.3    75  TYR75      -0.2866
     74  N         -4.2130   15.4700  -18.3430 N.3    77  HIS77      -0.1241
     75  CA        -4.3090   14.5050  -17.2430 C.3    77  HIS77       0.1621
     76  C         -3.3140   13.3370  -17.3360 C.2    77  HIS77       0.2264
     77  O         -2.7600   13.0530  -18.4030 O.2    77  HIS77      -0.2867
     78  CB        -5.7400   13.9600  -17.1540 C.3    77  HIS77       0.0745
     79  CG        -6.2000   13.2400  -18.3850 C.ar   77  HIS77       0.0817
     80  ND1       -5.8620   11.9310  -18.6540 N.ar   77  HIS77      -0.2268
     81  CD2       -6.9930   13.6390  -19.4080 C.ar   77  HIS77       0.1154
     82  CE1       -6.4150   11.5590  -19.7950 C.ar   77  HIS77       0.1986
     83  NE2       -7.1110   12.5760  -20.2710 N.ar   77  HIS77      -0.2212
     84  N         -6.0100   15.2370  -12.8170 N.3    82  VAL82      -0.1245
     85  CA        -6.4580   16.1180  -13.9010 C.3    82  VAL82       0.1561
     86  C         -5.9520   17.5500  -13.6440 C.2    82  VAL82       0.2260
     87  O         -5.9850   17.9980  -12.5080 O.2    82  VAL82      -0.2867
     88  CB        -7.9820   16.1470  -14.0080 C.3    82  VAL82       0.0252
     89  CG1       -8.4130   17.0310  -15.1640 C.3    82  VAL82       0.0019
     90  CG2       -8.5320   14.7350  -14.1620 C.3    82  VAL82       0.0019
@<TRIPOS>BOND
     1    60    59   ar
     2    59    61   ar
     3    59    58    1
     4    73    72    1
     5    58    57    1
     6    56    55    2
     7    70    72   ar
     8    70    68   ar
     9    57    54    1
    10    72    71   ar
    11    54    55    1
    12    54    53    1
    13    65    64    2
    14    68    67   ar
    15    71    69   ar
    16    62    63    1
    17    49    48    2
    18    53    48   am
    19    51    50    1
    20    83    82   ar
    21    83    81   ar
    22    67    69   ar
    23    67    66    1
    24    64    63    1
    25    48    47    1
    26    82    80   ar
    27    63    66    1
    28    41    42    1
    29    41    40    1
    30    81    79   ar
    31    42    43    2
    32    38    37    2
    33    50    47    1
    34    50    52    1
    35    47    46    1
    36    40    39    1
    37    80    79   ar
    38    39    36    1
    39    43    45    1
    40    43    44    1
    41    77    76    2
    42    79    78    1
    43    74    75    1
    44    37    36    1
    45    36    35    1
    46    76    75    1
    47    75    78    1
    48    35    29   am
    49    30    29    2
    50     9     8    1
    51    29    28    1
    52    34    32    1
    53    89    88    1
    54    21    20    2
    55     8     7    1
    56    20    19    1
    57    28    31    1
    58    28    27    1
    59    90    88    1
    60    22    19    1
    61    22    23    1
    62    32    31    1
    63    32    33    1
    64    88    85    1
    65    85    86    1
    66    85    84    1
    67     7     6    1
    68    86    87    2
    69    19    18    1
    70    23    24    1
    71     6     5    1
    72    24    26   ar
    73    24    25   ar
    74     5     2    1
    75    16    15    1
    76     2     1    1
    77     2     3    1
    78    15    14    1
    79    15    17    1
    80    14    11    1
    81     4     3    2
    82    13    12    2
    83    12    11    1
    84    11    10    1
