@<TRIPOS>MOLECULE
tmp/5os6A01.pdb
 90 84 0 0 0
SMALL
GASTEIGER

@<TRIPOS>ATOM
      1  N         -7.8400   11.6180   -9.1070 N.3    40  LYS40      -0.1245
      2  CA        -8.8360   10.7380   -9.7280 C.3    40  LYS40       0.1561
      3  C         -9.6090    9.8720   -8.7210 C.2    40  LYS40       0.2260
      4  O        -10.8340    9.7840   -8.7960 O.2    40  LYS40      -0.2867
      5  CB        -8.1590    9.8550  -10.7650 C.3    40  LYS40       0.0271
      6  CG        -7.7930   10.5980  -12.0440 C.3    40  LYS40       0.0035
      7  CD        -7.0000    9.7230  -12.9840 C.3    40  LYS40       0.0206
      8  CE        -6.8050   10.3930  -14.3250 C.3    40  LYS40       0.1093
      9  NZ        -5.9780    9.5650  -15.2510 N.3    40  LYS40      -0.1314
     10  N        -12.1030   11.9730   -7.1830 N.3    43  LEU43      -0.1245
     11  CA       -13.1160   12.3240   -8.1800 C.3    43  LEU43       0.1561
     12  C        -14.1110   11.1880   -8.4560 C.2    43  LEU43       0.2260
     13  O        -15.3100   11.4340   -8.6230 O.2    43  LEU43      -0.2867
     14  CB       -12.4430   12.7380   -9.4900 C.3    43  LEU43       0.0270
     15  CG       -11.7780   14.1110   -9.5730 C.3    43  LEU43       0.0019
     16  CD1      -10.9260   14.1460  -10.8180 C.3    43  LEU43       0.0001
     17  CD2      -12.8130   15.2400   -9.6140 C.3    43  LEU43       0.0001
     18  N        -16.9570   13.3950  -12.0930 N.3    49  GLU49      -0.1245
     19  CA       -16.2880   13.5170  -13.3800 C.3    49  GLU49       0.1567
     20  C        -17.0370   14.4410  -14.3250 C.2    49  GLU49       0.2260
     21  O        -16.4310   15.1290  -15.1350 O.2    49  GLU49      -0.2867
     22  CB       -16.1350   12.1480  -14.0360 C.3    49  GLU49       0.0388
     23  CG       -15.3120   11.1700  -13.2320 C.3    49  GLU49       0.1160
     24  CD       -16.1440   10.1170  -12.5380 C.2    49  GLU49       0.3649
     25  OE1      -17.2460   10.4390  -12.0300 O.co2  49  GLU49      -0.2457
     26  OE2      -15.6850    8.9580  -12.5040 O.co2  49  GLU49      -0.2457
     27  N        -16.1380   18.1100  -13.8140 N.3    52  LEU52      -0.1231
     28  CA       -14.8290   18.4950  -14.3420 C.3    52  LEU52       0.1693
     29  C        -14.9030   18.7670  -15.8540 C.2    52  LEU52       0.2591
     30  O        -14.3160   19.7330  -16.3360 O.2    52  LEU52      -0.2718
     31  CB       -13.7930   17.4100  -14.0490 C.3    52  LEU52       0.0284
     32  CG       -12.2980   17.7360  -13.9820 C.3    52  LEU52       0.0019
     33  CD1      -11.5710   16.5250  -13.4670 C.3    52  LEU52       0.0001
     34  CD2      -11.7460   18.1040  -15.3290 C.3    52  LEU52       0.0001
     35  N        -15.6220   17.9320  -16.5890 N.am   53  ARG53      -0.1980
     36  CA       -15.8220   18.1190  -18.0210 C.3    53  ARG53       0.1597
     37  C        -16.4980   19.4450  -18.3060 C.2    53  ARG53       0.2287
     38  O        -16.1000   20.1580  -19.2010 O.2    53  ARG53      -0.2864
     39  CB       -16.6500   16.9800  -18.6010 C.3    53  ARG53       0.0334
     40  CG       -15.9260   15.6600  -18.5510 C.3    53  ARG53       0.0492
     41  CD       -16.6000   14.5760  -19.3820 C.3    53  ARG53       0.2205
     42  NE       -16.4580   13.2100  -18.8730 N.pl3  53  ARG53      -0.0865
     43  CZ       -15.3230   12.6320  -18.5000 C.cat  53  ARG53       0.5346
     44  NH1      -14.1660   13.2730  -18.5520 N.pl3  53  ARG53       0.1354
     45  NH2      -15.3610   11.3850  -18.0830 N.pl3  53  ARG53       0.1354
     46  N        -14.1620   22.3560  -17.9290 N.3    56  VAL56      -0.1231
     47  CA       -13.2160   22.4810  -19.0340 C.3    56  VAL56       0.1692
     48  C        -13.8950   23.0500  -20.2850 C.2    56  VAL56       0.2591
     49  O        -13.3650   23.9460  -20.9270 O.2    56  VAL56      -0.2718
     50  CB       -12.5620   21.1250  -19.3930 C.3    56  VAL56       0.0266
     51  CG1      -11.7660   21.2450  -20.6940 C.3    56  VAL56       0.0020
     52  CG2      -11.6700   20.6460  -18.2820 C.3    56  VAL56       0.0020
     53  N        -15.0700   22.5300  -20.6190 N.am   57  GLU57      -0.1979
     54  CA       -15.7840   22.9660  -21.8060 C.3    57  GLU57       0.1602
     55  C        -16.2460   24.4100  -21.7160 C.2    57  GLU57       0.2287
     56  O        -15.9200   25.2170  -22.5840 O.2    57  GLU57      -0.2864
     57  CB       -16.9840   22.0680  -22.0610 C.3    57  GLU57       0.0415
     58  CG       -16.5880   20.6700  -22.4440 C.3    57  GLU57       0.1163
     59  CD       -17.7760   19.7410  -22.5620 C.2    57  GLU57       0.3649
     60  OE1      -18.9080   20.1710  -22.2310 O.co2  57  GLU57      -0.2457
     61  OE2      -17.5670   18.5740  -22.9610 O.co2  57  GLU57      -0.2457
     62  N         -5.6130   21.0130  -20.3970 N.3    73  TYR73      -0.1241
     63  CA        -5.6500   19.9850  -19.3650 C.3    73  TYR73       0.1605
     64  C         -4.8450   18.7790  -19.8270 C.2    73  TYR73       0.2264
     65  O         -4.5290   18.6570  -20.9940 O.2    73  TYR73      -0.2867
     66  CB        -7.0980   19.5780  -19.0380 C.3    73  TYR73       0.0534
     67  CG        -7.7200   18.6030  -20.0230 C.ar   73  TYR73      -0.0201
     68  CD1       -8.3700   19.0480  -21.1650 C.ar   73  TYR73      -0.0009
     69  CD2       -7.6420   17.2290  -19.8090 C.ar   73  TYR73      -0.0009
     70  CE1       -8.9250   18.1500  -22.0630 C.ar   73  TYR73       0.0417
     71  CE2       -8.1870   16.3240  -20.7020 C.ar   73  TYR73       0.0417
     72  CZ        -8.8290   16.7860  -21.8280 C.ar   73  TYR73       0.1957
     73  OH        -9.3760   15.8840  -22.7180 O.3    73  TYR73      -0.2866
     74  N         -3.3890   14.5930  -17.8120 N.3    75  HIS75      -0.1245
     75  CA        -3.7860   13.7390  -16.6900 C.3    75  HIS75       0.1576
     76  C         -2.8290   12.5200  -16.7530 C.2    75  HIS75       0.2261
     77  O         -2.2290   12.3110  -17.8230 O.2    75  HIS75      -0.2867
     78  CB        -5.3080   13.5300  -16.8430 C.3    75  HIS75       0.0459
     79  CG        -5.7190   12.4630  -17.8120 C.3    75  HIS75       0.0936
     80  ND1       -4.9060   11.4030  -18.1400 N.3    75  HIS75      -0.1997
     81  CD2       -6.6620   12.5120  -18.7980 C.3    75  HIS75       0.1077
     82  CE1       -5.5000   10.6760  -19.0740 C.3    75  HIS75       0.1782
     83  NE2       -6.5480   11.3520  -19.5290 N.3    75  HIS75      -0.1983
     84  N         -5.5820   14.5450  -12.3770 N.3    80  VAL80      -0.1245
     85  CA        -5.9620   15.4190  -13.4790 C.3    80  VAL80       0.1561
     86  C         -5.4470   16.8490  -13.1930 C.2    80  VAL80       0.2260
     87  O         -5.4300   17.2970  -12.0350 O.2    80  VAL80      -0.2867
     88  CB        -7.5000   15.4420  -13.6860 C.3    80  VAL80       0.0252
     89  CG1       -7.8530   16.1970  -14.9490 C.3    80  VAL80       0.0019
     90  CG2       -8.0600   14.0270  -13.7200 C.3    80  VAL80       0.0019
@<TRIPOS>BOND
     1    61    59   ar
     2    73    72    1
     3    56    55    2
     4    59    58    1
     5    59    60   ar
     6    58    57    1
     7    70    72   ar
     8    70    68   ar
     9    57    54    1
    10    72    71   ar
    11    54    55    1
    12    54    53    1
    13    68    67   ar
    14    65    64    2
    15    49    48    2
    16    71    69   ar
    17    51    50    1
    18    53    48   am
    19    62    63    1
    20    48    47    1
    21    67    69   ar
    22    67    66    1
    23    64    63    1
    24    83    82    1
    25    83    81    1
    26    50    47    1
    27    50    52    1
    28    41    42    1
    29    41    40    1
    30    63    66    1
    31    38    37    2
    32    82    80    1
    33    47    46    1
    34    42    43    2
    35    81    79    1
    36    39    40    1
    37    39    36    1
    38    44    43    1
    39    43    45    1
    40    37    36    1
    41    80    79    1
    42    36    35    1
    43    77    76    2
    44    74    75    1
    45    79    78    1
    46    78    75    1
    47    76    75    1
    48    35    29   am
    49    30    29    2
    50    29    28    1
    51    34    32    1
    52     9     8    1
    53    21    20    2
    54    89    88    1
    55    28    31    1
    56    28    27    1
    57    20    19    1
    58     8     7    1
    59    31    32    1
    60    22    19    1
    61    22    23    1
    62    32    33    1
    63    90    88    1
    64    88    85    1
    65    85    86    1
    66    85    84    1
    67    19    18    1
    68    23    24    1
    69    86    87    2
    70     7     6    1
    71    24    26   ar
    72    24    25   ar
    73     6     5    1
    74    16    15    1
    75     5     2    1
    76     2     1    1
    77     2     3    1
    78    17    15    1
    79    15    14    1
    80    14    11    1
    81     4     3    2
    82    13    12    2
    83    12    11    1
    84    11    10    1
