@<TRIPOS>MOLECULE
tmp/5os7B01.pdb
 121 115 0 0 0
SMALL
GASTEIGER

@<TRIPOS>ATOM
      1  N         14.3210  123.4390  376.3280 N.3    34  GLN34      -0.1231
      2  CA        13.8130  122.9290  375.0440 C.3    34  GLN34       0.1698
      3  C         12.5810  122.0320  375.2700 C.2    34  GLN34       0.2592
      4  O         11.7090  121.9700  374.4130 O.2    34  GLN34      -0.2718
      5  CB        14.9020  122.1920  374.2530 C.3    34  GLN34       0.0381
      6  CG        15.3010  120.8090  374.7810 C.3    34  GLN34       0.0905
      7  CD        16.2520  120.8110  375.9660 C.2    34  GLN34       0.2608
      8  OE1       16.6420  121.8570  376.5200 O.2    34  GLN34      -0.2717
      9  NE2       16.6470  119.6170  376.3830 N.am   34  GLN34      -0.0878
     10  N         12.4870  121.3910  376.4660 N.am   35  ASP35      -0.1974
     11  CA        11.3520  120.5430  376.7970 C.3    35  ASP35       0.1709
     12  C         10.0590  121.3260  376.9980 C.2    35  ASP35       0.2293
     13  O          8.9860  120.7050  377.0230 O.2    35  ASP35      -0.2864
     14  CB        11.6610  119.6300  377.9950 C.3    35  ASP35       0.1436
     15  CG        12.8090  118.6480  377.7510 C.2    35  ASP35       0.3671
     16  OD1       13.0390  118.2610  376.5690 O.co2  35  ASP35      -0.2456
     17  OD2       13.4440  118.2220  378.7340 O.co2  35  ASP35      -0.2456
     18  N          8.8320  123.1220  374.7650 N.3    37  TYR37      -0.1227
     19  CA         8.3100  123.2420  373.4020 C.3    37  TYR37       0.1736
     20  C          8.1000  121.9240  372.6720 C.2    37  TYR37       0.2595
     21  O          9.0010  121.0700  372.6490 O.2    37  TYR37      -0.2718
     22  CB         9.2230  124.1710  372.5650 C.3    37  TYR37       0.0548
     23  CG         9.4660  125.4950  373.2570 C.ar   37  TYR37      -0.0200
     24  CD1        8.4800  126.4750  373.2920 C.ar   37  TYR37      -0.0009
     25  CD2       10.6260  125.7120  374.0050 C.ar   37  TYR37      -0.0009
     26  CE1        8.6470  127.6400  374.0240 C.ar   37  TYR37       0.0417
     27  CE2       10.8320  126.9100  374.6940 C.ar   37  TYR37       0.0417
     28  CZ         9.8410  127.8720  374.6980 C.ar   37  TYR37       0.1957
     29  OH         9.9710  129.0410  375.4030 O.3    37  TYR37      -0.2866
     30  N          6.9540  121.7960  372.0060 N.am   38  GLN38      -0.1965
     31  CA         6.6890  120.6240  371.1680 C.3    38  GLN38       0.1733
     32  C          6.4130  121.0850  369.7710 C.2    38  GLN38       0.2616
     33  O          5.5520  121.9380  369.5650 O.2    38  GLN38      -0.2715
     34  CB         5.5700  119.7340  371.7190 C.3    38  GLN38       0.0408
     35  CG         6.0640  118.8010  372.8330 C.3    38  GLN38       0.0908
     36  CD         4.9500  118.1490  373.6330 C.2    38  GLN38       0.2608
     37  OE1        3.7590  118.1690  373.2620 O.2    38  GLN38      -0.2717
     38  NE2        5.3120  117.5970  374.7840 N.am   38  GLN38      -0.0878
     39  N          7.2000  120.5750  368.8220 N.am   39  LEU39      -0.1977
     40  CA         7.1000  120.9250  367.4070 C.3    39  LEU39       0.1596
     41  C          5.8000  120.4200  366.7750 C.2    39  LEU39       0.2287
     42  O          5.4120  119.2700  367.0030 O.2    39  LEU39      -0.2864
     43  CB         8.3530  120.4670  366.6290 C.3    39  LEU39       0.0297
     44  CG         9.7070  121.0120  367.1540 C.3    39  LEU39       0.0022
     45  CD1       10.8610  120.5780  366.2670 C.3    39  LEU39       0.0001
     46  CD2        9.6980  122.5270  367.2910 C.3    39  LEU39       0.0001
     47  N          9.8320  126.0450  362.4390 N.3    52  PHE52      -0.1241
     48  CA         8.6990  125.2550  362.8970 C.3    52  PHE52       0.1605
     49  C          7.6790  126.0200  363.7060 C.2    52  PHE52       0.2264
     50  O          8.0030  126.9520  364.4470 O.2    52  PHE52      -0.2867
     51  CB         9.2020  124.0630  363.7140 C.3    52  PHE52       0.0534
     52  CG         9.9530  123.0350  362.9250 C.ar   52  PHE52      -0.0203
     53  CD1        9.2890  121.9640  362.3500 C.ar   52  PHE52      -0.0042
     54  CD2       11.3380  123.1040  362.7930 C.ar   52  PHE52      -0.0042
     55  CE1        9.9780  121.0020  361.6220 C.ar   52  PHE52      -0.0003
     56  CE2       12.0320  122.1350  362.0610 C.ar   52  PHE52      -0.0003
     57  CZ        11.3470  121.0780  361.4940 C.ar   52  PHE52      -0.0000
     58  N          9.7090  128.2850  366.2570 N.3    65  VAL65      -0.1245
     59  CA        11.0590  127.8240  366.6270 C.3    65  VAL65       0.1561
     60  C         11.9300  127.8260  365.3620 C.2    65  VAL65       0.2260
     61  O         11.6170  127.1460  364.3780 O.2    65  VAL65      -0.2867
     62  CB        11.0430  126.4140  367.3190 C.3    65  VAL65       0.0252
     63  CG1       12.4510  125.9210  367.6120 C.3    65  VAL65       0.0019
     64  CG2       10.2190  126.4140  368.6000 C.3    65  VAL65       0.0019
     65  N         15.4200  126.7260  364.0700 N.3    67  ILE67      -0.1245
     66  CA        16.5640  125.8830  364.3610 C.3    67  ILE67       0.1561
     67  C         17.7110  126.3710  363.4860 C.2    67  ILE67       0.2260
     68  O         17.5550  126.4180  362.2800 O.2    67  ILE67      -0.2867
     69  CB        16.1910  124.3950  364.1240 C.3    67  ILE67       0.0252
     70  CG1       15.1160  123.9390  365.1620 C.3    67  ILE67       0.0019
     71  CG2       17.4230  123.5090  364.1420 C.3    67  ILE67       0.0019
     72  CD1       14.3280  122.6980  364.7830 C.3    67  ILE67       0.0001
     73  N         16.8610  128.1700  373.0480 N.3    99  VAL99      -0.1231
     74  CA        16.9960  126.8140  373.5940 C.3    99  VAL99       0.1692
     75  C         18.0290  126.0380  372.7790 C.2    99  VAL99       0.2592
     76  O         18.4250  126.5050  371.7010 O.2    99  VAL99      -0.2718
     77  CB        15.6240  126.0660  373.6960 C.3    99  VAL99       0.0266
     78  CG1       14.6080  126.8350  374.5580 C.3    99  VAL99       0.0020
     79  CG2       15.0420  125.7470  372.3220 C.3    99  VAL99       0.0020
     80  N         18.4430  124.8330  373.2720 N.am  100  LYS100     -0.1966
     81  CA        19.4010  123.9590  372.6010 C.3   100  LYS100      0.1728
     82  C         18.9240  122.4980  372.5930 C.2   100  LYS100      0.2616
     83  O         18.2220  122.0690  373.5280 O.2   100  LYS100     -0.2715
     84  CB        20.7710  124.0480  373.3000 C.3   100  LYS100      0.0311
     85  CG        21.9570  123.5830  372.4600 C.3   100  LYS100      0.0038
     86  CD        23.2510  123.6810  373.2450 C.3   100  LYS100      0.0206
     87  CE        24.4740  123.3250  372.4400 C.3   100  LYS100      0.1093
     88  NZ        25.7050  123.3810  373.2750 N.3   100  LYS100     -0.1314
     89  N         19.3030  121.7440  371.5360 N.am  101  ASP101     -0.1958
     90  CA        19.0520  120.3010  371.4770 C.3   101  ASP101      0.1825
     91  C         20.3320  119.6920  372.0510 C.2   101  ASP101      0.2464
     92  O         21.3870  119.8110  371.4190 O.2   101  ASP101     -0.2730
     93  CB        18.7890  119.7530  370.0540 C.3   101  ASP101      0.1450
     94  CG        18.7710  118.2160  370.0190 C.2   101  ASP101      0.3671
     95  OD1       18.4190  117.5900  371.0590 O.co2 101  ASP101     -0.2456
     96  OD2       19.1300  117.6440  368.9780 O.co2 101  ASP101     -0.2456
     97  N         20.2690  119.0660  373.2510 N.am  102  PRO102     -0.2727
     98  CA        21.5030  118.5030  373.8470 C.3   102  PRO102      0.1402
     99  C         22.1570  117.3560  373.0920 C.2   102  PRO102      0.2269
    100  O         23.3760  117.2130  373.2090 O.2   102  PRO102     -0.2865
    101  CB        21.0850  118.0620  375.2440 C.3   102  PRO102      0.0296
    102  CG        19.6760  118.4980  375.4300 C.3   102  PRO102      0.0237
    103  CD        19.0900  118.8570  374.1210 C.3   102  PRO102      0.0939
    104  N         22.1230  116.6830  369.5250 N.3   104  SER104     -0.1217
    105  CA        22.8050  117.1440  368.3070 C.3   104  SER104      0.1889
    106  C         23.6590  118.4120  368.5040 C.2   104  SER104      0.2288
    107  O         24.4650  118.7240  367.6170 O.2   104  SER104     -0.2866
    108  CB        21.8040  117.3560  367.1760 C.3   104  SER104      0.2089
    109  OG        21.0360  118.5230  367.4230 O.3   104  SER104     -0.2183
    110  N         22.3960  121.6540  368.8350 N.3   106  THR106     -0.1218
    111  CA        21.8700  122.6370  367.9040 C.3   106  THR106      0.1862
    112  C         21.1420  123.7500  368.6340 C.2   106  THR106      0.2287
    113  O         20.2000  123.4680  369.3840 O.2   106  THR106     -0.2866
    114  CB        20.9530  121.9610  366.8570 C.3   106  THR106      0.1770
    115  OG1       21.6050  120.8450  366.2680 O.3   106  THR106     -0.2211
    116  CG2       20.5310  122.9080  365.7730 C.3   106  THR106      0.0375
    117  N         18.4990  126.9490  368.8780 N.3   108  ALA108     -0.1245
    118  CA        17.2240  127.3590  368.2960 C.3   108  ALA108      0.1562
    119  C         16.7090  128.6060  368.9950 C.2   108  ALA108      0.2260
    120  O         16.8730  128.7560  370.2020 O.2   108  ALA108     -0.2867
    121  CB        16.2060  126.2350  368.3770 C.3   108  ALA108      0.0290
@<TRIPOS>BOND
     1    57    55   ar
     2    57    56   ar
     3    55    53   ar
     4    56    54   ar
     5    68    67    2
     6    53    52   ar
     7    47    48    1
     8    54    52   ar
     9    48    49    1
    10    48    51    1
    11    52    51    1
    12    67    66    1
    13    49    50    2
    14    65    66    1
    15    69    71    1
    16    69    66    1
    17    69    70    1
    18    61    60    2
    19    72    70    1
    20    60    59    1
    21   116   114    1
    22    58    59    1
    23    45    44    1
    24   115   114    1
    25    59    62    1
    26    43    44    1
    27    43    40    1
    28    41    42    2
    29    41    40    1
    30   114   111    1
    31    44    46    1
    32   108   109    1
    33   108   105    1
    34    62    63    1
    35    62    64    1
    36    40    39    1
    37   107   106    2
    38   111   112    1
    39   111   110    1
    40   118   121    1
    41   118   117    1
    42   118   119    1
    43   105   106    1
    44   105   104    1
    45   112   113    2
    46    39    32   am
    47    96    94   ar
    48   119   120    2
    49    33    32    2
    50    32    31    1
    51    94    93    1
    52    94    95   ar
    53    93    90    1
    54    31    34    1
    55    31    30    1
    56    92    91    2
    57    90    89    1
    58    90    91    1
    59    89    82   am
    60    76    75    2
    61    34    35    1
    62    30    20   am
    63    91    97   am
    64    79    77    1
    65    87    86    1
    66    87    88    1
    67    85    86    1
    68    85    84    1
    69    22    23    1
    70    22    19    1
    71    82    81    1
    72    82    83    2
    73    81    80    1
    74    81    84    1
    75    21    20    2
    76    20    19    1
    77    75    80   am
    78    75    74    1
    79    35    36    1
    80    73    74    1
    81    99   100    2
    82    99    98    1
    83    97    98    1
    84    97   103    1
    85    23    24   ar
    86    23    25   ar
    87    37    36    2
    88    24    26   ar
    89    19    18    1
    90    74    77    1
    91    36    38   am
    92    77    78    1
    93    98   101    1
    94    25    27   ar
    95    26    28   ar
    96   103   102    1
    97     5     6    1
    98     5     2    1
    99     4     3    2
   100    27    28   ar
   101    28    29    1
   102     6     7    1
   103     2     3    1
   104     2     1    1
   105   101   102    1
   106     3    10   am
   107     7     9   am
   108     7     8    2
   109    10    11    1
   110    16    15   ar
   111    11    12    1
   112    11    14    1
   113    12    13    2
   114    15    14    1
   115    15    17   ar
