@<TRIPOS>MOLECULE
tmp/5os7B00.pdb
 177 169 0 0 0
SMALL
GASTEIGER

@<TRIPOS>ATOM
      1  N          0.8520  134.1850  359.4090 N.3   116  ASN116     -0.1225
      2  CA         1.2310  134.7580  358.1240 C.3   116  ASN116      0.1785
      3  C          0.3150  134.3360  356.9780 C.2   116  ASN116      0.2597
      4  O          0.1140  133.1440  356.7320 O.2   116  ASN116     -0.2718
      5  CB         2.7020  134.4640  357.8330 C.3   116  ASN116      0.1169
      6  CG         3.2760  135.1320  356.6070 C.2   116  ASN116      0.2627
      7  OD1        4.0110  134.5200  355.8230 O.2   116  ASN116     -0.2716
      8  ND2        2.9960  136.4030  356.4340 N.am  116  ASN116     -0.0877
      9  N         -0.3740  135.3350  356.4220 N.am  117  THR117     -0.1953
     10  CA        -1.3290  135.1680  355.3330 C.3   117  THR117      0.1897
     11  C         -0.5720  134.9700  354.0180 C.2   117  THR117      0.2313
     12  O          0.5240  135.5240  353.8360 O.2   117  THR117     -0.2863
     13  CB        -2.3470  136.3410  355.3030 C.3   117  THR117      0.1794
     14  OG1       -2.6820  136.7690  356.6370 O.3   117  THR117     -0.2208
     15  CG2       -3.6160  135.9850  354.5490 C.3   117  THR117      0.0378
     16  N          0.8060  135.3690  350.4960 N.3   119  PHE119     -0.1241
     17  CA         1.1290  136.5590  349.7240 C.3   119  PHE119      0.1605
     18  C          0.2700  136.6710  348.4650 C.2   119  PHE119      0.2264
     19  O         -0.2360  137.7470  348.1460 O.2   119  PHE119     -0.2867
     20  CB         2.6130  136.5040  349.3440 C.3   119  PHE119      0.0534
     21  CG         3.1300  137.7490  348.6800 C.ar  119  PHE119     -0.0203
     22  CD1        2.4190  138.3680  347.6670 C.ar  119  PHE119     -0.0042
     23  CD2        4.3560  138.2750  349.0430 C.ar  119  PHE119     -0.0042
     24  CE1        2.9080  139.5040  347.0520 C.ar  119  PHE119     -0.0003
     25  CE2        4.8530  139.4070  348.4270 C.ar  119  PHE119     -0.0003
     26  CZ         4.1270  140.0240  347.4310 C.ar  119  PHE119     -0.0000
     27  N         -3.1710  137.5370  349.4440 N.3   122  LEU122     -0.1231
     28  CA        -3.1000  138.9170  349.9350 C.3   122  LEU122      0.1693
     29  C         -3.1530  139.9450  348.8100 C.2   122  LEU122      0.2592
     30  O         -3.7380  141.0130  348.9570 O.2   122  LEU122     -0.2718
     31  CB        -1.8300  139.1250  350.7630 C.3   122  LEU122      0.0284
     32  CG        -1.9630  140.0350  351.9810 C.3   122  LEU122      0.0019
     33  CD1       -3.0330  139.4860  352.9080 C.3   122  LEU122      0.0001
     34  CD2       -0.6360  140.1580  352.7150 C.3   122  LEU122      0.0001
     35  N         -2.5670  139.5860  347.6760 N.am  123  TYR123     -0.1976
     36  CA        -2.4530  140.4280  346.4950 C.3   123  TYR123      0.1639
     37  C         -3.8250  140.8900  346.0010 C.2   123  TYR123      0.2290
     38  O         -3.9850  142.0440  345.6080 O.2   123  TYR123     -0.2864
     39  CB        -1.8460  139.5520  345.3980 C.3   123  TYR123      0.0560
     40  CG        -0.6990  140.1070  344.5820 C.ar  123  TYR123     -0.0198
     41  CD1        0.3650  140.7610  345.1830 C.ar  123  TYR123     -0.0009
     42  CD2       -0.6500  139.9020  343.2070 C.ar  123  TYR123     -0.0009
     43  CE1        1.4230  141.2400  344.4320 C.ar  123  TYR123      0.0417
     44  CE2        0.4010  140.3750  342.4480 C.ar  123  TYR123      0.0417
     45  CZ         1.4350  141.0440  343.0640 C.ar  123  TYR123      0.1957
     46  OH         2.4840  141.5080  342.3090 O.3   123  TYR123     -0.2866
     47  N         -5.7540  143.3990  348.8080 N.3   126  LEU126     -0.1245
     48  CA        -5.0770  144.6440  349.1890 C.3   126  LEU126      0.1561
     49  C         -5.5370  145.8570  348.3760 C.2   126  LEU126      0.2260
     50  O         -5.5860  145.8320  347.1450 O.2   126  LEU126     -0.2867
     51  CB        -3.5360  144.5190  349.1740 C.3   126  LEU126      0.0270
     52  CG        -2.8870  143.5750  350.2090 C.3   126  LEU126      0.0019
     53  CD1       -1.3910  143.4840  350.0090 C.3   126  LEU126      0.0001
     54  CD2       -3.1990  143.9670  351.6480 C.3   126  LEU126      0.0001
     55  N         -1.8140  149.2140  351.3470 N.3   131  ILE131     -0.1245
     56  CA        -0.3790  149.3010  351.0490 C.3   131  ILE131      0.1561
     57  C          0.1960  150.4470  351.8430 C.2   131  ILE131      0.2260
     58  O          1.2430  150.2500  352.4420 O.2   131  ILE131     -0.2867
     59  CB        -0.1240  149.4050  349.5240 C.3   131  ILE131      0.0252
     60  CG1       -0.7220  148.1780  348.8030 C.3   131  ILE131      0.0019
     61  CG2        1.3790  149.5730  349.2030 C.3   131  ILE131      0.0019
     62  CD1       -1.2410  148.4980  347.5060 C.3   131  ILE131      0.0001
     63  N          0.4500  149.1720  355.6560 N.3   134  TYR134     -0.1227
     64  CA         1.5380  148.2400  355.9360 C.3   134  TYR134      0.1736
     65  C          2.9090  148.8290  355.6700 C.2   134  TYR134      0.2595
     66  O          3.8640  148.5250  356.4170 O.2   134  TYR134     -0.2718
     67  CB         1.3300  146.9120  355.2170 C.3   134  TYR134      0.0548
     68  CG         0.1730  146.1070  355.8030 C.ar  134  TYR134     -0.0200
     69  CD1        0.2010  145.6700  357.1270 C.ar  134  TYR134     -0.0009
     70  CD2       -0.9210  145.7490  355.0210 C.ar  134  TYR134     -0.0009
     71  CE1       -0.8310  144.9000  357.6630 C.ar  134  TYR134      0.0417
     72  CE2       -1.9520  144.9490  355.5370 C.ar  134  TYR134      0.0417
     73  CZ        -1.9040  144.5360  356.8640 C.ar  134  TYR134      0.1957
     74  OH        -2.8900  143.7370  357.4080 O.3   134  TYR134     -0.2866
     75  N          3.0180  149.6740  354.6330 N.am  135  MET135     -0.1979
     76  CA         4.2780  150.3680  354.3730 C.3   135  MET135      0.1605
     77  C          4.7070  151.1880  355.5930 C.2   135  MET135      0.2287
     78  O          5.8810  151.1520  355.9900 O.2   135  MET135     -0.2864
     79  CB         4.1940  151.2060  353.0870 C.3   135  MET135      0.0413
     80  CG         4.2550  150.3450  351.8260 C.3   135  MET135      0.0598
     81  SD         5.9090  149.6260  351.5530 S.3   135  MET135     -0.1393
     82  CE         6.8080  151.0890  351.3550 C.3   135  MET135      0.0692
     83  N          6.0890  148.9400  358.3670 N.3   138  ILE138     -0.1245
     84  CA         7.4670  148.5760  358.1000 C.3   138  ILE138      0.1561
     85  C          8.3790  149.7270  358.4920 C.2   138  ILE138      0.2260
     86  O          9.4370  149.4740  359.0580 O.2   138  ILE138     -0.2867
     87  CB         7.6660  148.1310  356.6330 C.3   138  ILE138      0.0252
     88  CG1        6.8370  146.8630  356.3570 C.3   138  ILE138      0.0019
     89  CG2        9.1910  147.8830  356.3320 C.3   138  ILE138      0.0019
     90  CD1        6.9290  146.3620  354.8670 C.3   138  ILE138      0.0001
     91  N          9.7750  140.7540  350.9920 N.3   157  PRO157     -0.2102
     92  CA         8.4520  140.2680  351.4320 C.3   157  PRO157      0.1504
     93  C          8.5290  139.0280  352.3190 C.2   157  PRO157      0.2575
     94  O          7.7850  138.9570  353.2830 O.2   157  PRO157     -0.2718
     95  CB         7.7390  139.9690  350.1060 C.3   157  PRO157      0.0282
     96  CG         8.3270  140.9720  349.1710 C.3   157  PRO157      0.0208
     97  CD         9.7770  140.9870  349.5260 C.3   157  PRO157      0.0893
     98  N          9.4530  138.0910  352.0350 N.am  158  HIS158     -0.1976
     99  CA         9.5780  136.8540  352.8360 C.3   158  HIS158      0.1656
    100  C         10.0360  137.1180  354.2550 C.2   158  HIS158      0.2291
    101  O          9.8060  136.2830  355.1220 O.2   158  HIS158     -0.2864
    102  CB        10.4470  135.7870  352.1650 C.3   158  HIS158      0.0771
    103  CG         9.7840  135.0970  350.9990 C.ar  158  HIS158      0.0820
    104  ND1        8.3970  134.9060  350.9500 N.ar  158  HIS158     -0.2267
    105  CD2       10.3380  134.5360  349.8940 C.ar  158  HIS158      0.1154
    106  CE1        8.1620  134.2680  349.8130 C.ar  158  HIS158      0.1986
    107  NE2        9.2980  134.0300  349.1410 N.ar  158  HIS158     -0.2212
    108  N          8.8450  139.7760  356.0250 N.3   160  VAL160     -0.1231
    109  CA         7.7770  140.5960  356.5920 C.3   160  VAL160      0.1692
    110  C          6.5760  139.7080  356.8290 C.2   160  VAL160      0.2592
    111  O          5.9690  139.2620  355.8700 O.2   160  VAL160     -0.2718
    112  CB         7.4790  141.8300  355.7140 C.3   160  VAL160      0.0266
    113  CG1        6.2940  142.6100  356.2470 C.3   160  VAL160      0.0020
    114  CG2        8.7340  142.7240  355.6040 C.3   160  VAL160      0.0020
    115  N          6.2560  139.4030  358.1080 N.am  161  MET161     -0.1965
    116  CA         5.0920  138.5490  358.3850 C.3   161  MET161      0.1736
    117  C          3.8720  139.4300  358.5490 C.2   161  MET161      0.2616
    118  O          3.9440  140.4200  359.2770 O.2   161  MET161     -0.2715
    119  CB         5.2730  137.6840  359.6390 C.3   161  MET161      0.0427
    120  CG         6.4540  136.7380  359.5580 C.3   161  MET161      0.0599
    121  SD         6.2080  135.3210  358.4820 S.3   161  MET161     -0.1393
    122  CE         6.9780  135.9130  356.9060 C.3   161  MET161      0.0692
    123  N          2.7410  139.0590  357.9200 N.am  162  ILE162     -0.1977
    124  CA         1.5080  139.8060  358.0020 C.3   162  ILE162      0.1596
    125  C          0.2880  138.9140  358.3580 C.2   162  ILE162      0.2287
    126  O         -0.0350  137.9920  357.6220 O.2   162  ILE162     -0.2864
    127  CB         1.2510  140.6550  356.7310 C.3   162  ILE162      0.0276
    128  CG1        2.4410  141.6280  356.4090 C.3   162  ILE162      0.0022
    129  CG2       -0.1060  141.3960  356.8280 C.3   162  ILE162      0.0022
    130  CD1        2.2850  142.4210  355.0670 C.3   162  ILE162      0.0001
    131  N          1.7440  143.3190  361.5950 N.3   169  LEU169     -0.1245
    132  CA         2.9580  143.1570  360.7940 C.3   169  LEU169      0.1561
    133  C          4.1750  142.9990  361.6930 C.2   169  LEU169      0.2260
    134  O          4.2930  143.7100  362.7030 O.2   169  LEU169     -0.2867
    135  CB         3.1330  144.3890  359.8570 C.3   169  LEU169      0.0270
    136  CG         4.2490  144.3520  358.8280 C.3   169  LEU169      0.0019
    137  CD1        3.8410  145.0830  357.5570 C.3   169  LEU169      0.0001
    138  CD2        5.5420  144.9510  359.3820 C.3   169  LEU169      0.0001
    139  N         10.2590  146.7170  347.2210 N.3   219  MET219     -0.1230
    140  CA         8.9940  146.1020  347.6510 C.3   219  MET219      0.1702
    141  C          7.8150  146.9700  347.1790 C.2   219  MET219      0.2592
    142  O          6.9210  146.4350  346.5360 O.2   219  MET219     -0.2718
    143  CB         8.9910  145.9700  349.1660 C.3   219  MET219      0.0401
    144  CG         9.7780  144.7960  349.6180 C.3   219  MET219      0.0596
    145  SD         9.7550  144.6440  351.4070 S.3   219  MET219     -0.1393
    146  CE         8.0410  144.4810  351.7100 C.3   219  MET219      0.0692
    147  N          7.8520  148.2900  347.4440 N.am  220  LEU220     -0.1980
    148  CA         6.8160  149.2450  347.0140 C.3   220  LEU220      0.1596
    149  C          6.5630  149.1540  345.5000 C.2   220  LEU220      0.2287
    150  O          5.3960  149.0120  345.0850 O.2   220  LEU220     -0.2864
    151  CB         7.2010  150.6680  347.3620 C.3   220  LEU220      0.0297
    152  CG         6.0910  151.6890  347.1530 C.3   220  LEU220      0.0022
    153  CD1        4.7690  151.2800  347.8430 C.3   220  LEU220      0.0001
    154  CD2        6.5650  153.0820  347.4540 C.3   220  LEU220      0.0001
    155  N          7.1720  146.6880  343.3570 N.3   222  SER222     -0.1202
    156  CA         6.5300  145.4260  342.9660 C.3   222  SER222      0.2020
    157  C          5.0640  145.4370  343.2970 C.2   222  SER222      0.2618
    158  O          4.3130  144.8950  342.5270 O.2   222  SER222     -0.2717
    159  CB         7.2000  144.2140  343.6010 C.3   222  SER222      0.2103
    160  OG         7.1070  144.2180  345.0140 O.3   222  SER222     -0.2182
    161  N          4.6560  146.0540  344.4250 N.am  223  MET223     -0.1979
    162  CA         3.2570  146.0640  344.8380 C.3   223  MET223      0.1605
    163  C          2.4110  146.9910  343.9850 C.2   223  MET223      0.2287
    164  O          1.3790  146.5690  343.4290 O.2   223  MET223     -0.2864
    165  CB         3.1890  146.5010  346.2850 C.3   223  MET223      0.0413
    166  CG         1.8030  146.5290  346.8250 C.3   223  MET223      0.0598
    167  SD         0.9210  144.9400  346.7470 S.3   223  MET223     -0.1393
    168  CE         1.7100  144.0720  348.0090 C.3   223  MET223      0.0692
    169  N          6.4710  141.3920  340.1180 N.3   228  GLU228     -0.1245
    170  CA         7.3170  140.7550  341.1040 C.3   228  GLU228      0.1567
    171  C          8.3560  139.7900  340.5210 C.2   228  GLU228      0.2260
    172  O          7.9930  138.8000  339.8770 O.2   228  GLU228     -0.2867
    173  CB         6.4570  140.0730  342.1540 C.3   228  GLU228      0.0388
    174  CG         7.1190  140.0080  343.5060 C.3   228  GLU228      0.1160
    175  CD         6.1550  140.2160  344.6540 C.2   228  GLU228      0.3649
    176  OE1        5.0070  139.7190  344.5670 O.co2 228  GLU228     -0.2457
    177  OE2        6.5530  140.8640  345.6500 O.co2 228  GLU228     -0.2457
@<TRIPOS>BOND
     1   172   171    2
     2   169   170    1
     3   171   170    1
     4   170   173    1
     5   173   174    1
     6    46    45    1
     7    44    45   ar
     8    44    42   ar
     9   158   157    2
    10   156   157    1
    11   156   155    1
    12   156   159    1
    13    45    43   ar
    14    42    40   ar
    15   157   161   am
    16   164   163    2
    17   174   175    1
    18   159   160    1
    19   163   162    1
    20   161   162    1
    21    43    41   ar
    22   176   175   ar
    23    40    41   ar
    24    40    39    1
    25   175   177   ar
    26   162   165    1
    27   150   149    2
    28    39    36    1
    29   149   148    1
    30    38    37    2
    31    37    36    1
    32   165   166    1
    33    36    35    1
    34   142   141    2
    35   167   166    1
    36   167   168    1
    37   148   151    1
    38   148   147    1
    39    24    26   ar
    40    24    22   ar
    41    50    49    2
    42   152   151    1
    43   152   154    1
    44   152   153    1
    45   141   147   am
    46   141   140    1
    47   139   140    1
    48    26    25   ar
    49    62    60    1
    50   140   143    1
    51    22    21   ar
    52    35    29   am
    53    19    18    2
    54    49    48    1
    55    25    23   ar
    56    18    17    1
    57    21    23   ar
    58    21    20    1
    59    60    59    1
    60    47    48    1
    61    29    30    2
    62    29    28    1
    63   107   106   ar
    64   107   105   ar
    65   143   144    1
    66    96    97    1
    67    96    95    1
    68    51    48    1
    69    51    52    1
    70    61    59    1
    71    20    17    1
    72    27    28    1
    73    59    56    1
    74    97    91    1
    75   144   145    1
    76    17    16    1
    77   106   104   ar
    78   105   103   ar
    79    28    31    1
    80    53    52    1
    81    95    92    1
    82    52    54    1
    83    31    32    1
    84   104   103   ar
    85    91    92    1
    86   103   102    1
    87    56    55    1
    88    56    57    1
    89    82    81    1
    90   145   146    1
    91    92    93    1
    92    81    80    1
    93    80    79    1
    94    57    58    2
    95    32    34    1
    96    32    33    1
    97    98    93   am
    98    98    99    1
    99   102    99    1
   100    93    94    2
   101    99   100    1
   102    79    76    1
   103    12    11    2
   104    11    10    1
   105   100   101    2
   106    76    75    1
   107    76    77    1
   108    15    13    1
   109    75    65   am
   110    90    88    1
   111    70    72   ar
   112    70    68   ar
   113   130   128    1
   114    67    68    1
   115    67    64    1
   116    13    10    1
   117    13    14    1
   118    10     9    1
   119    72    73   ar
   120    77    78    2
   121   114   112    1
   122    63    64    1
   123    65    64    1
   124    65    66    2
   125   112   113    1
   126   112   109    1
   127    68    69   ar
   128     7     6    2
   129   111   110    2
   130   108   109    1
   131    89    87    1
   132    88    87    1
   133   128   127    1
   134     9     3   am
   135     8     6   am
   136   109   110    1
   137     6     5    1
   138    87    84    1
   139   127   129    1
   140   127   124    1
   141     4     3    2
   142   110   115   am
   143    73    74    1
   144    73    71   ar
   145   122   121    1
   146     3     2    1
   147    69    71   ar
   148   137   136    1
   149   126   125    2
   150     5     2    1
   151   123   124    1
   152   123   117   am
   153   124   125    1
   154    84    83    1
   155    84    85    1
   156   115   116    1
   157     2     1    1
   158   116   117    1
   159   116   119    1
   160   121   120    1
   161    85    86    2
   162   117   118    2
   163   136   138    1
   164   136   135    1
   165   120   119    1
   166   135   132    1
   167   132   131    1
   168   132   133    1
   169   133   134    2
