@<TRIPOS>MOLECULE
tmp/5os8A00.pdb
 154 148 0 0 0
SMALL
GASTEIGER

@<TRIPOS>ATOM
      1  N       -123.9090 -173.2720  313.3410 N.3   116  ASN116     -0.1225
      2  CA      -122.6710 -173.2970  312.5750 C.3   116  ASN116      0.1785
      3  C       -122.1810 -171.9140  312.1970 C.2   116  ASN116      0.2597
      4  O       -122.8200 -171.2090  311.4120 O.2   116  ASN116     -0.2718
      5  CB      -122.7790 -174.2090  311.3520 C.3   116  ASN116      0.1169
      6  CG      -123.9410 -173.9090  310.4280 C.2   116  ASN116      0.2627
      7  OD1     -125.0970 -173.7480  310.8560 O.2   116  ASN116     -0.2716
      8  ND2     -123.6590 -173.8530  309.1300 N.am  116  ASN116     -0.0877
      9  N       -121.0420 -171.5260  312.7870 N.am  117  THR117     -0.1953
     10  CA      -120.3840 -170.2460  312.5270 C.3   117  THR117      0.1897
     11  C       -119.9540 -170.2550  311.0740 C.2   117  THR117      0.2313
     12  O       -119.5790 -171.3060  310.5510 O.2   117  THR117     -0.2863
     13  CB      -119.1800 -170.0710  313.4590 C.3   117  THR117      0.1794
     14  OG1     -119.5990 -170.2660  314.8100 O.3   117  THR117     -0.2208
     15  CG2     -118.5110 -168.6900  313.3110 C.3   117  THR117      0.0378
     16  N       -118.2360 -170.4270  307.7380 N.3   119  PHE119     -0.1241
     17  CA      -117.0120 -171.1380  307.3490 C.3   119  PHE119      0.1605
     18  C       -115.8840 -170.2050  306.9060 C.2   119  PHE119      0.2264
     19  O       -114.7130 -170.4850  307.1920 O.2   119  PHE119     -0.2867
     20  CB      -117.3110 -172.1930  306.2510 C.3   119  PHE119      0.0534
     21  CG      -116.1290 -172.6380  305.4090 C.ar  119  PHE119     -0.0203
     22  CD1     -115.1940 -173.5350  305.9100 C.ar  119  PHE119     -0.0042
     23  CD2     -115.9490 -172.1520  304.1190 C.ar  119  PHE119     -0.0042
     24  CE1     -114.0850 -173.9210  305.1450 C.ar  119  PHE119     -0.0003
     25  CE2     -114.8480 -172.5510  303.3490 C.ar  119  PHE119     -0.0003
     26  CZ      -113.9240 -173.4320  303.8680 C.ar  119  PHE119     -0.0000
     27  N       -114.4670 -168.6370  309.9110 N.3   122  LEU122     -0.1231
     28  CA      -113.5630 -169.5360  310.6190 C.3   122  LEU122      0.1693
     29  C       -112.2180 -169.6730  309.8880 C.2   122  LEU122      0.2592
     30  O       -111.1640 -169.5250  310.4970 O.2   122  LEU122     -0.2718
     31  CB      -114.2160 -170.9350  310.8430 C.3   122  LEU122      0.0284
     32  CG      -115.4040 -170.9260  311.8230 C.3   122  LEU122      0.0019
     33  CD1     -116.1100 -172.2670  311.8380 C.3   122  LEU122      0.0001
     34  CD2     -114.9690 -170.5440  313.2370 C.3   122  LEU122      0.0001
     35  N       -112.2520 -169.9200  308.5980 N.am  123  TYR123     -0.1976
     36  CA      -111.0080 -170.0660  307.8430 C.3   123  TYR123      0.1639
     37  C       -110.1130 -168.8070  307.9550 C.2   123  TYR123      0.2290
     38  O       -108.8900 -168.9130  308.1000 O.2   123  TYR123     -0.2864
     39  CB      -111.3360 -170.3780  306.3810 C.3   123  TYR123      0.0560
     40  CG      -110.0950 -170.6930  305.5940 C.ar  123  TYR123     -0.0198
     41  CD1     -109.5670 -171.9830  305.5760 C.ar  123  TYR123     -0.0009
     42  CD2     -109.4070 -169.6940  304.9120 C.ar  123  TYR123     -0.0009
     43  CE1     -108.3810 -172.2660  304.9100 C.ar  123  TYR123      0.0417
     44  CE2     -108.2250 -169.9710  304.2280 C.ar  123  TYR123      0.0417
     45  CZ      -107.7190 -171.2570  304.2310 C.ar  123  TYR123      0.1957
     46  OH      -106.5760 -171.5270  303.5280 O.3   123  TYR123     -0.2866
     47  N       -109.6220 -168.0560  312.5510 N.3   126  LEU126     -0.1245
     48  CA      -109.1670 -168.9550  313.6060 C.3   126  LEU126      0.1561
     49  C       -107.6950 -168.7210  313.8970 C.2   126  LEU126      0.2260
     50  O       -106.8790 -168.5740  312.9750 O.2   126  LEU126     -0.2867
     51  CB      -109.4490 -170.4300  313.2850 C.3   126  LEU126      0.0270
     52  CG      -110.9090 -170.8690  313.4080 C.3   126  LEU126      0.0019
     53  CD1     -111.0810 -172.2920  312.9130 C.3   126  LEU126      0.0001
     54  CD2     -111.4290 -170.7530  314.8400 C.3   126  LEU126      0.0001
     55  N       -106.9960 -173.4640  315.9740 N.3   131  ILE131     -0.1245
     56  CA      -106.8090 -174.5720  315.0270 C.3   131  ILE131      0.1561
     57  C       -106.4100 -175.8440  315.7840 C.2   131  ILE131      0.2260
     58  O       -106.9810 -176.9120  315.5070 O.2   131  ILE131     -0.2867
     59  CB      -105.7800 -174.1850  313.9630 C.3   131  ILE131      0.0252
     60  CG1     -106.3610 -173.0300  313.1060 C.3   131  ILE131      0.0019
     61  CG2     -105.3520 -175.4080  313.0820 C.3   131  ILE131      0.0019
     62  CD1     -105.2440 -172.2720  312.3480 C.3   131  ILE131      0.0001
     63  N       -109.5710 -177.1250  317.8120 N.3   134  TYR134     -0.1227
     64  CA      -110.5800 -177.8130  317.0070 C.3   134  TYR134      0.1736
     65  C       -110.0590 -179.0690  316.3720 C.2   134  TYR134      0.2595
     66  O       -110.8160 -180.0390  316.2800 O.2   134  TYR134     -0.2718
     67  CB      -111.2180 -176.8850  315.9930 C.3   134  TYR134      0.0548
     68  CG      -112.1340 -175.8690  316.6520 C.ar  134  TYR134     -0.0200
     69  CD1     -113.2100 -176.2770  317.4340 C.ar  134  TYR134     -0.0009
     70  CD2     -111.9450 -174.5030  316.4560 C.ar  134  TYR134     -0.0009
     71  CE1     -114.0690 -175.3560  318.0210 C.ar  134  TYR134      0.0417
     72  CE2     -112.8220 -173.5670  317.0100 C.ar  134  TYR134      0.0417
     73  CZ      -113.8780 -174.0030  317.8000 C.ar  134  TYR134      0.1957
     74  OH      -114.7550 -173.1020  318.3660 O.3   134  TYR134     -0.2866
     75  N       -108.7710 -179.1030  315.9860 N.am  135  MET135     -0.1979
     76  CA      -108.1920 -180.3390  315.4590 C.3   135  MET135      0.1605
     77  C       -108.2720 -181.4550  316.5140 C.2   135  MET135      0.2287
     78  O       -108.6170 -182.5850  316.1840 O.2   135  MET135     -0.2864
     79  CB      -106.7450 -180.1210  315.0130 C.3   135  MET135      0.0413
     80  CG      -106.6420 -179.4430  313.6640 C.3   135  MET135      0.0598
     81  SD      -106.9920 -180.6020  312.3100 S.3   135  MET135     -0.1393
     82  CE      -105.5050 -181.5370  312.3210 C.3   135  MET135      0.0692
     83  N       -111.7630 -182.7620  316.6080 N.3   138  ILE138     -0.1245
     84  CA      -112.0590 -183.6680  315.4690 C.3   138  ILE138      0.1561
     85  C       -111.4210 -185.0430  315.7510 C.2   138  ILE138      0.2260
     86  O       -112.0290 -186.0730  315.4710 O.2   138  ILE138     -0.2867
     87  CB      -111.5640 -183.1160  314.1170 C.3   138  ILE138      0.0252
     88  CG1     -112.2270 -181.7670  313.8030 C.3   138  ILE138      0.0019
     89  CG2     -111.8210 -184.1580  312.9920 C.3   138  ILE138      0.0019
     90  CD1     -111.5860 -181.0050  312.6030 C.3   138  ILE138      0.0001
     91  N       -113.8810 -179.8770  305.6110 N.3   157  PRO157     -0.2102
     92  CA      -114.4510 -178.8140  306.4460 C.3   157  PRO157      0.1504
     93  C       -115.9700 -178.6990  306.4120 C.2   157  PRO157      0.2575
     94  O       -116.5800 -178.4650  307.4580 O.2   157  PRO157     -0.2718
     95  CB      -113.7560 -177.5570  305.9090 C.3   157  PRO157      0.0282
     96  CG      -112.4390 -178.0550  305.4570 C.3   157  PRO157      0.0208
     97  CD      -112.7630 -179.3630  304.7910 C.3   157  PRO157      0.0893
     98  N       -116.5900 -178.8900  305.2260 N.am  158  HIS158     -0.1976
     99  CA      -118.0540 -178.8130  305.1160 C.3   158  HIS158      0.1656
    100  C       -118.7720 -179.8610  305.9680 C.2   158  HIS158      0.2291
    101  O       -119.9340 -179.6580  306.3140 O.2   158  HIS158     -0.2864
    102  CB      -118.5400 -178.8440  303.6550 C.3   158  HIS158      0.0771
    103  CG      -118.5630 -177.5040  302.9720 C.ar  158  HIS158      0.0820
    104  ND1     -118.3130 -177.3860  301.6130 N.ar  158  HIS158     -0.2267
    105  CD2     -118.8200 -176.2710  303.4750 C.ar  158  HIS158      0.1154
    106  CE1     -118.4070 -176.0920  301.3420 C.ar  158  HIS158      0.1986
    107  NE2     -118.7080 -175.3830  302.4310 N.ar  158  HIS158     -0.2212
    108  N       -117.7420 -180.6570  309.0590 N.3   160  VAL160     -0.1231
    109  CA      -117.4170 -180.3780  310.4590 C.3   160  VAL160      0.1692
    110  C       -118.1410 -179.0950  310.8440 C.2   160  VAL160      0.2592
    111  O       -117.7540 -178.0210  310.4050 O.2   160  VAL160     -0.2718
    112  CB      -115.8840 -180.2500  310.6620 C.3   160  VAL160      0.0266
    113  CG1     -115.5510 -179.8610  312.1040 C.3   160  VAL160      0.0020
    114  CG2     -115.1650 -181.5540  310.2640 C.3   160  VAL160      0.0020
    115  N       -119.2040 -179.2090  311.6420 N.am  161  MET161     -0.1965
    116  CA      -119.9520 -178.0200  312.0780 C.3   161  MET161      0.1736
    117  C       -119.3080 -177.4470  313.3300 C.2   161  MET161      0.2616
    118  O       -119.0250 -178.2030  314.2700 O.2   161  MET161     -0.2715
    119  CB      -121.4220 -178.4120  312.3750 C.3   161  MET161      0.0427
    120  CG      -122.1500 -178.9620  311.1760 C.3   161  MET161      0.0599
    121  SD      -122.4890 -177.7120  309.9240 S.3   161  MET161     -0.1393
    122  CE      -121.2710 -178.0620  308.7270 C.3   161  MET161      0.0692
    123  N       -119.0610 -176.1250  313.3690 N.am  162  ILE162     -0.1977
    124  CA      -118.4940 -175.4820  314.5510 C.3   162  ILE162      0.1596
    125  C       -119.3660 -174.3090  314.9870 C.2   162  ILE162      0.2287
    126  O       -119.6150 -173.4030  314.1900 O.2   162  ILE162     -0.2864
    127  CB      -117.0270 -175.0010  314.3450 C.3   162  ILE162      0.0276
    128  CG1     -116.0930 -176.1930  314.0570 C.3   162  ILE162      0.0022
    129  CG2     -116.5360 -174.1740  315.5480 C.3   162  ILE162      0.0022
    130  CD1     -114.6990 -175.7520  313.5880 C.3   162  ILE162      0.0001
    131  N       -106.9470 -181.0790  305.3970 N.3   219  MET219     -0.1230
    132  CA      -107.6160 -179.9510  306.0550 C.3   219  MET219      0.1702
    133  C       -106.5880 -179.0880  306.8090 C.2   219  MET219      0.2592
    134  O       -106.6050 -177.8450  306.6860 O.2   219  MET219     -0.2718
    135  CB      -108.6770 -180.4730  307.0520 C.3   219  MET219      0.0401
    136  CG      -109.8790 -181.0250  306.3960 C.3   219  MET219      0.0596
    137  SD      -111.0490 -181.6390  307.6470 S.3   219  MET219     -0.1393
    138  CE      -111.1840 -180.3120  308.6970 C.3   219  MET219      0.0692
    139  N       -105.7140 -179.7170  307.5940 N.am  220  LEU220     -0.1980
    140  CA      -104.7250 -178.9730  308.3660 C.3   220  LEU220      0.1596
    141  C       -103.7740 -178.2060  307.4540 C.2   220  LEU220      0.2287
    142  O       -103.4900 -177.0360  307.7100 O.2   220  LEU220     -0.2864
    143  CB      -103.9540 -179.9380  309.2430 C.3   220  LEU220      0.0297
    144  CG      -102.9480 -179.2820  310.1750 C.3   220  LEU220      0.0022
    145  CD1     -103.6730 -178.3460  311.1750 C.3   220  LEU220      0.0001
    146  CD2     -102.0570 -180.3490  310.8390 C.3   220  LEU220      0.0001
    147  N       -105.4440 -175.0880  306.0660 N.3   223  MET223     -0.1245
    148  CA      -105.6180 -174.1130  307.1360 C.3   223  MET223      0.1570
    149  C       -104.3300 -173.4040  307.6250 C.2   223  MET223      0.2261
    150  O       -104.3040 -172.1750  307.7000 O.2   223  MET223     -0.2867
    151  CB      -106.3360 -174.7570  308.3230 C.3   223  MET223      0.0387
    152  CG      -106.6700 -173.8000  309.4530 C.3   223  MET223      0.0595
    153  SD      -107.9050 -172.5700  308.9900 S.3   223  MET223     -0.1393
    154  CE      -109.2640 -173.6160  308.4900 C.3   223  MET223      0.0692
@<TRIPOS>BOND
     1   106   104   ar
     2   106   107   ar
     3   104   103   ar
     4   107   105   ar
     5   103   105   ar
     6   103   102    1
     7    25    26   ar
     8    25    23   ar
     9    46    45    1
    10   102    99    1
    11    26    24   ar
    12    23    21   ar
    13    44    45   ar
    14    44    42   ar
    15    45    43   ar
    16    97    96    1
    17    97    91    1
    18    43    41   ar
    19    42    40   ar
    20    99    98    1
    21    99   100    1
    22    24    22   ar
    23    98    93   am
    24   131   132    1
    25    21    22   ar
    26    21    20    1
    27    96    95    1
    28    41    40   ar
    29    40    39    1
    30    91    92    1
    31    95    92    1
    32   100   101    2
    33   132   133    1
    34   132   135    1
    35   147   148    1
    36    20    17    1
    37    39    36    1
    38   136   135    1
    39   136   137    1
    40    93    92    1
    41    93    94    2
    42   134   133    2
    43   133   139   am
    44    18    19    2
    45    18    17    1
    46   148   149    1
    47   148   151    1
    48    17    16    1
    49   141   142    2
    50   141   140    1
    51   139   140    1
    52   149   150    2
    53   137   138    1
    54    36    37    1
    55    36    35    1
    56    37    38    2
    57   151   152    1
    58   140   143    1
    59   154   153    1
    60    35    29   am
    61   122   121    1
    62   153   152    1
    63   108   109    1
    64     8     6   am
    65   143   144    1
    66    29    30    2
    67    29    28    1
    68    27    28    1
    69   121   120    1
    70   144   146    1
    71   144   145    1
    72   114   112    1
    73   111   110    2
    74     6     7    2
    75     6     5    1
    76   109   112    1
    77   109   110    1
    78    12    11    2
    79    28    31    1
    80   112   113    1
    81    31    32    1
    82   110   115   am
    83    11    10    1
    84   120   119    1
    85     5     2    1
    86     4     3    2
    87   115   116    1
    88    32    33    1
    89    32    34    1
    90   116   119    1
    91   116   117    1
    92     3     2    1
    93     3     9   am
    94    81    82    1
    95    81    80    1
    96    62    60    1
    97    10     9    1
    98    10    13    1
    99    47    48    1
   100     2     1    1
   101    90    88    1
   102    53    52    1
   103    50    49    2
   104    89    87    1
   105    61    59    1
   106    60    59    1
   107    51    52    1
   108    51    48    1
   109    15    13    1
   110   117   123   am
   111   117   118    2
   112   123   124    1
   113    52    54    1
   114    13    14    1
   115   130   128    1
   116    48    49    1
   117    80    79    1
   118    88    87    1
   119    59    56    1
   120   128   127    1
   121    87    84    1
   122   126   125    2
   123   127   124    1
   124   127   129    1
   125   124   125    1
   126    79    76    1
   127    56    57    1
   128    56    55    1
   129    76    75    1
   130    76    77    1
   131    84    85    1
   132    84    83    1
   133    86    85    2
   134    58    57    2
   135    75    65   am
   136    67    68    1
   137    67    64    1
   138    78    77    2
   139    66    65    2
   140    65    64    1
   141    70    68   ar
   142    70    72   ar
   143    68    69   ar
   144    64    63    1
   145    72    73   ar
   146    69    71   ar
   147    73    71   ar
   148    73    74    1
