@<TRIPOS>MOLECULE
tmp/5os8A01.pdb
 99 93 0 0 0
SMALL
GASTEIGER

@<TRIPOS>ATOM
      1  N       -140.9450 -177.8640  309.1160 N.3    39  LEU39      -0.1245
      2  CA      -139.8330 -177.3010  308.3360 C.3    39  LEU39       0.1561
      3  C       -139.9200 -175.7680  308.2980 C.2    39  LEU39       0.2260
      4  O       -140.9850 -175.2200  308.0170 O.2    39  LEU39      -0.2867
      5  CB      -139.7970 -177.8790  306.9020 C.3    39  LEU39       0.0270
      6  CG      -139.7820 -179.4110  306.7440 C.3    39  LEU39       0.0019
      7  CD1     -139.8170 -179.8080  305.2650 C.3    39  LEU39       0.0001
      8  CD2     -138.5410 -180.0320  307.4170 C.3    39  LEU39       0.0001
      9  N       -128.9980 -178.4570  299.5140 N.3    45  ARG45      -0.1245
     10  CA      -129.2930 -179.6960  298.8080 C.3    45  ARG45       0.1563
     11  C       -128.0280 -180.1920  298.1550 C.2    45  ARG45       0.2260
     12  O       -127.2470 -179.3950  297.6420 O.2    45  ARG45      -0.2867
     13  CB      -130.3970 -179.4990  297.7510 C.3    45  ARG45       0.0307
     14  CG      -131.0610 -180.8230  297.3280 C.3    45  ARG45       0.0489
     15  CD      -132.3330 -180.6550  296.5120 C.3    45  ARG45       0.2205
     16  NE      -132.0570 -179.9640  295.2590 N.pl3  45  ARG45      -0.0865
     17  CZ      -132.9170 -179.1850  294.6140 C.cat  45  ARG45       0.5346
     18  NH1     -134.1470 -179.0040  295.0850 N.pl3  45  ARG45       0.1354
     19  NH2     -132.5540 -178.5720  293.5040 N.pl3  45  ARG45       0.1354
     20  N       -131.9420 -183.2180  300.8260 N.3    50  GLU50      -0.1245
     21  CA      -132.3090 -181.8180  300.9430 C.3    50  GLU50       0.1567
     22  C       -132.3170 -181.5930  302.4590 C.2    50  GLU50       0.2260
     23  O       -132.8710 -182.4090  303.1920 O.2    50  GLU50      -0.2867
     24  CB      -133.6860 -181.5590  300.3330 C.3    50  GLU50       0.0388
     25  CG      -133.8800 -180.1260  299.8790 C.3    50  GLU50       0.1160
     26  CD      -135.0320 -179.9380  298.9090 C.2    50  GLU50       0.3649
     27  OE1     -136.0780 -180.6000  299.0950 O.co2  50  GLU50      -0.2457
     28  OE2     -134.8990 -179.1150  297.9740 O.co2  50  GLU50      -0.2457
     29  N       -132.9910 -179.1410  305.8680 N.3    52  PHE52      -0.1241
     30  CA      -133.8420 -178.0680  306.3870 C.3    52  PHE52       0.1605
     31  C       -133.6260 -177.7970  307.8510 C.2    52  PHE52       0.2264
     32  O       -133.3820 -178.7230  308.6300 O.2    52  PHE52      -0.2867
     33  CB      -135.3090 -178.4900  306.2600 C.3    52  PHE52       0.0534
     34  CG      -135.7880 -178.6320  304.8380 C.ar   52  PHE52      -0.0203
     35  CD1     -135.5700 -179.8090  304.1230 C.ar   52  PHE52      -0.0042
     36  CD2     -136.5190 -177.6160  304.2280 C.ar   52  PHE52      -0.0042
     37  CE1     -136.0320 -179.9480  302.8080 C.ar   52  PHE52      -0.0003
     38  CE2     -136.9570 -177.7470  302.9010 C.ar   52  PHE52      -0.0003
     39  CZ      -136.6900 -178.8990  302.1930 C.ar   52  PHE52      -0.0000
     40  N       -133.7300 -184.7540  304.4320 N.3    67  ILE67      -0.1231
     41  CA      -134.6730 -185.6180  303.7170 C.3    67  ILE67       0.1692
     42  C       -133.8930 -186.3080  302.6350 C.2    67  ILE67       0.2592
     43  O       -133.3700 -185.6540  301.7270 O.2    67  ILE67      -0.2718
     44  CB      -135.8770 -184.8240  303.1640 C.3    67  ILE67       0.0266
     45  CG1     -136.5810 -184.0600  304.3180 C.3    67  ILE67       0.0019
     46  CG2     -136.8240 -185.7930  302.4680 C.3    67  ILE67       0.0020
     47  CD1     -137.6800 -183.0480  303.8250 C.3    67  ILE67       0.0001
     48  N       -133.8210 -187.6210  302.7180 N.am   68  LEU68      -0.1966
     49  CA      -133.0060 -188.3820  301.7850 C.3    68  LEU68       0.1728
     50  C       -133.6000 -188.5020  300.4040 C.2    68  LEU68       0.2616
     51  O       -134.7910 -188.7750  300.2560 O.2    68  LEU68      -0.2715
     52  CB      -132.6750 -189.7770  302.3560 C.3    68  LEU68       0.0311
     53  CG      -131.9070 -189.7920  303.7040 C.3    68  LEU68       0.0022
     54  CD1     -131.7190 -191.2000  304.1990 C.3    68  LEU68       0.0001
     55  CD2     -130.5530 -189.0810  303.6100 C.3    68  LEU68       0.0001
     56  N       -132.7550 -188.3730  299.3860 N.am   69  LYS69      -0.1964
     57  CA      -133.1920 -188.6050  298.0090 C.3    69  LYS69       0.1713
     58  C       -133.2090 -190.1410  297.8120 C.2    69  LYS69       0.2458
     59  O       -132.4630 -190.8480  298.5080 O.2    69  LYS69      -0.2730
     60  CB      -132.2270 -187.9350  297.0250 C.3    69  LYS69       0.0311
     61  CG      -132.2710 -186.4140  297.0390 C.3    69  LYS69       0.0038
     62  CD      -131.5170 -185.8470  295.8540 C.3    69  LYS69       0.0206
     63  CE      -131.5900 -184.3420  295.8560 C.3    69  LYS69       0.1093
     64  NZ      -130.7180 -183.7580  294.8130 N.3    69  LYS69      -0.1314
     65  N       -134.0590 -190.7030  296.9220 N.am   70  PRO70      -0.2727
     66  CA      -134.0750 -192.1620  296.7590 C.3    70  PRO70       0.1402
     67  C       -132.8170 -192.6610  296.0670 C.2    70  PRO70       0.2269
     68  O       -132.4670 -192.2320  294.9700 O.2    70  PRO70      -0.2865
     69  CB      -135.3590 -192.4450  295.9570 C.3    70  PRO70       0.0296
     70  CG      -136.0420 -191.1430  295.7910 C.3    70  PRO70       0.0237
     71  CD      -135.0330 -190.0620  296.0270 C.3    70  PRO70       0.0939
     72  N       -141.0230 -188.7920  305.4260 N.3   101  ASP101     -0.1239
     73  CA      -141.5060 -187.5250  304.8920 C.3   101  ASP101      0.1674
     74  C       -142.6850 -187.8360  303.9730 C.2   101  ASP101      0.2266
     75  O       -142.5860 -188.7040  303.1000 O.2   101  ASP101     -0.2867
     76  CB      -140.4270 -186.7610  304.1300 C.3   101  ASP101      0.1410
     77  CG      -140.9080 -185.4020  303.6740 C.2   101  ASP101      0.3668
     78  OD1     -141.4620 -185.3100  302.5630 O.co2 101  ASP101     -0.2456
     79  OD2     -140.7560 -184.4410  304.4330 O.co2 101  ASP101     -0.2456
     80  N       -144.1450 -186.0530  301.6490 N.3   103  VAL103     -0.1231
     81  CA      -144.0040 -185.5510  300.2730 C.3   103  VAL103      0.1692
     82  C       -142.9900 -186.3430  299.4740 C.2   103  VAL103      0.2592
     83  O       -143.3010 -186.7780  298.3670 O.2   103  VAL103     -0.2718
     84  CB      -143.7090 -184.0310  300.2350 C.3   103  VAL103      0.0266
     85  CG1     -143.4800 -183.5360  298.8010 C.3   103  VAL103      0.0020
     86  CG2     -144.8380 -183.2400  300.8920 C.3   103  VAL103      0.0020
     87  N       -141.7750 -186.5260  300.0160 N.am  104  SER104     -0.1952
     88  CA      -140.7170 -187.2580  299.3160 C.3   104  SER104      0.1924
     89  C       -140.9430 -188.7700  299.2950 C.2   104  SER104      0.2314
     90  O       -140.4010 -189.4510  298.4120 O.2   104  SER104     -0.2863
     91  CB      -139.3670 -186.9790  299.9730 C.3   104  SER104      0.2116
     92  OG      -139.2630 -187.6650  301.2100 O.3   104  SER104     -0.2180
     93  N       -139.7170 -190.7360  301.4550 N.3   106  THR106     -0.1218
     94  CA      -138.4080 -191.2520  301.8470 C.3   106  THR106      0.1862
     95  C       -138.1320 -190.9520  303.3170 C.2   106  THR106      0.2287
     96  O       -138.7880 -190.0920  303.9290 O.2   106  THR106     -0.2866
     97  CB      -137.2890 -190.6220  300.9870 C.3   106  THR106      0.1770
     98  OG1     -137.1830 -189.2170  301.2750 O.3   106  THR106     -0.2211
     99  CG2     -137.4480 -190.8990  299.4910 C.3   106  THR106      0.0375
@<TRIPOS>BOND
     1    19    17    1
     2    17    18    1
     3    17    16    2
     4    64    63    1
     5    68    67    2
     6    16    15    1
     7    70    69    1
     8    70    71    1
     9    62    63    1
    10    62    61    1
    11    69    66    1
    12    71    65    1
    13    67    66    1
    14    15    14    1
    15    66    65    1
    16    65    58   am
    17    60    61    1
    18    60    57    1
    19    14    13    1
    20    12    11    2
    21    13    10    1
    22    58    57    1
    23    58    59    2
    24    28    26   ar
    25    57    56    1
    26    11    10    1
    27    83    82    2
    28    90    89    2
    29    85    84    1
    30    10     9    1
    31    26    27   ar
    32    26    25    1
    33    89    88    1
    34    88    91    1
    35    88    87    1
    36    56    50   am
    37    82    87   am
    38    82    81    1
    39    99    97    1
    40    25    24    1
    41    91    92    1
    42    84    81    1
    43    84    86    1
    44    51    50    2
    45    81    80    1
    46    24    21    1
    47    50    49    1
    48    20    21    1
    49    21    22    1
    50    97    98    1
    51    97    94    1
    52    93    94    1
    53    43    42    2
    54    49    52    1
    55    49    48    1
    56    94    95    1
    57    39    37   ar
    58    39    38   ar
    59    52    53    1
    60    22    23    2
    61    46    44    1
    62    78    77   ar
    63    42    48   am
    64    42    41    1
    65    37    35   ar
    66    38    36   ar
    67    75    74    2
    68    44    41    1
    69    44    45    1
    70    95    96    2
    71    55    53    1
    72    77    76    1
    73    77    79   ar
    74    53    54    1
    75    41    40    1
    76    47    45    1
    77    74    73    1
    78    35    34   ar
    79    76    73    1
    80    36    34   ar
    81    34    33    1
    82    73    72    1
    83     7     6    1
    84    29    30    1
    85    33    30    1
    86    30    31    1
    87     6     5    1
    88     6     8    1
    89     5     2    1
    90    31    32    2
    91     4     3    2
    92     3     2    1
    93     2     1    1
