@<TRIPOS>MOLECULE
tmp/5osaD02.pdb
 80 75 0 0 0
SMALL
GASTEIGER

@<TRIPOS>ATOM
      1  N         44.8000    2.9340   50.3720 N.3   238  SER238     -0.1217
      2  CA        43.7350    3.8690   50.0380 C.3   238  SER238      0.1889
      3  C         43.9150    4.4210   48.6280 C.2   238  SER238      0.2288
      4  O         43.0090    4.3330   47.7850 O.2   238  SER238     -0.2866
      5  CB        43.7180    4.9910   51.0750 C.3   238  SER238      0.2089
      6  OG        43.1320    6.1730   50.5750 O.3   238  SER238     -0.2183
      7  N         41.4280    3.6630   45.3290 N.3   242  ARG242     -0.1245
      8  CA        40.6450    4.6200   44.5540 C.3   242  ARG242      0.1563
      9  C         41.1480    4.7510   43.1230 C.2   242  ARG242      0.2260
     10  O         40.4220    5.2840   42.2760 O.2   242  ARG242     -0.2867
     11  CB        40.6080    5.9950   45.2350 C.3   242  ARG242      0.0307
     12  CG        39.5980    6.0570   46.3820 C.3   242  ARG242      0.0489
     13  CD        39.2190    7.4790   46.8310 C.3   242  ARG242      0.2205
     14  NE        38.3810    8.2490   45.8960 N.pl3 242  ARG242     -0.0865
     15  CZ        37.0590    8.1070   45.7410 C.cat 242  ARG242      0.5346
     16  NH1       36.3820    7.1990   46.4330 N.pl3 242  ARG242      0.1354
     17  NH2       36.4040    8.8730   44.8770 N.pl3 242  ARG242      0.1354
     18  N         35.4660    3.0090   50.4540 N.3   255  ASP255     -0.1239
     19  CA        36.0290    4.2110   51.0560 C.3   255  ASP255      0.1674
     20  C         35.7820    4.2360   52.5580 C.2   255  ASP255      0.2266
     21  O         36.6940    4.5090   53.3440 O.2   255  ASP255     -0.2867
     22  CB        35.4520    5.4660   50.4010 C.3   255  ASP255      0.1410
     23  CG        35.9820    5.6900   49.0100 C.2   255  ASP255      0.3668
     24  OD1       37.1780    5.3890   48.8000 O.co2 255  ASP255     -0.2456
     25  OD2       35.2130    6.1680   48.1360 O.co2 255  ASP255     -0.2456
     26  N         38.0370    1.6520   54.3350 N.3   258  ILE258     -0.1231
     27  CA        39.4350    2.0730   54.3920 C.3   258  ILE258      0.1692
     28  C         39.6130    3.2450   55.3450 C.2   258  ILE258      0.2591
     29  O         40.6170    3.3310   56.0570 O.2   258  ILE258     -0.2718
     30  CB        39.9700    2.4170   52.9910 C.3   258  ILE258      0.0266
     31  CG1       40.0570    1.1660   52.1190 C.3   258  ILE258      0.0019
     32  CG2       41.3090    3.1290   53.0900 C.3   258  ILE258      0.0020
     33  CD1       40.7410    1.4040   50.7870 C.3   258  ILE258      0.0001
     34  N         38.6580    4.1720   55.3690 N.am  259  ALA259     -0.1980
     35  CA        38.7900    5.3300   56.2450 C.3   259  ALA259      0.1597
     36  C         38.7350    4.9150   57.7080 C.2   259  ALA259      0.2287
     37  O         39.4570    5.4680   58.5420 O.2   259  ALA259     -0.2864
     38  CB        37.7040    6.3570   55.9310 C.3   259  ALA259      0.0319
     39  N         41.9820    3.3850   58.5570 N.3   262  TYR262     -0.1227
     40  CA        42.9460    4.4540   58.7760 C.3   262  TYR262      0.1736
     41  C         42.7480    5.0860   60.1480 C.2   262  TYR262      0.2595
     42  O         43.7180    5.4430   60.8260 O.2   262  TYR262     -0.2718
     43  CB        42.8330    5.5070   57.6730 C.3   262  TYR262      0.0548
     44  CG        44.0030    6.4510   57.6740 C.ar  262  TYR262     -0.0200
     45  CD1       44.0560    7.5300   58.5520 C.ar  262  TYR262     -0.0009
     46  CD2       45.0840    6.2370   56.8290 C.ar  262  TYR262     -0.0009
     47  CE1       45.1500    8.3850   58.5710 C.ar  262  TYR262      0.0417
     48  CE2       46.1830    7.0820   56.8410 C.ar  262  TYR262      0.0417
     49  CZ        46.2140    8.1550   57.7120 C.ar  262  TYR262      0.1957
     50  OH        47.3120    8.9960   57.7140 O.3   262  TYR262     -0.2866
     51  N         41.4940    5.2210   60.5800 N.am  263  ALA263     -0.1980
     52  CA        41.2270    5.7340   61.9170 C.3   263  ALA263      0.1597
     53  C         41.8660    4.8500   62.9820 C.2   263  ALA263      0.2287
     54  O         42.5340    5.3460   63.8940 O.2   263  ALA263     -0.2864
     55  CB        39.7190    5.8530   62.1380 C.3   263  ALA263      0.0319
     56  N         45.8870    5.1220   62.7250 N.3   266  PHE266     -0.1227
     57  CA        46.3550    6.4080   63.2240 C.3   266  PHE266      0.1736
     58  C         46.0970    6.5530   64.7220 C.2   266  PHE266      0.2596
     59  O         46.8960    7.1710   65.4330 O.2   266  PHE266     -0.2718
     60  CB        45.6910    7.5450   62.4510 C.3   266  PHE266      0.0547
     61  CG        46.3940    8.8510   62.5970 C.ar  266  PHE266     -0.0202
     62  CD1       47.4710    9.1620   61.7790 C.ar  266  PHE266     -0.0042
     63  CD2       46.0140    9.7540   63.5800 C.ar  266  PHE266     -0.0042
     64  CE1       48.1430   10.3670   61.9200 C.ar  266  PHE266     -0.0003
     65  CE2       46.6760   10.9630   63.7280 C.ar  266  PHE266     -0.0003
     66  CZ        47.7430   11.2700   62.8950 C.ar  266  PHE266     -0.0000
     67  N         44.9970    5.9840   65.2220 N.am  267  SER267     -0.1952
     68  CA        44.7650    5.9660   66.6640 C.3   267  SER267      0.1924
     69  C         45.8150    5.1300   67.3810 C.2   267  SER267      0.2314
     70  O         46.2040    5.4500   68.5070 O.2   267  SER267     -0.2863
     71  CB        43.3670    5.4430   66.9840 C.3   267  SER267      0.2116
     72  OG        42.3850    6.3980   66.6420 O.3   267  SER267     -0.2180
     73  N         48.6410    7.4840   67.7670 N.3   270  ILE270     -0.1245
     74  CA        48.4250    8.4370   68.8550 C.3   270  ILE270      0.1561
     75  C         48.5930    7.7580   70.2080 C.2   270  ILE270      0.2260
     76  O         49.1090    8.3570   71.1600 O.2   270  ILE270     -0.2867
     77  CB        47.0460    9.1080   68.7240 C.3   270  ILE270      0.0252
     78  CG1       47.0210    9.9940   67.4790 C.3   270  ILE270      0.0019
     79  CG2       46.7180    9.9120   69.9790 C.3   270  ILE270      0.0019
     80  CD1       48.2210   10.9160   67.3810 C.3   270  ILE270      0.0001
@<TRIPOS>BOND
     1    10     9    2
     2     9     8    1
     3     8    11    1
     4     8     7    1
     5    17    15    1
     6    11    12    1
     7    15    14    2
     8    15    16    1
     9    14    13    1
    10    12    13    1
    11     4     3    2
    12    25    23   ar
    13     3     2    1
    14    24    23   ar
    15    23    22    1
    16     2     1    1
    17     2     5    1
    18    22    19    1
    19    18    19    1
    20     6     5    1
    21    33    31    1
    22    19    20    1
    23    31    30    1
    24    20    21    2
    25    30    32    1
    26    30    27    1
    27    26    27    1
    28    27    28    1
    29    28    34   am
    30    28    29    2
    31    34    35    1
    32    38    35    1
    33    35    36    1
    34    46    48   ar
    35    46    44   ar
    36    48    49   ar
    37    43    44    1
    38    43    40    1
    39    44    45   ar
    40    36    37    2
    41    49    50    1
    42    49    47   ar
    43    45    47   ar
    44    39    40    1
    45    40    41    1
    46    41    51   am
    47    41    42    2
    48    51    52    1
    49    62    64   ar
    50    62    61   ar
    51    52    55    1
    52    52    53    1
    53    64    66   ar
    54    60    61    1
    55    60    57    1
    56    61    63   ar
    57    56    57    1
    58    66    65   ar
    59    53    54    2
    60    57    58    1
    61    63    65   ar
    62    58    67   am
    63    58    59    2
    64    67    68    1
    65    72    71    1
    66    68    71    1
    67    68    69    1
    68    69    70    2
    69    80    78    1
    70    78    77    1
    71    73    74    1
    72    77    74    1
    73    77    79    1
    74    74    75    1
    75    75    76    2
