@<TRIPOS>MOLECULE
tmp/5osaD00.pdb
 84 79 0 0 0
SMALL
GASTEIGER

@<TRIPOS>ATOM
      1  N         37.8710    3.9560   58.0430 N.3   260  VAL260     -0.1245
      2  CA        37.8160    3.4670   59.4150 C.3   260  VAL260      0.1561
      3  C         39.0900    2.7020   59.7660 C.2   260  VAL260      0.2260
      4  O         39.6320    2.8450   60.8720 O.2   260  VAL260     -0.2867
      5  CB        36.5460    2.6250   59.6230 C.3   260  VAL260      0.0252
      6  CG1       36.6270    1.8310   60.9080 C.3   260  VAL260      0.0019
      7  CG2       35.3420    3.5450   59.6660 C.3   260  VAL260      0.0019
      8  N         41.4940    5.2210   60.5800 N.3   263  ALA263     -0.1231
      9  CA        41.2270    5.7340   61.9170 C.3   263  ALA263      0.1694
     10  C         41.8660    4.8500   62.9820 C.2   263  ALA263      0.2592
     11  O         42.5340    5.3460   63.8940 O.2   263  ALA263     -0.2718
     12  CB        39.7190    5.8530   62.1380 C.3   263  ALA263      0.0304
     13  N         41.6670    3.5300   62.8870 N.am  264  PHE264     -0.1976
     14  CA        42.2290    2.6240   63.8880 C.3   264  PHE264      0.1639
     15  C         43.7570    2.6730   63.9020 C.2   264  PHE264      0.2290
     16  O         44.3820    2.6550   64.9730 O.2   264  PHE264     -0.2864
     17  CB        41.7520    1.1930   63.6360 C.3   264  PHE264      0.0560
     18  CG        40.4210    0.8730   64.2470 C.ar  264  PHE264     -0.0200
     19  CD1       40.3360    0.4410   65.5570 C.ar  264  PHE264     -0.0042
     20  CD2       39.2560    0.9810   63.5040 C.ar  264  PHE264     -0.0042
     21  CE1       39.1120    0.1360   66.1230 C.ar  264  PHE264     -0.0003
     22  CE2       38.0280    0.6820   64.0630 C.ar  264  PHE264     -0.0003
     23  CZ        37.9530    0.2560   65.3710 C.ar  264  PHE264     -0.0000
     24  N         44.9970    5.9840   65.2220 N.3   267  SER267     -0.1217
     25  CA        44.7650    5.9660   66.6640 C.3   267  SER267      0.1889
     26  C         45.8150    5.1300   67.3810 C.2   267  SER267      0.2288
     27  O         46.2040    5.4500   68.5070 O.2   267  SER267     -0.2866
     28  CB        43.3670    5.4430   66.9840 C.3   267  SER267      0.2089
     29  OG        42.3850    6.3980   66.6420 O.3   267  SER267     -0.2183
     30  N         48.4920    1.5010   82.1220 N.3   288  LYS288     -0.1231
     31  CA        47.0380    1.3910   82.0340 C.3   288  LYS288      0.1693
     32  C         46.5700    1.6450   80.6030 C.2   288  LYS288      0.2591
     33  O         45.6570    0.9710   80.1060 O.2   288  LYS288     -0.2718
     34  CB        46.3690    2.3630   83.0120 C.3   288  LYS288      0.0285
     35  CG        44.8580    2.1550   82.9050 C.3   288  LYS288      0.0035
     36  CD        44.0240    2.7370   84.0190 C.3   288  LYS288      0.0206
     37  CE        43.6690    4.1800   83.7030 C.3   288  LYS288      0.1093
     38  NZ        44.8680    4.9220   83.1920 N.3   288  LYS288     -0.1314
     39  N         47.1990    2.6030   79.9210 N.am  289  ILE289     -0.1980
     40  CA        46.8470    2.8840   78.5370 C.3   289  ILE289      0.1595
     41  C         47.0580    1.6500   77.6690 C.2   289  ILE289      0.2287
     42  O         46.1620    1.2440   76.9240 O.2   289  ILE289     -0.2864
     43  CB        47.6410    4.0930   78.0130 C.3   289  ILE289      0.0276
     44  CG1       47.2220    5.3630   78.7570 C.3   289  ILE289      0.0022
     45  CG2       47.4440    4.2500   76.5010 C.3   289  ILE289      0.0022
     46  CD1       47.9410    6.6190   78.2810 C.3   289  ILE289      0.0001
     47  N         44.4660   -1.2090   78.5550 N.3   292  LEU292     -0.1231
     48  CA        43.1320   -1.0000   78.0060 C.3   292  LEU292      0.1693
     49  C         43.1480   -1.1050   76.4850 C.2   292  LEU292      0.2592
     50  O         42.3330   -1.8200   75.8950 O.2   292  LEU292     -0.2718
     51  CB        42.5860    0.3560   78.4580 C.3   292  LEU292      0.0284
     52  CG        42.4140    0.5030   79.9740 C.3   292  LEU292      0.0019
     53  CD1       41.9870    1.9180   80.3670 C.3   292  LEU292      0.0001
     54  CD2       41.4210   -0.5260   80.4970 C.3   292  LEU292      0.0001
     55  N         44.1080   -0.4440   75.8370 N.am  293  SER293     -0.1952
     56  CA        44.1780   -0.4700   74.3820 C.3   293  SER293      0.1924
     57  C         44.1960   -1.8940   73.8350 C.2   293  SER293      0.2314
     58  O         43.4910   -2.1970   72.8620 O.2   293  SER293     -0.2863
     59  CB        45.4070    0.3070   73.9060 C.3   293  SER293      0.2116
     60  OG        45.2580    1.6940   74.1590 O.3   293  SER293     -0.2180
     61  N         40.5570   -2.8230   73.9300 N.3   296  ALA296     -0.1231
     62  CA        39.6100   -1.9460   73.2540 C.3   296  ALA296      0.1694
     63  C         39.8000   -1.9740   71.7410 C.2   296  ALA296      0.2592
     64  O         38.8400   -2.2020   70.9930 O.2   296  ALA296     -0.2718
     65  CB        39.7500   -0.5220   73.7850 C.3   296  ALA296      0.0304
     66  N         41.0310   -1.7480   71.2660 N.am  297  PHE297     -0.1976
     67  CA        41.2160   -1.6080   69.8250 C.3   297  PHE297      0.1639
     68  C         40.6460   -2.8140   69.0880 C.2   297  PHE297      0.2290
     69  O         39.7360   -2.6580   68.2610 O.2   297  PHE297     -0.2864
     70  CB        42.6900   -1.4060   69.4720 C.3   297  PHE297      0.0560
     71  CG        43.1480    0.0240   69.5790 C.ar  297  PHE297     -0.0200
     72  CD1       43.3560    0.6110   70.8200 C.ar  297  PHE297     -0.0042
     73  CD2       43.3850    0.7770   68.4390 C.ar  297  PHE297     -0.0042
     74  CE1       43.7780    1.9280   70.9220 C.ar  297  PHE297     -0.0003
     75  CE2       43.8090    2.0920   68.5310 C.ar  297  PHE297     -0.0003
     76  CZ        44.0070    2.6690   69.7790 C.ar  297  PHE297     -0.0000
     77  N         36.6820   -2.8530   69.3480 N.3   300  LEU300     -0.1245
     78  CA        36.0100   -1.9040   68.4660 C.3   300  LEU300      0.1561
     79  C         36.1700   -2.3090   67.0070 C.2   300  LEU300      0.2260
     80  O         35.2520   -2.1290   66.2000 O.2   300  LEU300     -0.2867
     81  CB        36.5450   -0.4870   68.6830 C.3   300  LEU300      0.0270
     82  CG        35.9510    0.4140   69.7740 C.3   300  LEU300      0.0019
     83  CD1       34.4500    0.5460   69.6080 C.3   300  LEU300      0.0001
     84  CD2       36.2930   -0.0840   71.1700 C.3   300  LEU300      0.0001
@<TRIPOS>BOND
     1     1     2    1
     2     2     5    1
     3     2     3    1
     4     5     7    1
     5     5     6    1
     6     3     4    2
     7     8     9    1
     8     9    12    1
     9     9    10    1
    10    13    10   am
    11    13    14    1
    12    10    11    2
    13    20    22   ar
    14    20    18   ar
    15    17    14    1
    16    17    18    1
    17    14    15    1
    18    15    16    2
    19    22    23   ar
    20    18    19   ar
    21    24    25    1
    22    23    21   ar
    23    19    21   ar
    24    80    79    2
    25    29    28    1
    26    25    28    1
    27    25    26    1
    28    79    78    1
    29    26    27    2
    30    69    68    2
    31    73    75   ar
    32    73    71   ar
    33    78    81    1
    34    78    77    1
    35    75    76   ar
    36    81    82    1
    37    68    67    1
    38    70    71    1
    39    70    67    1
    40    71    72   ar
    41    83    82    1
    42    82    84    1
    43    76    74   ar
    44    67    66    1
    45    72    74   ar
    46    64    63    2
    47    66    63   am
    48    63    62    1
    49    58    57    2
    50    62    65    1
    51    62    61    1
    52    57    56    1
    53    59    60    1
    54    59    56    1
    55    56    55    1
    56    55    49   am
    57    50    49    2
    58    49    48    1
    59    45    43    1
    60    42    41    2
    61    41    40    1
    62    48    51    1
    63    48    47    1
    64    43    40    1
    65    43    44    1
    66    46    44    1
    67    51    52    1
    68    40    39    1
    69    39    32   am
    70    52    53    1
    71    52    54    1
    72    33    32    2
    73    32    31    1
    74    31    30    1
    75    31    34    1
    76    35    34    1
    77    35    36    1
    78    38    37    1
    79    37    36    1
