@<TRIPOS>MOLECULE
tmp/5osaD01.pdb
 95 90 0 0 0
SMALL
GASTEIGER

@<TRIPOS>ATOM
      1  N         32.0220   -9.1730   44.5780 N.3   191  TYR191     -0.1241
      2  CA        32.9500   -8.4130   45.4120 C.3   191  TYR191      0.1605
      3  C         34.1430   -9.2230   45.9100 C.2   191  TYR191      0.2264
      4  O         35.1380   -8.6250   46.3340 O.2   191  TYR191     -0.2867
      5  CB        32.2220   -7.8460   46.6310 C.3   191  TYR191      0.0534
      6  CG        31.6120   -8.9090   47.5100 C.ar  191  TYR191     -0.0201
      7  CD1       32.4070   -9.7170   48.3080 C.ar  191  TYR191     -0.0009
      8  CD2       30.2400   -9.1000   47.5480 C.ar  191  TYR191     -0.0009
      9  CE1       31.8570  -10.6930   49.1090 C.ar  191  TYR191      0.0417
     10  CE2       29.6770  -10.0730   48.3530 C.ar  191  TYR191      0.0417
     11  CZ        30.4910  -10.8660   49.1310 C.ar  191  TYR191      0.1957
     12  OH        29.9370  -11.8370   49.9340 O.3   191  TYR191     -0.2866
     13  N         37.9640   -8.5770   48.2440 N.3   195  VAL195     -0.1245
     14  CA        38.2620   -9.0620   49.5870 C.3   195  VAL195      0.1561
     15  C         39.7390   -9.3880   49.7190 C.2   195  VAL195      0.2260
     16  O         40.3710   -9.0680   50.7330 O.2   195  VAL195     -0.2867
     17  CB        37.3910  -10.2810   49.9330 C.3   195  VAL195      0.0252
     18  CG1       38.0950  -11.1320   50.9660 C.3   195  VAL195      0.0019
     19  CG2       36.0590   -9.8180   50.4840 C.3   195  VAL195      0.0019
     20  N         41.5260   -7.6010   52.8430 N.3   200  LEU200     -0.1245
     21  CA        42.4500   -8.3580   53.6870 C.3   200  LEU200      0.1561
     22  C         43.7030   -7.5530   53.9920 C.2   200  LEU200      0.2260
     23  O         44.0800   -7.4610   55.1710 O.2   200  LEU200     -0.2867
     24  CB        42.7720   -9.7080   53.0450 C.3   200  LEU200      0.0270
     25  CG        41.7620  -10.8070   53.3970 C.3   200  LEU200      0.0019
     26  CD1       42.2720  -12.1730   52.9830 C.3   200  LEU200      0.0001
     27  CD2       41.4160  -10.7780   54.8740 C.3   200  LEU200      0.0001
     28  N         42.6560   -5.1990   56.8020 N.3   203  ILE203     -0.1245
     29  CA        42.4270   -5.8240   58.1010 C.3   203  ILE203      0.1561
     30  C         43.7510   -6.2410   58.7300 C.2   203  ILE203      0.2260
     31  O         44.0170   -5.9710   59.9100 O.2   203  ILE203     -0.2867
     32  CB        41.4580   -7.0120   57.9520 C.3   203  ILE203      0.0252
     33  CG1       40.0520   -6.4950   57.6390 C.3   203  ILE203      0.0019
     34  CG2       41.4670   -7.8840   59.1970 C.3   203  ILE203      0.0019
     35  CD1       39.1120   -7.5490   57.1110 C.3   203  ILE203      0.0001
     36  N         45.4550   -5.0670   62.3330 N.3   207  ILE207     -0.1245
     37  CA        45.9210   -6.0200   63.3360 C.3   207  ILE207      0.1561
     38  C         47.4070   -5.8080   63.6270 C.2   207  ILE207      0.2260
     39  O         47.8420   -5.7400   64.7890 O.2   207  ILE207     -0.2867
     40  CB        45.6190   -7.4520   62.8620 C.3   207  ILE207      0.0252
     41  CG1       44.1080   -7.6880   62.8910 C.3   207  ILE207      0.0019
     42  CG2       46.3550   -8.4730   63.6930 C.3   207  ILE207      0.0019
     43  CD1       43.6660   -8.9740   62.2080 C.3   207  ILE207      0.0001
     44  N         41.1330   -4.0270   69.3570 N.3   298  PRO298     -0.2116
     45  CA        40.6170   -5.1930   68.6230 C.3   298  PRO298      0.1372
     46  C         39.1310   -5.4390   68.8510 C.2   298  PRO298      0.2244
     47  O         38.4860   -6.0650   68.0020 O.2   298  PRO298     -0.2868
     48  CB        41.4800   -6.3470   69.1510 C.3   298  PRO298      0.0268
     49  CG        41.9100   -5.9000   70.4850 C.3   298  PRO298      0.0207
     50  CD        42.0920   -4.4170   70.3970 C.3   298  PRO298      0.0892
     51  N         37.3320   -2.8560   66.6460 N.3   301  PHE301     -0.1227
     52  CA        37.5390   -3.2780   65.2660 C.3   301  PHE301      0.1736
     53  C         36.6800   -4.4890   64.9240 C.2   301  PHE301      0.2596
     54  O         36.0820   -4.5450   63.8410 O.2   301  PHE301     -0.2718
     55  CB        39.0130   -3.5820   65.0250 C.3   301  PHE301      0.0547
     56  CG        39.3740   -3.7160   63.5750 C.ar  301  PHE301     -0.0202
     57  CD1       39.2120   -2.6460   62.7100 C.ar  301  PHE301     -0.0042
     58  CD2       39.8780   -4.9070   63.0770 C.ar  301  PHE301     -0.0042
     59  CE1       39.5490   -2.7560   61.3750 C.ar  301  PHE301     -0.0003
     60  CE2       40.2170   -5.0250   61.7420 C.ar  301  PHE301     -0.0003
     61  CZ        40.0510   -3.9450   60.8890 C.ar  301  PHE301     -0.0000
     62  N         36.6040   -5.4680   65.8300 N.am  302  GLY302     -0.1957
     63  CA        35.7400   -6.6130   65.5830 C.3   302  GLY302      0.1869
     64  C         34.2810   -6.2210   65.4350 C.2   302  GLY302      0.2309
     65  O         33.6040   -6.6380   64.4900 O.2   302  GLY302     -0.2863
     66  N         33.7570   -4.4760   62.0520 N.3   305  ASN305     -0.1240
     67  CA        33.6450   -5.4640   60.9850 C.3   305  ASN305      0.1653
     68  C         32.2980   -6.1750   61.0140 C.2   305  ASN305      0.2266
     69  O         31.7180   -6.4610   59.9590 O.2   305  ASN305     -0.2867
     70  CB        34.7990   -6.4590   61.0690 C.3   305  ASN305      0.1155
     71  CG        35.9920   -6.0150   60.2630 C.2   305  ASN305      0.2627
     72  OD1       36.1780   -6.4430   59.1240 O.2   305  ASN305     -0.2716
     73  ND2       36.7720   -5.0990   60.8150 N.am  305  ASN305     -0.0877
     74  N         30.1950   -5.8580   57.5310 N.3   309  TRP309     -0.1241
     75  CA        29.9020   -7.0190   56.6980 C.3   309  TRP309      0.1605
     76  C         28.4500   -7.4540   56.8240 C.2   309  TRP309      0.2264
     77  O         27.8670   -7.9500   55.8510 O.2   309  TRP309     -0.2867
     78  CB        30.8450   -8.1640   57.0540 C.3   309  TRP309      0.0550
     79  CG        32.2470   -7.8120   56.7390 C.ar  309  TRP309      0.0003
     80  CD1       33.2190   -7.4720   57.6190 C.ar  309  TRP309      0.0946
     81  CD2       32.8290   -7.7160   55.4340 C.ar  309  TRP309      0.0152
     82  NE1       34.3850   -7.1900   56.9500 N.ar  309  TRP309     -0.2442
     83  CE2       34.1720   -7.3330   55.6050 C.ar  309  TRP309      0.0810
     84  CE3       32.3480   -7.9330   54.1400 C.ar  309  TRP309      0.0012
     85  CZ2       35.0410   -7.1530   54.5290 C.ar  309  TRP309      0.0191
     86  CZ3       33.2160   -7.7610   53.0730 C.ar  309  TRP309      0.0001
     87  CH2       34.5460   -7.3760   53.2750 C.ar  309  TRP309      0.0015
     88  N         26.3710   -7.0000   53.0170 N.3   313  LEU313     -0.1245
     89  CA        26.0850   -8.3000   52.4170 C.3   313  LEU313      0.1561
     90  C         24.6060   -8.6270   52.6140 C.2   313  LEU313      0.2260
     91  O         24.1070   -9.6200   52.1000 O.2   313  LEU313     -0.2867
     92  CB        26.9680   -9.4060   53.0110 C.3   313  LEU313      0.0270
     93  CG        28.4930   -9.2970   52.8810 C.3   313  LEU313      0.0019
     94  CD1       29.1630  -10.5950   53.3080 C.3   313  LEU313      0.0001
     95  CD2       28.9110   -8.9330   51.4680 C.3   313  LEU313      0.0001
@<TRIPOS>BOND
     1     1     2    1
     2     2     3    1
     3     2     5    1
     4     3     4    2
     5     5     6    1
     6     6     8   ar
     7     6     7   ar
     8     8    10   ar
     9    13    14    1
    10     7     9   ar
    11    10    11   ar
    12     9    11   ar
    13    11    12    1
    14    14    15    1
    15    14    17    1
    16    15    16    2
    17    17    19    1
    18    17    18    1
    19    95    93    1
    20    91    90    2
    21    89    90    1
    22    89    92    1
    23    89    88    1
    24    20    21    1
    25    93    92    1
    26    93    94    1
    27    26    25    1
    28    24    25    1
    29    24    21    1
    30    86    87   ar
    31    86    84   ar
    32    87    85   ar
    33    25    27    1
    34    21    22    1
    35    22    23    2
    36    84    81   ar
    37    85    83   ar
    38    81    83   ar
    39    81    79   ar
    40    83    82   ar
    41    77    76    2
    42    75    76    1
    43    75    78    1
    44    75    74    1
    45    79    78    1
    46    79    80   ar
    47    28    29    1
    48    82    80   ar
    49    35    33    1
    50    33    32    1
    51    32    29    1
    52    32    34    1
    53    29    30    1
    54    30    31    2
    55    72    71    2
    56    69    68    2
    57    71    73   am
    58    71    70    1
    59    61    59   ar
    60    61    60   ar
    61    67    68    1
    62    67    70    1
    63    67    66    1
    64    59    57   ar
    65    60    58   ar
    66    43    41    1
    67    36    37    1
    68    57    56   ar
    69    40    41    1
    70    40    37    1
    71    40    42    1
    72    58    56   ar
    73    37    38    1
    74    56    55    1
    75    38    39    2
    76    54    53    2
    77    65    64    2
    78    53    52    1
    79    53    62   am
    80    55    52    1
    81    52    51    1
    82    64    63    1
    83    63    62    1
    84    47    46    2
    85    45    46    1
    86    45    48    1
    87    45    44    1
    88    48    49    1
    89    44    50    1
    90    50    49    1
