@<TRIPOS>MOLECULE
tmp/5oscA00.pdb
 99 92 0 0 0
SMALL
GASTEIGER

@<TRIPOS>ATOM
      1  N          6.3160  -18.5470  220.9130 N.3   263  PHE263     -0.1241
      2  CA         6.8880  -19.4430  221.9130 C.3   263  PHE263      0.1605
      3  C          8.4110  -19.3760  221.9150 C.2   263  PHE263      0.2264
      4  O          9.0360  -19.3130  222.9800 O.2   263  PHE263     -0.2867
      5  CB         6.4200  -20.8780  221.6690 C.3   263  PHE263      0.0534
      6  CG         5.0860  -21.1930  222.2780 C.ar  263  PHE263     -0.0203
      7  CD1        3.9190  -21.0350  221.5500 C.ar  263  PHE263     -0.0042
      8  CD2        4.9990  -21.6600  223.5780 C.ar  263  PHE263     -0.0042
      9  CE1        2.6900  -21.3310  222.1120 C.ar  263  PHE263     -0.0003
     10  CE2        3.7730  -21.9560  224.1450 C.ar  263  PHE263     -0.0003
     11  CZ         2.6170  -21.7920  223.4100 C.ar  263  PHE263     -0.0000
     12  N          9.6270  -16.1120  223.2090 N.3   266  SER266     -0.1217
     13  CA         9.3520  -16.1390  224.6410 C.3   266  SER266      0.1889
     14  C         10.4310  -16.9150  225.3850 C.2   266  SER266      0.2288
     15  O         10.8540  -16.5160  226.4770 O.2   266  SER266     -0.2866
     16  CB         7.9750  -16.7460  224.9040 C.3   266  SER266      0.2089
     17  OG         6.9440  -15.9240  224.3850 O.3   266  SER266     -0.2183
     18  N         12.9240  -15.5150  228.2280 N.3   270  GLU270     -0.1245
     19  CA        13.1090  -16.2750  229.4590 C.3   270  GLU270      0.1567
     20  C         14.5890  -16.4830  229.7500 C.2   270  GLU270      0.2260
     21  O         15.0470  -16.2780  230.8780 O.2   270  GLU270     -0.2867
     22  CB        12.3770  -17.6140  229.3610 C.3   270  GLU270      0.0388
     23  CG        12.3720  -18.4190  230.6510 C.3   270  GLU270      0.1160
     24  CD        13.5770  -19.3300  230.7850 C.2   270  GLU270      0.3649
     25  OE1       14.4740  -19.2730  229.9180 O.co2 270  GLU270     -0.2457
     26  OE2       13.6270  -20.1010  231.7660 O.co2 270  GLU270     -0.2457
     27  N         16.0410  -13.2720  231.0100 N.3   273  THR273     -0.1218
     28  CA        15.6280  -12.9980  232.3830 C.3   273  THR273      0.1862
     29  C         16.4090  -13.8530  233.3760 C.2   273  THR273      0.2287
     30  O         16.9810  -13.3380  234.3440 O.2   273  THR273     -0.2866
     31  CB        14.1240  -13.2350  232.5340 C.3   273  THR273      0.1770
     32  OG1       13.4030  -12.2730  231.7530 O.3   273  THR273     -0.2211
     33  CG2       13.7080  -13.1150  233.9910 C.3   273  THR273      0.0375
     34  N         15.1950  -17.1560  242.4840 N.3   284  ARG284     -0.1245
     35  CA        14.2500  -16.6660  241.4870 C.3   284  ARG284      0.1563
     36  C         14.4790  -17.3400  240.1400 C.2   284  ARG284      0.2260
     37  O         13.5390  -17.8480  239.5210 O.2   284  ARG284     -0.2867
     38  CB        14.3550  -15.1480  241.3570 C.3   284  ARG284      0.0307
     39  CG        13.3520  -14.5530  240.3870 C.3   284  ARG284      0.0489
     40  CD        13.6330  -13.0840  240.1400 C.3   284  ARG284      0.2205
     41  NE        13.4300  -12.2790  241.3400 N.pl3 284  ARG284     -0.0865
     42  CZ        12.2620  -11.7530  241.6970 C.cat 284  ARG284      0.5346
     43  NH1       11.1890  -11.9460  240.9440 N.pl3 284  ARG284      0.1354
     44  NH2       12.1680  -11.0330  242.8080 N.pl3 284  ARG284      0.1354
     45  N         13.3060  -20.8090  240.1430 N.3   287  LYS287     -0.1231
     46  CA        11.8550  -20.8600  240.0110 C.3   287  LYS287      0.1693
     47  C         11.4220  -20.6170  238.5700 C.2   287  LYS287      0.2591
     48  O         10.4830  -21.2560  238.0830 O.2   287  LYS287     -0.2718
     49  CB        11.2060  -19.8380  240.9440 C.3   287  LYS287      0.0285
     50  CG         9.6990  -19.8990  241.0490 C.3   287  LYS287      0.0035
     51  CD         9.2150  -19.4510  242.4580 C.3   287  LYS287      0.0206
     52  CE         9.9420  -18.2000  242.9840 C.3   287  LYS287      0.1093
     53  NZ         9.6590  -16.9900  242.1770 N.3   287  LYS287     -0.1314
     54  N         12.0880  -19.6910  237.8760 N.am  288  ILE288     -0.1980
     55  CA        11.7220  -19.3810  236.4960 C.3   288  ILE288      0.1595
     56  C         11.8910  -20.6080  235.6100 C.2   288  ILE288      0.2287
     57  O         10.9770  -20.9930  234.8710 O.2   288  ILE288     -0.2864
     58  CB        12.5470  -18.1900  235.9740 C.3   288  ILE288      0.0276
     59  CG1       12.1780  -16.9140  236.7380 C.3   288  ILE288      0.0022
     60  CG2       12.3380  -18.0100  234.4760 C.3   288  ILE288      0.0022
     61  CD1       12.9280  -15.6810  236.2760 C.3   288  ILE288      0.0001
     62  N          9.3500  -23.4510  236.5840 N.3   291  LEU291     -0.1231
     63  CA         7.9920  -23.2330  236.0960 C.3   291  LEU291      0.1693
     64  C          7.9210  -23.3320  234.5760 C.2   291  LEU291      0.2592
     65  O          6.9830  -23.9270  234.0340 O.2   291  LEU291     -0.2718
     66  CB         7.4690  -21.8790  236.5740 C.3   291  LEU291      0.0284
     67  CG         7.2280  -21.7640  238.0790 C.3   291  LEU291      0.0019
     68  CD1        6.8440  -20.3460  238.4570 C.3   291  LEU291      0.0001
     69  CD2        6.1460  -22.7390  238.5070 C.3   291  LEU291      0.0001
     70  N          8.8980  -22.7560  233.8720 N.am  292  SER292     -0.1952
     71  CA         8.8660  -22.7820  232.4130 C.3   292  SER292      0.1924
     72  C          8.8500  -24.2110  231.8840 C.2   292  SER292      0.2314
     73  O          8.0930  -24.5300  230.9560 O.2   292  SER292     -0.2863
     74  CB        10.0610  -22.0150  231.8450 C.3   292  SER292      0.2116
     75  OG        10.0070  -20.6450  232.2020 O.3   292  SER292     -0.2180
     76  N          5.2190  -25.0680  232.0470 N.3   295  ALA295     -0.1231
     77  CA         4.2410  -24.1960  231.4070 C.3   295  ALA295      0.1694
     78  C          4.3960  -24.1850  229.8910 C.2   295  ALA295      0.2592
     79  O          3.4050  -24.2980  229.1620 O.2   295  ALA295     -0.2718
     80  CB         4.3560  -22.7800  231.9690 C.3   295  ALA295      0.0304
     81  N          5.6300  -24.0440  229.3960 N.am  296  PHE296     -0.1976
     82  CA         5.8290  -23.9360  227.9510 C.3   296  PHE296      0.1639
     83  C          5.2310  -25.1160  227.1970 C.2   296  PHE296      0.2290
     84  O          4.3230  -24.9090  226.3710 O.2   296  PHE296     -0.2864
     85  CB         7.3190  -23.7570  227.6520 C.3   296  PHE296      0.0560
     86  CG         7.7680  -22.3220  227.6420 C.ar  296  PHE296     -0.0200
     87  CD1        8.0170  -21.6500  228.8260 C.ar  296  PHE296     -0.0042
     88  CD2        7.9350  -21.6440  226.4470 C.ar  296  PHE296     -0.0042
     89  CE1        8.4300  -20.3290  228.8160 C.ar  296  PHE296     -0.0003
     90  CE2        8.3460  -20.3230  226.4310 C.ar  296  PHE296     -0.0003
     91  CZ         8.5930  -19.6650  227.6160 C.ar  296  PHE296     -0.0000
     92  N          1.2150  -25.0940  227.4980 N.3   299  LEU299     -0.1245
     93  CA         0.5580  -24.1170  226.6370 C.3   299  LEU299      0.1561
     94  C          0.7060  -24.4950  225.1690 C.2   299  LEU299      0.2260
     95  O         -0.2160  -24.2920  224.3710 O.2   299  LEU299     -0.2867
     96  CB         1.1290  -22.7210  226.8890 C.3   299  LEU299      0.0270
     97  CG         0.5600  -21.9140  228.0570 C.3   299  LEU299      0.0019
     98  CD1       -0.9160  -21.6160  227.8350 C.3   299  LEU299      0.0001
     99  CD2        0.7760  -22.6300  229.3830 C.3   299  LEU299      0.0001
@<TRIPOS>BOND
     1     1     2    1
     2     7     9   ar
     3     7     6   ar
     4     5     2    1
     5     5     6    1
     6     2     3    1
     7     3     4    2
     8     9    11   ar
     9     6     8   ar
    10    12    13    1
    11    11    10   ar
    12     8    10   ar
    13    95    94    2
    14    17    16    1
    15    13    16    1
    16    13    14    1
    17    94    93    1
    18    14    15    2
    19    84    83    2
    20    90    88   ar
    21    90    91   ar
    22    88    86   ar
    23    93    96    1
    24    93    92    1
    25    96    97    1
    26    83    82    1
    27    91    89   ar
    28    86    85    1
    29    86    87   ar
    30    85    82    1
    31    98    97    1
    32    82    81    1
    33    97    99    1
    34    18    19    1
    35    89    87   ar
    36    79    78    2
    37    22    19    1
    38    22    23    1
    39    81    78   am
    40    19    20    1
    41    20    21    2
    42    78    77    1
    43    25    24   ar
    44    23    24    1
    45    24    26   ar
    46    73    72    2
    47    27    28    1
    48    77    80    1
    49    77    76    1
    50    32    31    1
    51    74    75    1
    52    74    71    1
    53    72    71    1
    54    28    31    1
    55    28    29    1
    56    71    70    1
    57    31    33    1
    58    29    30    2
    59    70    64   am
    60    65    64    2
    61    60    58    1
    62    64    63    1
    63    57    56    2
    64    56    55    1
    65    58    55    1
    66    58    59    1
    67    63    66    1
    68    63    62    1
    69    61    59    1
    70    55    54    1
    71    66    67    1
    72    54    47   am
    73    67    68    1
    74    67    69    1
    75    48    47    2
    76    47    46    1
    77    37    36    2
    78    46    45    1
    79    46    49    1
    80    36    35    1
    81    40    39    1
    82    40    41    1
    83    39    38    1
    84    43    42    1
    85    49    50    1
    86    50    51    1
    87    41    42    2
    88    38    35    1
    89    35    34    1
    90    42    44    1
    91    53    52    1
    92    51    52    1
