@<TRIPOS>MOLECULE
tmp/5osdA01.pdb
 110 104 0 0 0
SMALL
GASTEIGER

@<TRIPOS>ATOM
      1  N         -2.9000   22.5150  -31.6170 N.3     1  LYS1       -0.1245
      2  CA        -3.1070   22.4140  -30.1760 C.3     1  LYS1        0.1561
      3  C         -2.1570   21.3900  -29.5620 C.2     1  LYS1        0.2260
      4  O         -2.1290   20.2300  -29.9730 O.2     1  LYS1       -0.2867
      5  CB        -4.5590   22.0440  -29.8670 C.3     1  LYS1        0.0271
      6  CG        -4.8970   21.9520  -28.4030 C.3     1  LYS1        0.0035
      7  CD        -4.7110   23.2440  -27.6690 C.3     1  LYS1        0.0206
      8  CE        -5.4450   23.2510  -26.3560 C.3     1  LYS1        0.1093
      9  NZ        -4.4860   23.5700  -25.3120 N.3     1  LYS1       -0.1314
     10  N          0.1260   18.8600  -23.4040 N.3     4  TRP4       -0.1241
     11  CA         1.0410   19.1050  -22.2960 C.3     4  TRP4        0.1605
     12  C          1.1750   17.9120  -21.3590 C.2     4  TRP4        0.2264
     13  O          0.3620   16.9870  -21.3780 O.2     4  TRP4       -0.2867
     14  CB         0.5880   20.3270  -21.4940 C.3     4  TRP4        0.0550
     15  CG         0.4250   21.5570  -22.3230 C.ar    4  TRP4        0.0003
     16  CD1       -0.7430   22.0770  -22.7970 C.ar    4  TRP4        0.0946
     17  CD2        1.4670   22.4240  -22.7850 C.ar    4  TRP4        0.0152
     18  NE1       -0.4940   23.2170  -23.5230 N.ar    4  TRP4       -0.2442
     19  CE2        0.8570   23.4500  -23.5310 C.ar    4  TRP4        0.0810
     20  CE3        2.8580   22.4310  -22.6390 C.ar    4  TRP4        0.0012
     21  CZ2        1.5880   24.4730  -24.1310 C.ar    4  TRP4        0.0191
     22  CZ3        3.5820   23.4480  -23.2350 C.ar    4  TRP4        0.0001
     23  CH2        2.9460   24.4550  -23.9710 C.ar    4  TRP4        0.0015
     24  N          6.5070   21.7510  -16.9410 N.3     9  PHE9       -0.1241
     25  CA         6.3080   22.8010  -15.9430 C.3     9  PHE9        0.1605
     26  C          7.2230   22.6890  -14.7280 C.2     9  PHE9        0.2264
     27  O          7.5050   21.5950  -14.2420 O.2     9  PHE9       -0.2867
     28  CB         4.8540   22.8040  -15.4630 C.3     9  PHE9        0.0534
     29  CG         3.8510   22.9750  -16.5650 C.ar    9  PHE9       -0.0203
     30  CD1        3.4530   24.2390  -16.9660 C.ar    9  PHE9       -0.0042
     31  CD2        3.3020   21.8710  -17.1980 C.ar    9  PHE9       -0.0042
     32  CE1        2.5300   24.4000  -17.9780 C.ar    9  PHE9       -0.0003
     33  CE2        2.3780   22.0250  -18.2130 C.ar    9  PHE9       -0.0003
     34  CZ         1.9910   23.2910  -18.6040 C.ar    9  PHE9       -0.0000
     35  N          5.8590   27.4080  -17.3760 N.3    28  GLU28      -0.1245
     36  CA         6.1500   26.5350  -18.5080 C.3    28  GLU28       0.1567
     37  C          7.6030   26.7270  -18.9310 C.2    28  GLU28       0.2260
     38  O          8.0490   27.8520  -19.1380 O.2    28  GLU28      -0.2867
     39  CB         5.1960   26.8190  -19.6710 C.3    28  GLU28       0.0388
     40  CG         5.1420   25.7180  -20.7240 C.3    28  GLU28       0.1160
     41  CD         6.3170   25.7580  -21.6810 C.2    28  GLU28       0.3649
     42  OE1        6.6630   26.8630  -22.1490 O.co2  28  GLU28      -0.2457
     43  OE2        6.8940   24.6870  -21.9640 O.co2  28  GLU28      -0.2457
     44  N          8.7040   28.5530  -22.5900 N.3    31  SER31      -0.1217
     45  CA         8.2510   29.9210  -22.8320 C.3    31  SER31       0.1889
     46  C          8.3970   30.8310  -21.6150 C.2    31  SER31       0.2288
     47  O          8.2770   32.0510  -21.7370 O.2    31  SER31      -0.2866
     48  CB         6.7900   29.9150  -23.2830 C.3    31  SER31       0.2089
     49  OG         5.9490   29.4180  -22.2550 O.3    31  SER31      -0.2183
     50  N          6.2610   31.0300  -19.3870 N.3    33  PHE33      -0.1241
     51  CA         4.9200   31.5460  -19.1170 C.3    33  PHE33       0.1605
     52  C          4.4570   31.1780  -17.7100 C.2    33  PHE33       0.2264
     53  O          4.4310   30.0030  -17.3440 O.2    33  PHE33      -0.2867
     54  CB         3.9250   31.0170  -20.1560 C.3    33  PHE33       0.0534
     55  CG         2.6180   31.7630  -20.1850 C.ar   33  PHE33      -0.0203
     56  CD1        2.4180   32.7980  -21.0840 C.ar   33  PHE33      -0.0042
     57  CD2        1.5890   31.4260  -19.3210 C.ar   33  PHE33      -0.0042
     58  CE1        1.2180   33.4850  -21.1170 C.ar   33  PHE33      -0.0003
     59  CE2        0.3880   32.1110  -19.3480 C.ar   33  PHE33      -0.0003
     60  CZ         0.2020   33.1410  -20.2480 C.ar   33  PHE33      -0.0000
     61  N          1.6920   30.6750  -14.8390 N.3    35  LEU35      -0.1245
     62  CA         0.2920   30.2790  -14.7990 C.3    35  LEU35       0.1561
     63  C         -0.0470   29.5870  -13.4840 C.2    35  LEU35       0.2260
     64  O          0.7960   29.4820  -12.5920 O.2    35  LEU35      -0.2867
     65  CB        -0.0260   29.3590  -15.9810 C.3    35  LEU35       0.0270
     66  CG         0.9750   28.2230  -16.2170 C.3    35  LEU35       0.0019
     67  CD1        0.5000   26.9170  -15.5870 C.3    35  LEU35       0.0001
     68  CD2        1.2510   28.0420  -17.7040 C.3    35  LEU35       0.0001
     69  N        -14.8590   33.9170  -23.2320 N.3    65  ARG65      -0.1245
     70  CA       -13.8250   34.9450  -23.3310 C.3    65  ARG65       0.1563
     71  C        -14.3480   36.2890  -22.8260 C.2    65  ARG65       0.2260
     72  O        -15.1410   36.9480  -23.4990 O.2    65  ARG65      -0.2867
     73  CB       -13.3280   35.0850  -24.7730 C.3    65  ARG65       0.0307
     74  CG       -12.7980   33.7970  -25.3920 C.3    65  ARG65       0.0489
     75  CD       -11.5580   33.2900  -24.6720 C.3    65  ARG65       0.2205
     76  NE       -11.3100   31.8780  -24.9560 N.pl3  65  ARG65      -0.0865
     77  CZ       -10.5490   31.4360  -25.9510 C.cat  65  ARG65       0.5346
     78  NH1       -9.9510   32.2960  -26.7640 N.pl3  65  ARG65       0.1354
     79  NH2      -10.3830   30.1330  -26.1330 N.pl3  65  ARG65       0.1354
     80  N         -9.5010   32.6750  -17.4250 N.3    71  ARG71      -0.1245
     81  CA        -9.2430   31.8100  -18.5750 C.3    71  ARG71       0.1563
     82  C         -8.8370   30.3980  -18.1620 C.2    71  ARG71       0.2260
     83  O         -8.1460   30.2090  -17.1610 O.2    71  ARG71      -0.2867
     84  CB        -8.1430   32.4050  -19.4610 C.3    71  ARG71       0.0307
     85  CG        -8.5270   33.6650  -20.2180 C.3    71  ARG71       0.0489
     86  CD        -9.4870   33.3630  -21.3600 C.3    71  ARG71       0.2205
     87  NE        -9.0530   32.2210  -22.1630 N.pl3  71  ARG71      -0.0865
     88  CZ        -8.2320   32.3020  -23.2050 C.cat  71  ARG71       0.5346
     89  NH1       -7.7400   33.4750  -23.5790 N.pl3  71  ARG71       0.1354
     90  NH2       -7.8980   31.2060  -23.8740 N.pl3  71  ARG71       0.1354
     91  N         -6.7980   27.3890  -20.1110 N.3    73  TYR73      -0.1241
     92  CA        -6.0160   27.1820  -21.3260 C.3    73  TYR73       0.1605
     93  C         -6.0440   25.7380  -21.8220 C.2    73  TYR73       0.2264
     94  O         -5.9370   25.4880  -23.0220 O.2    73  TYR73      -0.2867
     95  CB        -4.5690   27.6220  -21.0960 C.3    73  TYR73       0.0534
     96  CG        -4.4160   29.1040  -20.8310 C.ar   73  TYR73      -0.0201
     97  CD1       -4.9720   30.0450  -21.6890 C.ar   73  TYR73      -0.0009
     98  CD2       -3.7220   29.5630  -19.7180 C.ar   73  TYR73      -0.0009
     99  CE1       -4.8360   31.4010  -21.4500 C.ar   73  TYR73       0.0417
    100  CE2       -3.5810   30.9160  -19.4700 C.ar   73  TYR73       0.0417
    101  CZ        -4.1400   31.8300  -20.3390 C.ar   73  TYR73       0.1957
    102  OH        -4.0010   33.1780  -20.0960 O.3    73  TYR73      -0.2866
    103  N         -4.9360   23.7850  -16.5550 N.3    85  ILE85      -0.1245
    104  CA        -4.0320   24.9070  -16.7830 C.3    85  ILE85       0.1561
    105  C         -4.8040   26.2230  -16.8010 C.2    85  ILE85       0.2260
    106  O         -5.5400   26.5080  -17.7470 O.2    85  ILE85      -0.2867
    107  CB        -3.2580   24.7410  -18.1050 C.3    85  ILE85       0.0252
    108  CG1       -2.5060   23.4090  -18.1130 C.3    85  ILE85       0.0019
    109  CG2       -2.2970   25.9020  -18.3150 C.3    85  ILE85       0.0019
    110  CD1       -1.8400   23.0880  -19.4330 C.3    85  ILE85       0.0001
@<TRIPOS>BOND
     1     1     2    1
     2     2     5    1
     3     2     3    1
     4     4     3    2
     5     5     6    1
     6     6     7    1
     7     7     8    1
     8    78    77    1
     9     8     9    1
    10    79    77    1
    11    77    76    2
    12    74    73    1
    13    74    75    1
    14    76    75    1
    15    73    70    1
    16    21    23   ar
    17    21    19   ar
    18    23    22   ar
    19    90    88    1
    20    89    88    1
    21    19    18   ar
    22    19    17   ar
    23    18    16   ar
    24    72    71    2
    25    10    11    1
    26    70    69    1
    27    70    71    1
    28    48    45    1
    29    48    49    1
    30    22    20   ar
    31    88    87    2
    32    94    93    2
    33    45    44    1
    34    45    46    1
    35    16    15   ar
    36    17    20   ar
    37    17    15   ar
    38    15    14    1
    39    11    14    1
    40    11    12    1
    41    87    86    1
    42    42    41   ar
    43    43    41   ar
    44    93    92    1
    45    47    46    2
    46    97    99   ar
    47    97    96   ar
    48    41    40    1
    49    99   101   ar
    50    13    12    2
    51    86    85    1
    52    92    95    1
    53    92    91    1
    54    58    56   ar
    55    58    60   ar
    56    95    96    1
    57    56    55   ar
    58    96    98   ar
    59    40    39    1
    60   101   102    1
    61   101   100   ar
    62    60    59   ar
    63    85    84    1
    64    55    54    1
    65    55    57   ar
    66    54    51    1
    67    98   100   ar
    68    39    36    1
    69    84    81    1
    70   110   108    1
    71    50    51    1
    72    59    57   ar
    73    38    37    2
    74    51    52    1
    75    37    36    1
    76    34    33   ar
    77    34    32   ar
    78    81    82    1
    79    81    80    1
    80    36    35    1
    81   109   107    1
    82    33    31   ar
    83    82    83    2
    84   108   107    1
    85   107   104    1
    86    32    30   ar
    87   106   105    2
    88    52    53    2
    89    68    66    1
    90    31    29   ar
    91    30    29   ar
    92    24    25    1
    93   105   104    1
    94   104   103    1
    95    29    28    1
    96    66    65    1
    97    66    67    1
    98    65    62    1
    99    25    28    1
   100    25    26    1
   101    61    62    1
   102    62    63    1
   103    26    27    2
   104    63    64    2
