@<TRIPOS>MOLECULE
tmp/5oseA01.pdb
 101 96 0 0 0
SMALL
GASTEIGER

@<TRIPOS>ATOM
      1  N          0.2600   18.9250  -23.5640 N.3     2  TRP2       -0.1241
      2  CA         1.0050   19.2930  -22.3600 C.3     2  TRP2        0.1605
      3  C          1.1260   18.1000  -21.4160 C.2     2  TRP2        0.2264
      4  O          0.2510   17.2350  -21.3790 O.2     2  TRP2       -0.2867
      5  CB         0.3420   20.4670  -21.6230 C.3     2  TRP2        0.0550
      6  CG         0.3220   21.7610  -22.3880 C.ar    2  TRP2        0.0003
      7  CD1       -0.7800   22.4270  -22.8440 C.ar    2  TRP2        0.0946
      8  CD2        1.4570   22.5430  -22.7890 C.ar    2  TRP2        0.0152
      9  NE1       -0.4020   23.5760  -23.4980 N.ar    2  TRP2       -0.2442
     10  CE2        0.9650   23.6670  -23.4840 C.ar    2  TRP2        0.0810
     11  CE3        2.8390   22.3990  -22.6350 C.ar    2  TRP2        0.0012
     12  CZ2        1.8070   24.6390  -24.0230 C.ar    2  TRP2        0.0191
     13  CZ3        3.6730   23.3700  -23.1690 C.ar    2  TRP2        0.0001
     14  CH2        3.1540   24.4750  -23.8510 C.ar    2  TRP2        0.0015
     15  N          6.4320   21.7970  -16.9340 N.3     7  PHE7       -0.1241
     16  CA         6.2600   22.8930  -15.9760 C.3     7  PHE7        0.1605
     17  C          7.1610   22.7880  -14.7520 C.2     7  PHE7        0.2264
     18  O          7.4320   21.6940  -14.2600 O.2     7  PHE7       -0.2867
     19  CB         4.8030   22.9630  -15.5080 C.3     7  PHE7        0.0534
     20  CG         3.8040   23.0630  -16.6300 C.ar    7  PHE7       -0.0203
     21  CD1        3.3770   24.2990  -17.0880 C.ar    7  PHE7       -0.0042
     22  CD2        3.2900   21.9180  -17.2240 C.ar    7  PHE7       -0.0042
     23  CE1        2.4570   24.3940  -18.1200 C.ar    7  PHE7       -0.0003
     24  CE2        2.3700   22.0050  -18.2580 C.ar    7  PHE7       -0.0003
     25  CZ         1.9520   23.2420  -18.7070 C.ar    7  PHE7       -0.0000
     26  N          5.8090   27.4830  -17.3680 N.3    26  GLU26      -0.1245
     27  CA         6.0890   26.5840  -18.4800 C.3    26  GLU26       0.1567
     28  C          7.5240   26.7730  -18.9410 C.2    26  GLU26       0.2260
     29  O          7.9710   27.8940  -19.1700 O.2    26  GLU26      -0.2867
     30  CB         5.1230   26.8080  -19.6380 C.3    26  GLU26       0.0388
     31  CG         5.1200   25.6560  -20.6450 C.3    26  GLU26       0.1160
     32  CD         6.2140   25.7740  -21.6780 C.2    26  GLU26       0.3649
     33  OE1        6.4420   26.8960  -22.1780 O.co2  26  GLU26      -0.2457
     34  OE2        6.8540   24.7440  -21.9880 O.co2  26  GLU26      -0.2457
     35  N          8.6760   28.6290  -22.6490 N.3    29  SER29      -0.1217
     36  CA         8.1730   29.9850  -22.8450 C.3    29  SER29       0.1889
     37  C          8.3700   30.8760  -21.6200 C.2    29  SER29       0.2288
     38  O          8.2980   32.0980  -21.7350 O.2    29  SER29      -0.2866
     39  CB         6.6910   29.9470  -23.2050 C.3    29  SER29       0.2089
     40  OG         5.9200   29.4950  -22.1090 O.3    29  SER29      -0.2183
     41  N          6.2160   31.0740  -19.3980 N.3    31  PHE31      -0.1241
     42  CA         4.8750   31.5850  -19.1160 C.3    31  PHE31       0.1605
     43  C          4.4100   31.1990  -17.7060 C.2    31  PHE31       0.2264
     44  O          4.4230   30.0240  -17.3480 O.2    31  PHE31      -0.2867
     45  CB         3.8900   31.0620  -20.1650 C.3    31  PHE31       0.0534
     46  CG         2.5670   31.7730  -20.1680 C.ar   31  PHE31      -0.0203
     47  CD1        2.3580   32.8670  -20.9900 C.ar   31  PHE31      -0.0042
     48  CD2        1.5310   31.3420  -19.3550 C.ar   31  PHE31      -0.0042
     49  CE1        1.1390   33.5240  -20.9960 C.ar   31  PHE31      -0.0003
     50  CE2        0.3110   31.9950  -19.3570 C.ar   31  PHE31      -0.0003
     51  CZ         0.1150   33.0870  -20.1790 C.ar   31  PHE31      -0.0000
     52  N          1.6000   30.7140  -14.7820 N.3    33  LEU33      -0.1245
     53  CA         0.2090   30.2890  -14.7960 C.3    33  LEU33       0.1561
     54  C         -0.1370   29.5960  -13.4900 C.2    33  LEU33       0.2260
     55  O          0.7120   29.4700  -12.6050 O.2    33  LEU33      -0.2867
     56  CB        -0.0450   29.3520  -15.9800 C.3    33  LEU33       0.0270
     57  CG         0.9300   28.1720  -16.0540 C.3    33  LEU33       0.0019
     58  CD1        0.3240   26.8730  -15.5030 C.3    33  LEU33       0.0001
     59  CD2        1.4250   27.9850  -17.4790 C.3    33  LEU33       0.0001
     60  N        -14.8520   34.0060  -23.2340 N.3    63  ARG63      -0.1245
     61  CA       -13.8170   35.0430  -23.2930 C.3    63  ARG63       0.1563
     62  C        -14.3750   36.3970  -22.8400 C.2    63  ARG63       0.2260
     63  O        -15.1470   37.0370  -23.5600 O.2    63  ARG63      -0.2867
     64  CB       -13.2340   35.1690  -24.7070 C.3    63  ARG63       0.0307
     65  CG       -12.7020   33.8750  -25.3160 C.3    63  ARG63       0.0489
     66  CD       -11.4710   33.3380  -24.5910 C.3    63  ARG63       0.2205
     67  NE       -11.2320   31.9350  -24.9290 N.pl3  63  ARG63      -0.0865
     68  CZ       -10.5030   31.5270  -25.9620 C.cat  63  ARG63       0.5346
     69  NH1       -9.9220   32.4160  -26.7570 N.pl3  63  ARG63       0.1354
     70  NH2      -10.3440   30.2310  -26.1970 N.pl3  63  ARG63       0.1354
     71  N         -9.5740   32.7210  -17.4350 N.3    69  ARG69      -0.1245
     72  CA        -9.3110   31.8230  -18.5610 C.3    69  ARG69       0.1563
     73  C         -8.9220   30.4160  -18.1150 C.2    69  ARG69       0.2260
     74  O         -8.1740   30.2510  -17.1530 O.2    69  ARG69      -0.2867
     75  CB        -8.1840   32.3680  -19.4510 C.3    69  ARG69       0.0307
     76  CG        -8.4760   33.6450  -20.2250 C.3    69  ARG69       0.0489
     77  CD        -9.4680   33.4310  -21.3670 C.3    69  ARG69       0.2205
     78  NE        -9.1730   32.2560  -22.1900 N.pl3  69  ARG69      -0.0865
     79  CZ        -8.2780   32.2190  -23.1750 C.cat  69  ARG69       0.5346
     80  NH1       -7.5590   33.2950  -23.4720 N.pl3  69  ARG69       0.1354
     81  NH2       -8.0980   31.0970  -23.8630 N.pl3  69  ARG69       0.1354
     82  N         -6.9400   27.4270  -20.1260 N.3    71  TYR71      -0.1241
     83  CA        -6.2100   27.2450  -21.3790 C.3    71  TYR71       0.1605
     84  C         -6.1860   25.7960  -21.8670 C.2    71  TYR71       0.2264
     85  O         -6.0440   25.5470  -23.0600 O.2    71  TYR71      -0.2867
     86  CB        -4.7700   27.7480  -21.2430 C.3    71  TYR71       0.0534
     87  CG        -4.6260   29.2210  -20.9200 C.ar   71  TYR71      -0.0201
     88  CD1       -5.0040   30.1960  -21.8360 C.ar   71  TYR71      -0.0009
     89  CD2       -4.0740   29.6360  -19.7120 C.ar   71  TYR71      -0.0009
     90  CE1       -4.8610   31.5450  -21.5460 C.ar   71  TYR71       0.0417
     91  CE2       -3.9260   30.9820  -19.4160 C.ar   71  TYR71       0.0417
     92  CZ        -4.3200   31.9310  -20.3370 C.ar   71  TYR71       0.1957
     93  OH        -4.1740   33.2680  -20.0490 O.3    71  TYR71      -0.2866
     94  N         -4.9980   23.8410  -16.6290 N.3    83  ILE83      -0.1245
     95  CA        -4.1020   24.9740  -16.8420 C.3    83  ILE83       0.1561
     96  C         -4.8950   26.2830  -16.8370 C.2    83  ILE83       0.2260
     97  O         -5.6640   26.5550  -17.7630 O.2    83  ILE83      -0.2867
     98  CB        -3.3230   24.8240  -18.1720 C.3    83  ILE83       0.0252
     99  CG1       -2.6670   23.4420  -18.2520 C.3    83  ILE83       0.0019
    100  CG2       -2.2780   25.9260  -18.3240 C.3    83  ILE83       0.0019
    101  CD1       -2.0040   23.1510  -19.5860 C.3    83  ILE83       0.0001
@<TRIPOS>BOND
     1    69    68    1
     2    70    68    1
     3    68    67    2
     4    65    64    1
     5    65    66    1
     6    67    66    1
     7    64    61    1
     8    12    14   ar
     9    12    10   ar
    10    81    79    1
    11    14    13   ar
    12     1     2    1
    13    63    62    2
    14     9    10   ar
    15     9     7   ar
    16    10     8   ar
    17    80    79    1
    18    61    60    1
    19    61    62    1
    20    39    36    1
    21    39    40    1
    22    79    78    2
    23    13    11   ar
    24    85    84    2
    25    36    35    1
    26    36    37    1
    27     7     6   ar
    28     8    11   ar
    29     8     6   ar
    30     6     5    1
    31     2     5    1
    32     2     3    1
    33    78    77    1
    34    33    32   ar
    35    34    32   ar
    36    84    83    1
    37    88    90   ar
    38    88    87   ar
    39    38    37    2
    40    32    31    1
    41    90    92   ar
    42     3     4    2
    43    83    86    1
    44    83    82    1
    45    77    76    1
    46    86    87    1
    47    49    47   ar
    48    49    51   ar
    49    47    46   ar
    50    87    89   ar
    51    31    30    1
    52    92    93    1
    53    92    91   ar
    54    76    75    1
    55    51    50   ar
    56    46    45    1
    57    46    48   ar
    58    45    42    1
    59    89    91   ar
    60    30    27    1
    61   101    99    1
    62    75    72    1
    63    41    42    1
    64    50    48   ar
    65    29    28    2
    66    42    43    1
    67    28    27    1
    68    25    24   ar
    69    25    23   ar
    70    72    73    1
    71    72    71    1
    72    27    26    1
    73   100    98    1
    74    24    22   ar
    75    99    98    1
    76    98    95    1
    77    23    21   ar
    78    73    74    2
    79    97    96    2
    80    43    44    2
    81    59    57    1
    82    22    20   ar
    83    21    20   ar
    84    15    16    1
    85    95    96    1
    86    95    94    1
    87    20    19    1
    88    57    56    1
    89    57    58    1
    90    56    53    1
    91    16    19    1
    92    16    17    1
    93    53    52    1
    94    53    54    1
    95    17    18    2
    96    54    55    2
