@<TRIPOS>MOLECULE
tmp/5osjA00.pdb
 114 114 0 0 0
SMALL
GASTEIGER

@<TRIPOS>ATOM
      1  N         -3.4600   -8.5880   -0.7690 N.3   168  GLU168     -0.1245
      2  CA        -4.8000   -8.2080   -0.4000 C.3   168  GLU168      0.1567
      3  C         -5.8500   -8.7940   -1.4020 C.2   168  GLU168      0.2260
      4  O         -6.9730   -9.1000   -0.9620 O.2   168  GLU168     -0.2867
      5  CB        -4.9300   -6.6760   -0.2370 C.3   168  GLU168      0.0388
      6  CG        -4.6000   -5.8680   -1.5030 C.3   168  GLU168      0.1160
      7  CD        -3.1230   -5.4390   -1.6390 C.2   168  GLU168      0.3649
      8  OE1       -2.2030   -6.1960   -1.1740 O.co2 168  GLU168     -0.2457
      9  OE2       -2.8940   -4.3530   -2.2590 O.co2 168  GLU168     -0.2457
     10  N         -9.9040   -9.3820   -0.5380 N.3   173  CYS173     -0.1221
     11  CA       -10.4360   -8.0330   -0.3920 C.3   173  CYS173      0.1808
     12  C        -10.8680   -7.5520   -1.8260 C.2   173  CYS173      0.2601
     13  O        -10.1110   -7.6700   -2.7910 O.2   173  CYS173     -0.2717
     14  CB        -9.3850   -7.1050    0.2140 C.3   173  CYS173      0.0970
     15  SG        -9.7720   -5.3800    0.3730 S.3   173  CYS173     -0.0800
     16  N        -12.0410   -6.9630   -1.9170 N.am  174  LYS174     -0.1965
     17  CA       -12.5650   -6.5650   -3.2190 C.3   174  LYS174      0.1728
     18  C        -12.3680   -5.0820   -3.4800 C.2   174  LYS174      0.2616
     19  O        -12.7610   -4.6000   -4.5540 O.2   174  LYS174     -0.2715
     20  CB       -14.0350   -6.9360   -3.3610 C.3   174  LYS174      0.0311
     21  CG       -14.3200   -8.4530   -3.3440 C.3   174  LYS174      0.0038
     22  CD       -13.6100   -9.2050   -4.4730 C.3   174  LYS174      0.0206
     23  CE       -13.9840  -10.6850   -4.4080 C.3   174  LYS174      0.1093
     24  NZ       -13.6050  -11.4640   -5.6260 N.3   174  LYS174     -0.1314
     25  N        -11.7120   -4.3840   -2.5580 N.am  175  TYR175     -0.1974
     26  CA       -11.2560   -3.0160   -2.8360 C.3   175  TYR175      0.1639
     27  C         -9.8240   -3.0250   -3.3450 C.2   175  TYR175      0.2290
     28  O         -8.8940   -3.3560   -2.6340 O.2   175  TYR175     -0.2864
     29  CB       -11.2740   -2.1360   -1.5700 C.3   175  TYR175      0.0560
     30  CG       -10.7790   -0.7330   -1.9240 C.ar  175  TYR175     -0.0198
     31  CD1       -9.5080   -0.2790   -1.5340 C.ar  175  TYR175     -0.0009
     32  CD2      -11.5830    0.1180   -2.7040 C.ar  175  TYR175     -0.0009
     33  CE1       -9.0680    0.9900   -1.8980 C.ar  175  TYR175      0.0417
     34  CE2      -11.1550    1.3800   -3.0560 C.ar  175  TYR175      0.0417
     35  CZ        -9.9140    1.8000   -2.6630 C.ar  175  TYR175      0.1957
     36  OH        -9.4970    3.0360   -3.0790 O.3   175  TYR175     -0.2866
     37  N         -0.9890   -8.7990   12.6070 N.3   220  GLU220     -0.1245
     38  CA        -1.5340   -7.4920   12.8850 C.3   220  GLU220      0.1567
     39  C         -0.4920   -6.4460   13.1580 C.2   220  GLU220      0.2260
     40  O         -0.7990   -5.2560   13.0110 O.2   220  GLU220     -0.2867
     41  CB        -2.5450   -7.5630   14.0620 C.3   220  GLU220      0.0388
     42  CG        -3.8650   -8.2960   13.7240 C.3   220  GLU220      0.1160
     43  CD        -4.8020   -7.4680   12.8430 C.2   220  GLU220      0.3649
     44  OE1       -4.8190   -6.1790   12.9240 O.co2 220  GLU220     -0.2457
     45  OE2       -5.5480   -8.0990   12.0500 O.co2 220  GLU220     -0.2457
     46  N          0.6510   -5.6850    9.4350 N.3   223  TRP223     -0.1228
     47  CA        -0.4760   -5.3590    8.5540 C.3   223  TRP223      0.1722
     48  C         -1.7380   -5.2960    9.4010 C.2   223  TRP223      0.2437
     49  O         -2.5050   -6.2870    9.5100 O.2   223  TRP223     -0.2733
     50  CB        -0.6530   -6.5110    7.5550 C.3   223  TRP223      0.0563
     51  CG        -1.6640   -6.1920    6.4190 C.ar  223  TRP223      0.0003
     52  CD1       -2.5610   -5.1400    6.3550 C.ar  223  TRP223      0.0946
     53  CD2       -1.8710   -6.9860    5.2860 C.ar  223  TRP223      0.0152
     54  NE1       -3.3240   -5.2670    5.1930 N.ar  223  TRP223     -0.2442
     55  CE2       -2.8940   -6.3820    4.5160 C.ar  223  TRP223      0.0810
     56  CE3       -1.2720   -8.1700    4.8210 C.ar  223  TRP223      0.0012
     57  CZ2       -3.3260   -6.9280    3.2680 C.ar  223  TRP223      0.0191
     58  CZ3       -1.7050   -8.7280    3.6120 C.ar  223  TRP223      0.0001
     59  CH2       -2.6980   -8.0910    2.8230 C.ar  223  TRP223      0.0015
     60  N         -2.0090   -4.1410    9.9810 N.am  224  PRO224     -0.2718
     61  CA        -3.2470   -3.9780   10.7690 C.3   224  PRO224      0.1535
     62  C         -4.4720   -4.1950    9.9050 C.2   224  PRO224      0.2599
     63  O         -4.5390   -3.7030    8.7250 O.2   224  PRO224     -0.2715
     64  CB        -3.1520   -2.5040   11.2400 C.3   224  PRO224      0.0310
     65  CG        -1.6980   -2.2600   11.3390 C.3   224  PRO224      0.0237
     66  CD        -1.1110   -2.9640   10.1120 C.3   224  PRO224      0.0939
     67  N         -5.3540   -5.0720   10.3900 N.am  225  GLY225     -0.1955
     68  CA        -6.5300   -5.4480    9.6720 C.3   225  GLY225      0.1869
     69  C         -6.3910   -6.7900    8.9300 C.2   225  GLY225      0.2309
     70  O         -7.3850   -7.2910    8.3920 O.2   225  GLY225     -0.2863
     71  N         -8.8520   -9.5580    9.5280 N.3   228  SER228     -0.1202
     72  CA       -10.1880   -9.3040    9.0640 C.3   228  SER228      0.2020
     73  C        -10.3990   -9.4920    7.5680 C.2   228  SER228      0.2619
     74  O        -11.4980   -9.2000    7.0860 O.2   228  SER228     -0.2717
     75  CB       -10.6110   -7.8320    9.3880 C.3   228  SER228      0.2103
     76  OG       -10.6960   -7.7200   10.7830 O.3   228  SER228     -0.2182
     77  N         -9.3770   -9.9270    6.8230 N.am  229  MET229     -0.1965
     78  CA        -9.5020  -10.1030    5.3320 C.3   229  MET229      0.1721
     79  C        -10.4740  -11.2960    5.1470 C.2   229  MET229      0.2458
     80  O        -10.4710  -12.2140    5.9870 O.2   229  MET229     -0.2730
     81  CB        -8.1200  -10.4050    4.6750 C.3   229  MET229      0.0427
     82  CG        -7.1690   -9.2350    4.6670 C.3   229  MET229      0.0599
     83  SD        -7.7850   -8.0430    3.4620 S.3   229  MET229     -0.1393
     84  CE        -6.7910   -6.6520    3.9160 C.3   229  MET229      0.0692
     85  N        -11.3270  -11.2780    4.0800 N.am  230  PRO230     -0.2727
     86  CA       -12.3790  -12.3180    3.9240 C.3   230  PRO230      0.1402
     87  C        -11.8020  -13.7470    3.9330 C.2   230  PRO230      0.2269
     88  O        -12.4010  -14.6770    4.4910 O.2   230  PRO230     -0.2865
     89  CB       -12.9680  -11.9990    2.5250 C.3   230  PRO230      0.0296
     90  CG       -12.8490  -10.4780    2.4320 C.3   230  PRO230      0.0237
     91  CD       -11.4730  -10.1940    3.0720 C.3   230  PRO230      0.0939
     92  N          1.1100   -4.2040    3.9440 N.3   266  ASP266     -0.1225
     93  CA        -0.0400   -3.3240    4.1500 C.3   266  ASP266      0.1790
     94  C         -0.1050   -2.3720    2.9520 C.2   266  ASP266      0.2440
     95  O          0.8570   -1.6310    2.7500 O.2   266  ASP266     -0.2733
     96  CB         0.1240   -2.5510    5.4560 C.3   266  ASP266      0.1423
     97  CG        -1.0940   -1.7240    5.7990 C.2   266  ASP266      0.3668
     98  OD1       -2.0090   -1.5770    4.9810 O.co2 266  ASP266     -0.2456
     99  OD2       -1.1180   -1.2420    6.9230 O.co2 266  ASP266     -0.2456
    100  N         -1.2320   -2.3780    2.1720 N.am  267  PRO267     -0.2718
    101  CA        -1.2750   -1.4710    1.0220 C.3   267  PRO267      0.1535
    102  C         -1.1530    0.0030    1.4960 C.2   267  PRO267      0.2598
    103  O         -0.6520    0.8510    0.7300 O.2   267  PRO267     -0.2715
    104  CB        -2.6870   -1.6950    0.4170 C.3   267  PRO267      0.0310
    105  CG        -3.2080   -2.9900    1.0170 C.3   267  PRO267      0.0237
    106  CD        -2.3720   -3.3380    2.1970 C.3   267  PRO267      0.0939
    107  N         -1.6040    0.2950    2.7150 N.am  268  ASN268     -0.1973
    108  CA        -1.3940    1.6430    3.2840 C.3   268  ASN268      0.1688
    109  C          0.0690    1.9940    3.5490 C.2   268  ASN268      0.2292
    110  O          0.3820    3.1810    3.6890 O.2   268  ASN268     -0.2864
    111  CB        -2.1750    1.7870    4.5810 C.3   268  ASN268      0.1181
    112  CG        -3.6700    1.5480    4.3680 C.2   268  ASN268      0.2629
    113  OD1       -4.2200    0.4320    4.5830 O.2   268  ASN268     -0.2716
    114  ND2       -4.3110    2.5450    3.8690 N.am  268  ASN268     -0.0877
@<TRIPOS>BOND
     1    24    23    1
     2    19    18    2
     3    22    23    1
     4    22    21    1
     5    18    17    1
     6    18    25   am
     7    20    21    1
     8    20    17    1
     9    27    26    1
    10    27    28    2
    11    17    16    1
    12    36    35    1
    13    34    32   ar
    14    34    35   ar
    15    26    25    1
    16    26    29    1
    17    13    12    2
    18    32    30   ar
    19    35    33   ar
    20     9     7   ar
    21    30    29    1
    22    30    31   ar
    23    16    12   am
    24    33    31   ar
    25    12    11    1
    26     7     6    1
    27     7     8   ar
    28     6     5    1
    29     3     4    2
    30     3     2    1
    31     1     2    1
    32    10    11    1
    33     2     5    1
    34    11    14    1
    35    14    15    1
    36   104   105    1
    37   104   101    1
    38   103   102    2
    39   105   106    1
    40   101   102    1
    41   101   100    1
    42   102   107   am
    43   100   106    1
    44   100    94   am
    45    90    89    1
    46    90    91    1
    47    89    86    1
    48   107   108    1
    49    95    94    2
    50    59    57   ar
    51    59    58   ar
    52    94    93    1
    53    91    85    1
    54    57    55   ar
    55   108   109    1
    56   108   111    1
    57    83    84    1
    58    83    82    1
    59   109   110    2
    60    58    56   ar
    61   114   112   am
    62    86    87    1
    63    86    85    1
    64    87    88    2
    65    92    93    1
    66    85    79   am
    67    93    96    1
    68   112   111    1
    69   112   113    2
    70    55    54   ar
    71    55    53   ar
    72    82    81    1
    73    81    78    1
    74    56    53   ar
    75    98    97   ar
    76    79    78    1
    77    79    80    2
    78    54    52   ar
    79    53    51   ar
    80    78    77    1
    81    96    97    1
    82    97    99   ar
    83    52    51   ar
    84    51    50    1
    85    77    73   am
    86    74    73    2
    87    50    47    1
    88    73    72    1
    89    70    69    2
    90    47    48    1
    91    47    46    1
    92    63    62    2
    93    69    68    1
    94    72    75    1
    95    72    71    1
    96    75    76    1
    97    48    49    2
    98    48    60   am
    99    68    67    1
   100    62    67   am
   101    62    61    1
   102    60    66    1
   103    60    61    1
   104    66    65    1
   105    61    64    1
   106    64    65    1
   107    45    43   ar
   108    37    38    1
   109    43    44   ar
   110    43    42    1
   111    38    39    1
   112    38    41    1
   113    40    39    2
   114    42    41    1
