@<TRIPOS>MOLECULE
tmp/5oskB02.pdb
 163 154 0 0 0
SMALL
GASTEIGER

@<TRIPOS>ATOM
      1  N         18.0030   56.4300   32.8560 N.3   200  TYR200     -0.1241
      2  CA        16.5610   56.2490   33.0160 C.3   200  TYR200      0.1605
      3  C         16.1790   54.9680   32.2780 C.2   200  TYR200      0.2264
      4  O         16.4270   54.8450   31.0720 O.2   200  TYR200     -0.2867
      5  CB        15.7800   57.4380   32.4540 C.3   200  TYR200      0.0534
      6  CG        16.0220   58.7600   33.1430 C.ar  200  TYR200     -0.0201
      7  CD1       15.3710   59.0860   34.3270 C.ar  200  TYR200     -0.0009
      8  CD2       16.8860   59.7020   32.5930 C.ar  200  TYR200     -0.0009
      9  CE1       15.5870   60.3110   34.9560 C.ar  200  TYR200      0.0417
     10  CE2       17.1080   60.9420   33.2140 C.ar  200  TYR200      0.0417
     11  CZ        16.4590   61.2320   34.3960 C.ar  200  TYR200      0.1957
     12  OH        16.6790   62.4460   35.0370 O.3   200  TYR200     -0.2866
     13  N         11.2850   64.9440   33.2800 N.3   236  VAL236     -0.1245
     14  CA        12.5350   64.8090   34.0200 C.3   236  VAL236      0.1561
     15  C         13.5460   65.8920   33.6580 C.2   236  VAL236      0.2260
     16  O         14.4590   66.1450   34.4450 O.2   236  VAL236     -0.2867
     17  CB        13.1580   63.4080   33.8480 C.3   236  VAL236      0.0252
     18  CG1       12.2230   62.3300   34.3940 C.3   236  VAL236      0.0019
     19  CG2       13.5020   63.1240   32.3830 C.3   236  VAL236      0.0019
     20  N         13.4000   70.6120   35.4670 N.3   239  CYS239     -0.1221
     21  CA        14.1840   71.3890   36.4200 C.3   239  CYS239      0.1808
     22  C         15.5730   71.7290   35.9010 C.2   239  CYS239      0.2601
     23  O         16.2690   72.5420   36.5190 O.2   239  CYS239     -0.2717
     24  CB        14.2790   70.6390   37.7470 C.3   239  CYS239      0.0970
     25  SG        12.6590   70.3930   38.4950 S.3   239  CYS239     -0.0800
     26  N         16.0070   71.0990   34.8080 N.am  240  LEU240     -0.1979
     27  CA        17.2350   71.5320   34.1560 C.3   240  LEU240      0.1596
     28  C         16.9630   72.7290   33.2570 C.2   240  LEU240      0.2287
     29  O         17.8550   73.5600   33.0420 O.2   240  LEU240     -0.2864
     30  CB        17.8480   70.3940   33.3270 C.3   240  LEU240      0.0297
     31  CG        18.1950   69.0310   33.9400 C.3   240  LEU240      0.0022
     32  CD1       18.6310   68.0290   32.8530 C.3   240  LEU240      0.0001
     33  CD2       19.2740   69.1620   35.0030 C.3   240  LEU240      0.0001
     34  N         16.8520   74.6980   43.1280 N.3   246  LEU246     -0.1245
     35  CA        17.9210   73.7670   43.4280 C.3   246  LEU246      0.1561
     36  C         19.2870   74.3700   43.1240 C.2   246  LEU246      0.2260
     37  O         20.0240   74.7550   44.0330 O.2   246  LEU246     -0.2867
     38  CB        17.7130   72.5020   42.6060 C.3   246  LEU246      0.0270
     39  CG        16.3530   71.8470   42.8350 C.3   246  LEU246      0.0019
     40  CD1       16.1080   70.7380   41.8310 C.3   246  LEU246      0.0001
     41  CD2       16.3090   71.3100   44.2340 C.3   246  LEU246      0.0001
     42  N         18.6890   73.0070   39.1570 N.3   247  ALA247     -0.1245
     43  CA        19.4130   71.7290   39.1480 C.3   247  ALA247      0.1562
     44  C         20.3090   71.5880   37.9220 C.2   247  ALA247      0.2260
     45  O         20.1760   72.3270   36.9460 O.2   247  ALA247     -0.2867
     46  CB        18.4470   70.5500   39.2080 C.3   247  ALA247      0.0290
     47  N         24.6050   67.6230   40.4840 N.3   251  LYS251     -0.1231
     48  CA        23.8290   67.6030   41.7210 C.3   251  LYS251      0.1693
     49  C         22.7930   66.4880   41.6990 C.2   251  LYS251      0.2591
     50  O         22.5400   65.8390   42.7240 O.2   251  LYS251     -0.2718
     51  CB        23.1580   68.9590   41.9460 C.3   251  LYS251      0.0285
     52  CG        24.1370   70.0970   42.1840 C.3   251  LYS251      0.0035
     53  CD        23.5450   71.1280   43.1250 C.3   251  LYS251      0.0206
     54  CE        24.2330   72.4670   42.9830 C.3   251  LYS251      0.1093
     55  NZ        23.7520   73.2150   41.7910 N.3   251  LYS251     -0.1314
     56  N         22.1920   66.2400   40.5350 N.am  252  LEU252     -0.1980
     57  CA        21.2830   65.1050   40.4020 C.3   252  LEU252      0.1596
     58  C         21.9900   63.7890   40.7330 C.2   252  LEU252      0.2287
     59  O         21.4940   62.9930   41.5460 O.2   252  LEU252     -0.2864
     60  CB        20.7140   65.0620   38.9830 C.3   252  LEU252      0.0297
     61  CG        19.8280   63.8630   38.6230 C.3   252  LEU252      0.0022
     62  CD1       18.5250   63.8680   39.4300 C.3   252  LEU252      0.0001
     63  CD2       19.5520   63.7990   37.1100 C.3   252  LEU252      0.0001
     64  N         22.9000   63.5570   44.5450 N.3   255  ASN255     -0.1225
     65  CA        21.7720   63.3430   45.4450 C.3   255  ASN255      0.1785
     66  C         20.9900   62.0550   45.1880 C.2   255  ASN255      0.2597
     67  O         20.2650   61.6070   46.0850 O.2   255  ASN255     -0.2718
     68  CB        20.8490   64.5660   45.3840 C.3   255  ASN255      0.1169
     69  CG        21.4500   65.7740   46.1060 C.2   255  ASN255      0.2627
     70  OD1       21.8970   65.6640   47.2410 O.2   255  ASN255     -0.2716
     71  ND2       21.5750   66.8890   45.4010 N.am  255  ASN255     -0.0877
     72  N         21.1160   61.4330   44.0110 N.am  256  MET256     -0.1979
     73  CA        20.3270   60.2430   43.7140 C.3   256  MET256      0.1605
     74  C         21.1050   58.9370   43.7750 C.2   256  MET256      0.2287
     75  O         20.4770   57.8790   43.8520 O.2   256  MET256     -0.2864
     76  CB        19.6730   60.3550   42.3250 C.3   256  MET256      0.0413
     77  CG        18.6310   61.4690   42.2210 C.3   256  MET256      0.0598
     78  SD        17.1140   61.2200   43.1800 S.3   256  MET256     -0.1393
     79  CE        16.3080   59.8270   42.3510 C.3   256  MET256      0.0692
     80  N         16.3900   56.6280   46.9690 N.3   306  THR306     -0.1203
     81  CA        16.1760   58.0650   46.8290 C.3   306  THR306      0.1994
     82  C         15.0090   58.2680   45.8670 C.2   306  THR306      0.2618
     83  O         14.7500   57.4160   45.0120 O.2   306  THR306     -0.2717
     84  CB        17.4090   58.7620   46.2420 C.3   306  THR306      0.1784
     85  OG1       17.7520   58.1020   45.0110 O.3   306  THR306     -0.2211
     86  CG2       18.6170   58.6980   47.1880 C.3   306  THR306      0.0376
     87  N         14.3270   59.4120   45.9870 N.am  307  VAL307     -0.1965
     88  CA        13.2070   59.7690   45.1100 C.3   307  VAL307      0.1727
     89  C         13.2600   61.2660   44.8340 C.2   307  VAL307      0.2616
     90  O         13.5230   62.0640   45.7400 O.2   307  VAL307     -0.2715
     91  CB        11.8220   59.4190   45.7140 C.3   307  VAL307      0.0290
     92  CG1       10.6980   59.9750   44.8320 C.3   307  VAL307      0.0023
     93  CG2       11.6520   57.9240   45.9270 C.3   307  VAL307      0.0023
     94  N         13.0260   61.6470   43.5790 N.am  308  ALA308     -0.1963
     95  CA        12.8060   63.0370   43.1950 C.3   308  ALA308      0.1728
     96  C         11.4620   63.1510   42.4780 C.2   308  ALA308      0.2616
     97  O         11.1200   62.2900   41.6620 O.2   308  ALA308     -0.2715
     98  CB        13.9430   63.5440   42.2960 C.3   308  ALA308      0.0334
     99  N         10.6940   64.2050   42.7810 N.am  309  ALA309     -0.1963
    100  CA         9.3520   64.3890   42.2260 C.3   309  ALA309      0.1728
    101  C          9.1360   65.8410   41.8210 C.2   309  ALA309      0.2616
    102  O          9.3570   66.7490   42.6290 O.2   309  ALA309     -0.2715
    103  CB         8.2780   63.9750   43.2360 C.3   309  ALA309      0.0334
    104  N          8.6350   66.0510   40.6020 N.am  310  ILE310     -0.1977
    105  CA         8.4390   67.3800   40.0220 C.3   310  ILE310      0.1596
    106  C          6.9500   67.5950   39.7880 C.2   310  ILE310      0.2287
    107  O          6.3050   66.7770   39.1250 O.2   310  ILE310     -0.2864
    108  CB         9.1930   67.5370   38.6860 C.3   310  ILE310      0.0276
    109  CG1       10.6110   66.9770   38.7780 C.3   310  ILE310      0.0022
    110  CG2        9.2180   69.0000   38.2530 C.3   310  ILE310      0.0022
    111  CD1       11.3730   67.0750   37.4700 C.3   310  ILE310      0.0001
    112  N         15.7730   61.8520   54.8710 N.3   341  ASN341     -0.1225
    113  CA        15.2090   62.8610   53.9680 C.3   341  ASN341      0.1785
    114  C         15.5650   62.5580   52.5100 C.2   341  ASN341      0.2597
    115  O         16.1150   63.3870   51.7850 O.2   341  ASN341     -0.2718
    116  CB        15.6740   64.2650   54.3710 C.3   341  ASN341      0.1169
    117  CG        14.9810   65.3730   53.5790 C.2   341  ASN341      0.2627
    118  OD1       13.7810   65.3170   53.3200 O.2   341  ASN341     -0.2716
    119  ND2       15.7470   66.3870   53.1890 N.am  341  ASN341     -0.0877
    120  N         15.2420   61.3430   52.0820 N.am  342  ASN342     -0.1960
    121  CA        15.6390   60.8910   50.7510 C.3   342  ASN342      0.1819
    122  C         14.5930   61.1640   49.6590 C.2   342  ASN342      0.2621
    123  O         14.7670   60.6720   48.5380 O.2   342  ASN342     -0.2715
    124  CB        16.0030   59.3920   50.7760 C.3   342  ASN342      0.1195
    125  CG        14.8720   58.4990   51.2890 C.2   342  ASN342      0.2630
    126  OD1       13.9230   58.9650   51.9170 O.2   342  ASN342     -0.2716
    127  ND2       14.9900   57.2050   51.0380 N.am  342  ASN342     -0.0877
    128  N         13.5680   61.9850   49.9300 N.am  343  VAL343     -0.1963
    129  CA        12.5480   62.3560   48.9430 C.3   343  VAL343      0.1727
    130  C         12.5770   63.8650   48.7270 C.2   343  VAL343      0.2616
    131  O         12.2940   64.6280   49.6560 O.2   343  VAL343     -0.2715
    132  CB        11.1390   61.9250   49.3860 C.3   343  VAL343      0.0290
    133  CG1       10.1250   62.3140   48.3240 C.3   343  VAL343      0.0023
    134  CG2       11.0820   60.4350   49.6470 C.3   343  VAL343      0.0023
    135  N         12.8280   64.2940   47.4870 N.am  344  LYS344     -0.1963
    136  CA        12.9210   65.7130   47.1490 C.3   344  LYS344      0.1728
    137  C         11.8020   66.1470   46.2070 C.2   344  LYS344      0.2617
    138  O         11.5750   65.5180   45.1700 O.2   344  LYS344     -0.2715
    139  CB        14.2660   66.0220   46.4850 C.3   344  LYS344      0.0311
    140  CG        14.4190   67.4730   45.9990 C.3   344  LYS344      0.0038
    141  CD        14.1130   68.4420   47.1410 C.3   344  LYS344      0.0206
    142  CE        14.6330   69.8630   46.9000 C.3   344  LYS344      0.1093
    143  NZ        16.1090   70.0020   47.0920 N.3   344  LYS344     -0.1314
    144  N         11.1920   67.2920   46.5030 N.am  345  THR345     -0.1937
    145  CA        10.0410   67.7920   45.7570 C.3   345  THR345      0.2028
    146  C         10.3470   69.1500   45.1420 C.2   345  THR345      0.2642
    147  O         10.8960   70.0290   45.8120 O.2   345  THR345     -0.2714
    148  CB         8.8180   67.9000   46.6710 C.3   345  THR345      0.1808
    149  OG1        8.6250   66.6580   47.3600 O.3   345  THR345     -0.2208
    150  CG2        7.5750   68.2310   45.8610 C.3   345  THR345      0.0379
    151  N          9.9870   69.3200   43.8740 N.am  346  ALA346     -0.1977
    152  CA        10.1550   70.5860   43.1720 C.3   346  ALA346      0.1597
    153  C          8.8480   70.9710   42.4960 C.2   346  ALA346      0.2287
    154  O          8.0300   70.1100   42.1750 O.2   346  ALA346     -0.2864
    155  CB        11.2790   70.5080   42.1210 C.3   346  ALA346      0.0319
    156  N         10.9180   60.2090   39.6860 N.3   362  ILE362     -0.1245
    157  CA        12.2250   59.5960   39.4170 C.3   362  ILE362      0.1561
    158  C         12.6230   58.8240   40.6690 C.2   362  ILE362      0.2260
    159  O         12.9110   59.4320   41.7100 O.2   362  ILE362     -0.2867
    160  CB        13.3000   60.6320   39.0850 C.3   362  ILE362      0.0252
    161  CG1       12.8160   61.5900   37.9980 C.3   362  ILE362      0.0019
    162  CG2       14.6140   59.9260   38.7010 C.3   362  ILE362      0.0019
    163  CD1       13.7680   62.7450   37.7710 C.3   362  ILE362      0.0001
@<TRIPOS>BOND
     1     4     3    2
     2     3     2    1
     3    19    17    1
     4     5     2    1
     5     5     6    1
     6     8     6   ar
     7     8    10   ar
     8    32    31    1
     9     1     2    1
    10    29    28    2
    11     6     7   ar
    12    10    11   ar
    13    28    27    1
    14    13    14    1
    15    30    31    1
    16    30    27    1
    17    15    14    1
    18    15    16    2
    19    17    14    1
    20    17    18    1
    21    31    33    1
    22    27    26    1
    23     7     9   ar
    24    11     9   ar
    25    11    12    1
    26    26    22   am
    27    20    21    1
    28    22    21    1
    29    22    23    2
    30    21    24    1
    31    45    44    2
    32    63    61    1
    33   111   109    1
    34    24    25    1
    35   163   161    1
    36    44    43    1
    37   161   160    1
    38   110   108    1
    39    61    60    1
    40    61    62    1
    41   108   109    1
    42   108   105    1
    43   162   160    1
    44    60    57    1
    45   160   157    1
    46   107   106    2
    47    43    42    1
    48    43    46    1
    49   157   156    1
    50   157   158    1
    51   106   105    1
    52   105   104    1
    53    57    56    1
    54    57    58    1
    55    47    48    1
    56    56    49   am
    57   104   101   am
    58   158   159    2
    59    58    59    2
    60    97    96    2
    61    49    48    1
    62    49    50    2
    63    48    51    1
    64    55    54    1
    65   101   100    1
    66   101   102    2
    67    40    39    1
    68    51    52    1
    69   155   152    1
    70   154   153    2
    71    52    53    1
    72    77    76    1
    73    77    78    1
    74   100    99    1
    75   100   103    1
    76    98    95    1
    77    76    73    1
    78    79    78    1
    79    96    99   am
    80    96    95    1
    81   153   152    1
    82    38    39    1
    83    38    35    1
    84    39    41    1
    85    54    53    1
    86    36    35    1
    87    36    37    2
    88    34    35    1
    89   152   151    1
    90    95    94    1
    91    94    89   am
    92    73    74    1
    93    73    72    1
    94    74    75    2
    95   151   146   am
    96    72    66   am
    97    64    65    1
    98    92    91    1
    99    89    88    1
   100    89    90    2
   101    85    84    1
   102    83    82    2
   103    88    91    1
   104    88    87    1
   105   146   145    1
   106   146   147    2
   107   138   137    2
   108    66    65    1
   109    66    67    2
   110    68    65    1
   111    68    69    1
   112    71    69   am
   113    91    93    1
   114   145   144    1
   115   145   148    1
   116   150   148    1
   117    82    87   am
   118    82    81    1
   119   140   139    1
   120   140   141    1
   121    69    70    2
   122   137   144   am
   123   137   136    1
   124    84    81    1
   125    84    86    1
   126   139   136    1
   127   148   149    1
   128    81    80    1
   129   142   143    1
   130   142   141    1
   131   136   135    1
   132   135   130   am
   133   133   132    1
   134   123   122    2
   135   130   129    1
   136   130   131    2
   137   129   132    1
   138   129   128    1
   139   132   134    1
   140   122   128   am
   141   122   121    1
   142   121   124    1
   143   121   120    1
   144   124   125    1
   145   127   125   am
   146   125   126    2
   147   115   114    2
   148   120   114   am
   149   114   113    1
   150   119   117   am
   151   118   117    2
   152   117   116    1
   153   113   116    1
   154   113   112    1
