@<TRIPOS>MOLECULE
tmp/5oslA02.pdb
 99 93 0 0 0
SMALL
GASTEIGER

@<TRIPOS>ATOM
      1  N       -138.2210 -177.7470  307.1730 N.3    40  LEU40      -0.1245
      2  CA      -137.1460 -177.1270  306.3860 C.3    40  LEU40       0.1561
      3  C       -137.2600 -175.5790  306.4410 C.2    40  LEU40       0.2260
      4  O       -138.3470 -175.0480  306.2270 O.2    40  LEU40      -0.2867
      5  CB      -137.2050 -177.6340  304.9270 C.3    40  LEU40       0.0270
      6  CG      -137.1830 -179.1710  304.6870 C.3    40  LEU40       0.0019
      7  CD1     -137.1710 -179.4750  303.2100 C.3    40  LEU40       0.0001
      8  CD2     -135.9380 -179.8210  305.3030 C.3    40  LEU40       0.0001
      9  N       -126.9490 -177.9610  297.1620 N.3    46  ARG46      -0.1245
     10  CA      -127.1170 -179.2860  296.5890 C.3    46  ARG46       0.1563
     11  C       -125.8580 -179.6490  295.8620 C.2    46  ARG46       0.2260
     12  O       -125.3110 -178.8350  295.1380 O.2    46  ARG46      -0.2867
     13  CB      -128.3450 -179.3610  295.6590 C.3    46  ARG46       0.0307
     14  CG      -128.7240 -180.8070  295.2530 C.3    46  ARG46       0.0489
     15  CD      -129.9930 -180.8750  294.4210 C.3    46  ARG46       0.2205
     16  NE      -129.8210 -180.1580  293.1620 N.pl3  46  ARG46      -0.0865
     17  CZ      -130.7110 -179.3330  292.6250 C.cat  46  ARG46       0.5346
     18  NH1     -131.8880 -179.1420  293.2090 N.pl3  46  ARG46       0.1354
     19  NH2     -130.4420 -178.7110  291.4870 N.pl3  46  ARG46       0.1354
     20  N       -129.1040 -183.0240  298.7490 N.3    51  GLU51      -0.1245
     21  CA      -129.5620 -181.6490  298.9020 C.3    51  GLU51       0.1567
     22  C       -129.6270 -181.4310  300.4130 C.2    51  GLU51       0.2260
     23  O       -130.1720 -182.2660  301.1350 O.2    51  GLU51      -0.2867
     24  CB      -130.9270 -181.4470  298.2320 C.3    51  GLU51       0.0388
     25  CG      -131.2110 -179.9940  297.8910 C.3    51  GLU51       0.1160
     26  CD      -132.5100 -179.7900  297.1300 C.2    51  GLU51       0.3649
     27  OE1     -133.4440 -180.5920  297.3360 O.co2  51  GLU51      -0.2457
     28  OE2     -132.5980 -178.8410  296.3200 O.co2  51  GLU51      -0.2457
     29  N       -130.3910 -178.9500  303.8090 N.3    53  PHE53      -0.1241
     30  CA      -131.2300 -177.8900  304.3520 C.3    53  PHE53       0.1605
     31  C       -130.9890 -177.6910  305.8300 C.2    53  PHE53       0.2264
     32  O       -130.7810 -178.6470  306.5780 O.2    53  PHE53      -0.2867
     33  CB      -132.7190 -178.2480  304.1830 C.3    53  PHE53       0.0534
     34  CG      -133.2110 -178.2970  302.7580 C.ar   53  PHE53      -0.0203
     35  CD1     -132.9840 -179.4160  301.9620 C.ar   53  PHE53      -0.0042
     36  CD2     -133.9480 -177.2440  302.2240 C.ar   53  PHE53      -0.0042
     37  CE1     -133.4290 -179.4560  300.6360 C.ar   53  PHE53      -0.0003
     38  CE2     -134.3940 -177.2820  300.9000 C.ar   53  PHE53      -0.0003
     39  CZ      -134.1240 -178.3850  300.1120 C.ar   53  PHE53      -0.0000
     40  N       -130.9080 -184.6750  302.3880 N.3    68  ILE68      -0.1231
     41  CA      -131.8020 -185.5210  301.5980 C.3    68  ILE68       0.1692
     42  C       -130.9410 -186.1820  300.5370 C.2    68  ILE68       0.2592
     43  O       -130.3450 -185.4960  299.7110 O.2    68  ILE68      -0.2718
     44  CB      -132.9760 -184.7220  300.9800 C.3    68  ILE68       0.0266
     45  CG1     -133.7330 -183.9400  302.0610 C.3    68  ILE68       0.0019
     46  CG2     -133.9000 -185.6690  300.2140 C.3    68  ILE68       0.0020
     47  CD1     -134.8010 -182.8670  301.4860 C.3    68  ILE68       0.0001
     48  N       -130.8480 -187.5060  300.5900 N.am   69  LEU69      -0.1966
     49  CA      -130.0200 -188.2910  299.6860 C.3    69  LEU69       0.1728
     50  C       -130.5880 -188.4140  298.2910 C.2    69  LEU69       0.2616
     51  O       -131.7350 -188.8110  298.1410 O.2    69  LEU69      -0.2715
     52  CB      -129.7610 -189.6950  300.2840 C.3    69  LEU69       0.0311
     53  CG      -129.0290 -189.7110  301.6340 C.3    69  LEU69       0.0022
     54  CD1     -128.8930 -191.1360  302.1800 C.3    69  LEU69       0.0001
     55  CD2     -127.6620 -189.0160  301.5340 C.3    69  LEU69       0.0001
     56  N       -129.7650 -188.1740  297.2690 N.am   70  LYS70      -0.1964
     57  CA      -130.2140 -188.4180  295.8890 C.3    70  LYS70       0.1713
     58  C       -130.2260 -189.9520  295.6890 C.2    70  LYS70       0.2458
     59  O       -129.4490 -190.6290  296.3720 O.2    70  LYS70      -0.2730
     60  CB      -129.2660 -187.7670  294.8820 C.3    70  LYS70       0.0311
     61  CG      -129.3650 -186.2510  294.8140 C.3    70  LYS70       0.0038
     62  CD      -128.6830 -185.8180  293.5380 C.3    70  LYS70       0.0206
     63  CE      -128.4800 -184.3360  293.4430 C.3    70  LYS70       0.1093
     64  NZ      -127.5890 -184.0280  292.2980 N.3    70  LYS70      -0.1314
     65  N       -131.0950 -190.5380  294.8190 N.am   71  PRO71      -0.2727
     66  CA      -131.0970 -192.0030  294.6620 C.3    71  PRO71       0.1402
     67  C       -129.7730 -192.5370  294.1470 C.2    71  PRO71       0.2269
     68  O       -129.2210 -192.0440  293.1680 O.2    71  PRO71      -0.2865
     69  CB      -132.2460 -192.2780  293.6730 C.3    71  PRO71       0.0296
     70  CG      -133.0450 -191.0340  293.6250 C.3    71  PRO71       0.0237
     71  CD      -132.0940 -189.9140  293.9330 C.3    71  PRO71       0.0939
     72  N       -138.1050 -188.5050  303.2000 N.3   102  ASP102     -0.1239
     73  CA      -138.5770 -187.2050  302.7060 C.3   102  ASP102      0.1674
     74  C       -139.7930 -187.4230  301.8050 C.2   102  ASP102      0.2266
     75  O       -139.7230 -188.2500  300.8930 O.2   102  ASP102     -0.2867
     76  CB      -137.4870 -186.4410  301.9480 C.3   102  ASP102      0.1410
     77  CG      -137.9770 -185.0840  301.4920 C.2   102  ASP102      0.3668
     78  OD1     -137.8710 -184.1200  302.2790 O.co2 102  ASP102     -0.2456
     79  OD2     -138.4510 -184.9810  300.3390 O.co2 102  ASP102     -0.2456
     80  N       -141.1620 -185.5760  299.4730 N.3   104  VAL104     -0.1231
     81  CA      -141.0070 -185.0980  298.0950 C.3   104  VAL104      0.1692
     82  C       -140.0380 -185.9670  297.2980 C.2   104  VAL104      0.2592
     83  O       -140.3520 -186.3510  296.1720 O.2   104  VAL104     -0.2718
     84  CB      -140.6510 -183.5820  298.0570 C.3   104  VAL104      0.0266
     85  CG1     -140.4200 -183.1080  296.6210 C.3   104  VAL104      0.0020
     86  CG2     -141.7640 -182.7440  298.7160 C.3   104  VAL104      0.0020
     87  N       -138.8420 -186.2580  297.8500 N.am  105  SER105     -0.1952
     88  CA      -137.8590 -187.0400  297.1000 C.3   105  SER105      0.1924
     89  C       -138.1530 -188.5310  297.1040 C.2   105  SER105      0.2314
     90  O       -137.6550 -189.2470  296.2130 O.2   105  SER105     -0.2863
     91  CB      -136.4590 -186.8040  297.6640 C.3   105  SER105      0.2116
     92  OG      -136.3790 -187.3020  298.9900 O.3   105  SER105     -0.2180
     93  N       -136.8550 -190.4120  299.1900 N.3   107  THR107     -0.1218
     94  CA      -135.5470 -190.9390  299.5600 C.3   107  THR107      0.1862
     95  C       -135.2440 -190.6930  301.0490 C.2   107  THR107      0.2287
     96  O       -135.8470 -189.8250  301.6890 O.2   107  THR107     -0.2866
     97  CB      -134.4230 -190.3540  298.6880 C.3   107  THR107      0.1770
     98  OG1     -134.2440 -188.9810  299.0290 O.3   107  THR107     -0.2211
     99  CG2     -134.6310 -190.5690  297.1950 C.3   107  THR107      0.0375
@<TRIPOS>BOND
     1    19    17    1
     2    64    63    1
     3    17    16    2
     4    17    18    1
     5    16    15    1
     6    68    67    2
     7    63    62    1
     8    62    61    1
     9    70    69    1
    10    70    71    1
    11    69    66    1
    12    71    65    1
    13    67    66    1
    14    15    14    1
    15    66    65    1
    16    61    60    1
    17    65    58   am
    18    60    57    1
    19    12    11    2
    20    14    13    1
    21    13    10    1
    22    58    57    1
    23    58    59    2
    24    11    10    1
    25    57    56    1
    26    83    82    2
    27    90    89    2
    28    28    26   ar
    29    10     9    1
    30    85    84    1
    31    88    89    1
    32    88    91    1
    33    88    87    1
    34    26    27   ar
    35    26    25    1
    36    99    97    1
    37    56    50   am
    38    82    87   am
    39    82    81    1
    40    91    92    1
    41    25    24    1
    42    84    81    1
    43    84    86    1
    44    81    80    1
    45    51    50    2
    46    24    21    1
    47    50    49    1
    48    97    98    1
    49    97    94    1
    50    20    21    1
    51    21    22    1
    52    93    94    1
    53    94    95    1
    54    49    52    1
    55    49    48    1
    56    43    42    2
    57    39    37   ar
    58    39    38   ar
    59    46    44    1
    60    52    53    1
    61    79    77   ar
    62    22    23    2
    63    42    48   am
    64    42    41    1
    65    37    35   ar
    66    75    74    2
    67    38    36   ar
    68    44    41    1
    69    44    45    1
    70    95    96    2
    71    47    45    1
    72    77    76    1
    73    77    78   ar
    74    55    53    1
    75    41    40    1
    76    53    54    1
    77    74    73    1
    78    76    73    1
    79    35    34   ar
    80    36    34   ar
    81    73    72    1
    82    34    33    1
    83     7     6    1
    84    29    30    1
    85    33    30    1
    86    30    31    1
    87     6     5    1
    88     6     8    1
    89     5     2    1
    90    31    32    2
    91     4     3    2
    92     2     3    1
    93     2     1    1
