@<TRIPOS>MOLECULE
tmp/5oslA01.pdb
 154 148 0 0 0
SMALL
GASTEIGER

@<TRIPOS>ATOM
      1  N       -121.0050 -173.4150  311.0090 N.3   117  ASN117     -0.1225
      2  CA      -119.7640 -173.4300  310.2390 C.3   117  ASN117      0.1785
      3  C       -119.3670 -172.1020  309.5830 C.2   117  ASN117      0.2597
      4  O       -120.1720 -171.5010  308.8710 O.2   117  ASN117     -0.2718
      5  CB      -119.8330 -174.5280  309.1750 C.3   117  ASN117      0.1169
      6  CG      -118.6480 -174.6040  308.2280 C.2   117  ASN117      0.2627
      7  OD1     -118.7260 -174.2810  307.0350 O.2   117  ASN117     -0.2716
      8  ND2     -117.5200 -175.0170  308.7370 N.am  117  ASN117     -0.0877
      9  N       -118.0910 -171.6920  309.7530 N.am  118  THR118     -0.1953
     10  CA      -117.5450 -170.5400  309.0130 C.3   118  THR118      0.1897
     11  C       -117.0770 -171.1630  307.6970 C.2   118  THR118      0.2313
     12  O       -116.4520 -172.2270  307.7400 O.2   118  THR118     -0.2863
     13  CB      -116.3580 -169.9290  309.7370 C.3   118  THR118      0.1794
     14  OG1     -116.7610 -169.5330  311.0320 O.3   118  THR118     -0.2208
     15  CG2     -115.7660 -168.7410  309.0000 C.3   118  THR118      0.0378
     16  N       -114.9330 -172.1830  304.4270 N.3   120  PHE120     -0.1241
     17  CA      -113.5010 -172.4140  304.2300 C.3   120  PHE120      0.1605
     18  C       -112.7780 -171.1620  303.7520 C.2   120  PHE120      0.2264
     19  O       -111.7940 -170.7610  304.3770 O.2   120  PHE120     -0.2867
     20  CB      -113.2410 -173.6190  303.3080 C.3   120  PHE120      0.0534
     21  CG      -111.8280 -173.7270  302.7850 C.ar  120  PHE120     -0.0203
     22  CD1     -110.7940 -174.1570  303.6070 C.ar  120  PHE120     -0.0042
     23  CD2     -111.5260 -173.3730  301.4770 C.ar  120  PHE120     -0.0042
     24  CE1     -109.4930 -174.2670  303.1210 C.ar  120  PHE120     -0.0003
     25  CE2     -110.2180 -173.4720  300.9950 C.ar  120  PHE120     -0.0003
     26  CZ      -109.2160 -173.9320  301.8140 C.ar  120  PHE120     -0.0000
     27  N       -112.1770 -168.8720  306.8720 N.3   123  LEU123     -0.1231
     28  CA      -111.2510 -169.3700  307.9100 C.3   123  LEU123      0.1693
     29  C       -109.8440 -169.5160  307.3570 C.2   123  LEU123      0.2592
     30  O       -108.8730 -169.2920  308.0700 O.2   123  LEU123     -0.2718
     31  CB      -111.7050 -170.7250  308.4950 C.3   123  LEU123      0.0284
     32  CG      -112.7560 -170.7050  309.6070 C.3   123  LEU123      0.0019
     33  CD1     -113.1740 -172.1110  309.9720 C.3   123  LEU123      0.0001
     34  CD2     -112.2690 -169.9680  310.8500 C.3   123  LEU123      0.0001
     35  N       -109.7390 -169.8690  306.0700 N.am  124  TYR124     -0.1976
     36  CA      -108.4600 -170.0350  305.3790 C.3   124  TYR124      0.1639
     37  C       -107.5980 -168.7630  305.5020 C.2   124  TYR124      0.2290
     38  O       -106.3880 -168.8420  305.7210 O.2   124  TYR124     -0.2864
     39  CB      -108.7060 -170.4190  303.9090 C.3   124  TYR124      0.0560
     40  CG      -107.4380 -170.6620  303.1250 C.ar  124  TYR124     -0.0198
     41  CD1     -106.7950 -171.8960  303.1660 C.ar  124  TYR124     -0.0009
     42  CD2     -106.8610 -169.6490  302.3630 C.ar  124  TYR124     -0.0009
     43  CE1     -105.5940 -172.1070  302.4990 C.ar  124  TYR124      0.0417
     44  CE2     -105.6770 -169.8590  301.6610 C.ar  124  TYR124      0.0417
     45  CZ      -105.0440 -171.0890  301.7360 C.ar  124  TYR124      0.1957
     46  OH      -103.8780 -171.3030  301.0510 O.3   124  TYR124     -0.2866
     47  N       -107.1640 -168.0400  310.0790 N.3   127  LEU127     -0.1245
     48  CA      -106.5740 -168.9520  311.0810 C.3   127  LEU127      0.1561
     49  C       -105.0990 -168.6300  311.4010 C.2   127  LEU127      0.2260
     50  O       -104.2910 -168.4310  310.4960 O.2   127  LEU127     -0.2867
     51  CB      -106.7480 -170.4430  310.7260 C.3   127  LEU127      0.0270
     52  CG      -108.1860 -171.0200  310.7630 C.3   127  LEU127      0.0019
     53  CD1     -108.1930 -172.4420  310.3230 C.3   127  LEU127      0.0001
     54  CD2     -108.8170 -170.9240  312.1400 C.3   127  LEU127      0.0001
     55  N       -104.5130 -173.3840  313.5650 N.3   132  ILE132     -0.1245
     56  CA      -104.2590 -174.4660  312.5980 C.3   132  ILE132      0.1561
     57  C       -103.8820 -175.7560  313.3440 C.2   132  ILE132      0.2260
     58  O       -104.4720 -176.7970  313.0710 O.2   132  ILE132     -0.2867
     59  CB      -103.1640 -174.0800  311.5770 C.3   132  ILE132      0.0252
     60  CG1     -103.5810 -172.8390  310.7370 C.3   132  ILE132      0.0019
     61  CG2     -102.7660 -175.3060  310.6970 C.3   132  ILE132      0.0019
     62  CD1     -102.4610 -172.2030  309.9820 C.3   132  ILE132      0.0001
     63  N       -106.9010 -177.0800  315.3940 N.3   135  TYR135     -0.1227
     64  CA      -107.9150 -177.7340  314.5730 C.3   135  TYR135      0.1736
     65  C       -107.4000 -179.0410  313.9530 C.2   135  TYR135      0.2595
     66  O       -108.1640 -179.9950  313.8410 O.2   135  TYR135     -0.2718
     67  CB      -108.5350 -176.7840  313.5430 C.3   135  TYR135      0.0548
     68  CG      -109.4780 -175.7830  314.1870 C.ar  135  TYR135     -0.0200
     69  CD1     -110.4620 -176.1970  315.0900 C.ar  135  TYR135     -0.0009
     70  CD2     -109.3590 -174.4220  313.9320 C.ar  135  TYR135     -0.0009
     71  CE1     -111.3120 -175.2780  315.7060 C.ar  135  TYR135      0.0417
     72  CE2     -110.2100 -173.4940  314.5370 C.ar  135  TYR135      0.0417
     73  CZ      -111.1750 -173.9250  315.4330 C.ar  135  TYR135      0.1957
     74  OH      -112.0360 -173.0090  315.9940 O.3   135  TYR135     -0.2866
     75  N       -106.1070 -179.1000  313.6140 N.am  136  MET136     -0.1979
     76  CA      -105.5130 -180.3360  313.0820 C.3   136  MET136      0.1605
     77  C       -105.5780 -181.4300  314.1510 C.2   136  MET136      0.2287
     78  O       -105.9150 -182.5700  313.8390 O.2   136  MET136     -0.2864
     79  CB      -104.0710 -180.0920  312.6320 C.3   136  MET136      0.0413
     80  CG      -103.9960 -179.3140  311.3280 C.3   136  MET136      0.0598
     81  SD      -104.3540 -180.3320  309.8800 S.3   136  MET136     -0.1393
     82  CE      -102.9130 -181.4410  309.9500 C.3   136  MET136      0.0692
     83  N       -109.0770 -182.8050  314.3610 N.3   139  ILE139     -0.1245
     84  CA      -109.3320 -183.7070  313.2350 C.3   139  ILE139      0.1561
     85  C       -108.7480 -185.0930  313.5370 C.2   139  ILE139      0.2260
     86  O       -109.3800 -186.1100  313.2490 O.2   139  ILE139     -0.2867
     87  CB      -108.8580 -183.1470  311.8590 C.3   139  ILE139      0.0252
     88  CG1     -109.5570 -181.7940  311.5550 C.3   139  ILE139      0.0019
     89  CG2     -109.1640 -184.1760  310.7160 C.3   139  ILE139      0.0019
     90  CD1     -109.0180 -180.9920  310.2960 C.3   139  ILE139      0.0001
     91  N       -111.5510 -179.7300  303.4970 N.3   158  PRO158     -0.2102
     92  CA      -112.2170 -178.6840  304.2950 C.3   158  PRO158      0.1504
     93  C       -113.7440 -178.6330  304.2940 C.2   158  PRO158      0.2575
     94  O       -114.3030 -178.3800  305.3560 O.2   158  PRO158     -0.2718
     95  CB      -111.6220 -177.3910  303.7370 C.3   158  PRO158      0.0282
     96  CG      -110.2330 -177.7880  303.3500 C.3   158  PRO158      0.0208
     97  CD      -110.4120 -179.1650  302.7390 C.3   158  PRO158      0.0893
     98  N       -114.4220 -178.8580  303.1540 N.am  159  HIS159     -0.1976
     99  CA      -115.8900 -178.7910  303.1230 C.3   159  HIS159      0.1656
    100  C       -116.5520 -179.9500  303.8870 C.2   159  HIS159      0.2291
    101  O       -117.7540 -179.8990  304.1710 O.2   159  HIS159     -0.2864
    102  CB      -116.4340 -178.6530  301.6890 C.3   159  HIS159      0.0771
    103  CG      -116.0950 -177.3440  301.0330 C.ar  159  HIS159      0.0820
    104  ND1     -116.3310 -176.1290  301.6660 N.ar  159  HIS159     -0.2267
    105  CD2     -115.5750 -177.1000  299.8060 C.ar  159  HIS159      0.1154
    106  CE1     -115.9240 -175.1980  300.8170 C.ar  159  HIS159      0.1986
    107  NE2     -115.4590 -175.7330  299.6870 N.ar  159  HIS159     -0.2212
    108  N       -115.3300 -180.7970  306.8990 N.3   161  VAL161     -0.1231
    109  CA      -114.9580 -180.5400  308.2820 C.3   161  VAL161      0.1692
    110  C       -115.6560 -179.2670  308.7210 C.2   161  VAL161      0.2592
    111  O       -115.2940 -178.1850  308.2670 O.2   161  VAL161     -0.2718
    112  CB      -113.4320 -180.4260  308.4820 C.3   161  VAL161      0.0266
    113  CG1     -113.1240 -180.1490  309.9500 C.3   161  VAL161      0.0020
    114  CG2     -112.7110 -181.6960  308.0010 C.3   161  VAL161      0.0020
    115  N       -116.6570 -179.3970  309.5990 N.am  162  MET162     -0.1965
    116  CA      -117.3900 -178.2270  310.0830 C.3   162  MET162      0.1736
    117  C       -116.6840 -177.5900  311.2550 C.2   162  MET162      0.2616
    118  O       -116.3350 -178.2740  312.2080 O.2   162  MET162     -0.2715
    119  CB      -118.8370 -178.5820  310.4350 C.3   162  MET162      0.0427
    120  CG      -119.6080 -179.1860  309.2870 C.3   162  MET162      0.0599
    121  SD      -120.0770 -178.0090  308.0160 S.3   162  MET162     -0.1393
    122  CE      -118.6690 -178.1150  306.8530 C.3   162  MET162      0.0692
    123  N       -116.4630 -176.2740  311.1820 N.am  163  ILE163     -0.1977
    124  CA      -115.8370 -175.5520  312.2780 C.3   163  ILE163      0.1596
    125  C       -116.6880 -174.3730  312.7210 C.2   163  ILE163      0.2287
    126  O       -116.9380 -173.4660  311.9440 O.2   163  ILE163     -0.2864
    127  CB      -114.3660 -175.1240  312.0120 C.3   163  ILE163      0.0276
    128  CG1     -113.4540 -176.3160  311.6700 C.3   163  ILE163      0.0022
    129  CG2     -113.8230 -174.3330  313.2010 C.3   163  ILE163      0.0022
    130  CD1     -111.9950 -175.9090  311.2770 C.3   163  ILE163      0.0001
    131  N       -104.4290 -180.9640  303.0570 N.3   220  MET220     -0.1230
    132  CA      -105.1250 -179.8440  303.7370 C.3   220  MET220      0.1702
    133  C       -104.1070 -178.9870  304.5140 C.2   220  MET220      0.2592
    134  O       -104.1440 -177.7520  304.4400 O.2   220  MET220     -0.2718
    135  CB      -106.1490 -180.3880  304.7390 C.3   220  MET220      0.0401
    136  CG      -107.3990 -180.9340  304.1040 C.3   220  MET220      0.0596
    137  SD      -108.5070 -181.6210  305.3760 S.3   220  MET220     -0.1393
    138  CE      -108.7310 -180.2580  306.3660 C.3   220  MET220      0.0692
    139  N       -103.2240 -179.6370  305.2540 N.am  221  LEU221     -0.1980
    140  CA      -102.2020 -178.9340  306.0210 C.3   221  LEU221      0.1596
    141  C       -101.2560 -178.1130  305.1190 C.2   221  LEU221      0.2287
    142  O       -101.0200 -176.9570  305.4250 O.2   221  LEU221     -0.2864
    143  CB      -101.4000 -179.8720  306.9450 C.3   221  LEU221      0.0297
    144  CG      -100.3810 -179.1550  307.8240 C.3   221  LEU221      0.0022
    145  CD1     -101.0690 -178.1290  308.7750 C.3   221  LEU221      0.0001
    146  CD2      -99.4530 -180.1280  308.4960 C.3   221  LEU221      0.0001
    147  N       -102.8910 -174.9920  303.7000 N.3   224  MET224     -0.1245
    148  CA      -103.0790 -174.0160  304.7610 C.3   224  MET224      0.1570
    149  C       -101.8090 -173.2790  305.1410 C.2   224  MET224      0.2261
    150  O       -101.8170 -172.0480  305.1430 O.2   224  MET224     -0.2867
    151  CB      -103.6930 -174.6850  306.0010 C.3   224  MET224      0.0387
    152  CG      -104.0890 -173.6870  307.1110 C.3   224  MET224      0.0595
    153  SD      -105.3530 -172.4690  306.6220 S.3   224  MET224     -0.1393
    154  CE      -106.5480 -173.4500  306.1210 C.3   224  MET224      0.0692
@<TRIPOS>BOND
     1   107   105   ar
     2   107   106   ar
     3   105   103   ar
     4   106   104   ar
     5    25    23   ar
     6    25    26   ar
     7   103   104   ar
     8   103   102    1
     9    46    45    1
    10    23    21   ar
    11    44    45   ar
    12    44    42   ar
    13   102    99    1
    14    45    43   ar
    15    26    24   ar
    16    42    40   ar
    17    43    41   ar
    18    97    96    1
    19    97    91    1
    20    21    20    1
    21    21    22   ar
    22   131   132    1
    23    24    22   ar
    24    99    98    1
    25    99   100    1
    26    40    41   ar
    27    40    39    1
    28    98    93   am
    29    20    17    1
    30    96    95    1
    31    91    92    1
    32   147   148    1
    33   132   133    1
    34   132   135    1
    35    95    92    1
    36    18    17    1
    37    18    19    2
    38   100   101    2
    39    39    36    1
    40   136   135    1
    41   136   137    1
    42    17    16    1
    43    93    92    1
    44    93    94    2
    45   134   133    2
    46   133   139   am
    47   148   149    1
    48   148   151    1
    49   141   142    2
    50   141   140    1
    51   149   150    2
    52   139   140    1
    53   137   138    1
    54    36    37    1
    55    36    35    1
    56    37    38    2
    57   151   152    1
    58   140   143    1
    59    35    29   am
    60   154   153    1
    61   153   152    1
    62   122   121    1
    63    27    28    1
    64   108   109    1
    65   143   144    1
    66     7     6    2
    67    29    28    1
    68    29    30    2
    69    11    12    2
    70    11    10    1
    71   144   146    1
    72   144   145    1
    73    28    31    1
    74   114   112    1
    75   121   120    1
    76     6     8   am
    77     6     5    1
    78   111   110    2
    79   109   112    1
    80   109   110    1
    81   112   113    1
    82    31    32    1
    83   110   115   am
    84     4     3    2
    85    15    13    1
    86    10    13    1
    87    10     9    1
    88     5     2    1
    89   120   119    1
    90     3     9   am
    91     3     2    1
    92   115   116    1
    93    32    33    1
    94    32    34    1
    95    13    14    1
    96    81    82    1
    97    81    80    1
    98    62    60    1
    99    47    48    1
   100   116   119    1
   101   116   117    1
   102     2     1    1
   103    90    88    1
   104    53    52    1
   105    50    49    2
   106    61    59    1
   107    89    87    1
   108    51    52    1
   109    51    48    1
   110    60    59    1
   111    52    54    1
   112    48    49    1
   113   123   117   am
   114   123   124    1
   115   117   118    2
   116   130   128    1
   117    80    79    1
   118    88    87    1
   119    59    56    1
   120   128   127    1
   121    87    84    1
   122   126   125    2
   123   127   124    1
   124   127   129    1
   125   124   125    1
   126    56    57    1
   127    56    55    1
   128    79    76    1
   129    58    57    2
   130    76    75    1
   131    76    77    1
   132    84    85    1
   133    84    83    1
   134    86    85    2
   135    67    68    1
   136    67    64    1
   137    75    65   am
   138    78    77    2
   139    66    65    2
   140    70    68   ar
   141    70    72   ar
   142    65    64    1
   143    68    69   ar
   144    72    73   ar
   145    64    63    1
   146    69    71   ar
   147    73    71   ar
   148    73    74    1
