@<TRIPOS>MOLECULE
tmp/5osmA00.pdb
 147 139 0 0 0
SMALL
GASTEIGER

@<TRIPOS>ATOM
      1  N         -0.1050  -12.3230  -32.9480 N.3    14  ILE14      -0.1231
      2  CA         0.8920  -11.8860  -31.9360 C.3    14  ILE14       0.1692
      3  C          0.8490  -12.7220  -30.6690 C.2    14  ILE14       0.2592
      4  O          1.8730  -13.2920  -30.2860 O.2    14  ILE14      -0.2718
      5  CB         0.7670  -10.3800  -31.4990 C.3    14  ILE14       0.0266
      6  CG1        0.8370   -9.4470  -32.6690 C.3    14  ILE14       0.0019
      7  CG2        1.8220  -10.0300  -30.4400 C.3    14  ILE14       0.0020
      8  CD1        0.6180   -7.9940  -32.2430 C.3    14  ILE14       0.0001
      9  N         -0.3250  -12.8150  -30.0280 N.am   15  GLY15      -0.1957
     10  CA        -0.5000  -13.5280  -28.7730 C.3    15  GLY15       0.1869
     11  C         -1.9760  -13.8240  -28.4770 C.2    15  GLY15       0.2309
     12  O         -2.8750  -13.5580  -29.2880 O.2    15  GLY15      -0.2863
     13  N         -4.7640  -11.4820  -30.1410 N.3    22  VAL22      -0.1245
     14  CA        -4.1860  -10.2080  -30.6060 C.3    22  VAL22       0.1561
     15  C         -3.4770  -10.4980  -31.9260 C.2    22  VAL22       0.2260
     16  O         -2.6970  -11.4310  -31.9530 O.2    22  VAL22      -0.2867
     17  CB        -3.2440   -9.5170  -29.6100 C.3    22  VAL22       0.0252
     18  CG1       -2.8480   -8.1630  -30.2570 C.3    22  VAL22       0.0019
     19  CG2       -3.9540   -9.2750  -28.2500 C.3    22  VAL22       0.0019
     20  N         -1.6970   -3.3850  -33.5230 N.3    35  ALA35      -0.1245
     21  CA        -2.0950   -4.6240  -32.8680 C.3    35  ALA35       0.1562
     22  C         -3.5890   -4.5660  -32.6150 C.2    35  ALA35       0.2260
     23  O         -4.0790   -3.6520  -31.9470 O.2    35  ALA35      -0.2867
     24  CB        -1.2990   -4.7430  -31.5470 C.3    35  ALA35       0.0290
     25  N         -6.7770   -6.3520  -30.9770 N.3    37  LYS37      -0.1245
     26  CA        -7.3600   -7.3430  -30.0580 C.3    37  LYS37       0.1561
     27  C         -8.8060   -7.6290  -30.3640 C.2    37  LYS37       0.2260
     28  O         -9.6250   -6.7220  -30.3720 O.2    37  LYS37      -0.2867
     29  CB        -7.2460   -6.8310  -28.6300 C.3    37  LYS37       0.0271
     30  CG        -7.7880   -7.9080  -27.6830 C.3    37  LYS37       0.0035
     31  CD        -7.6730   -7.5490  -26.1990 C.3    37  LYS37       0.0206
     32  CE        -6.2400   -7.7580  -25.7060 C.3    37  LYS37       0.1093
     33  NZ        -6.1010   -7.0750  -24.4040 N.3    37  LYS37      -0.1314
     34  N          0.5610    1.9000  -23.7750 N.3    60  VAL60      -0.1245
     35  CA         0.3900    1.5130  -25.1800 C.3    60  VAL60       0.1561
     36  C         -0.7980    2.2950  -25.7460 C.2    60  VAL60       0.2260
     37  O         -1.8660    2.3270  -25.1400 O.2    60  VAL60      -0.2867
     38  CB         0.0410    0.0160  -25.2550 C.3    60  VAL60       0.0252
     39  CG1       -0.3440   -0.3440  -26.7090 C.3    60  VAL60       0.0019
     40  CG2        1.3180   -0.7830  -24.9040 C.3    60  VAL60       0.0019
     41  N        -10.1760   -3.8680  -29.9490 N.3    74  LEU74      -0.1245
     42  CA        -9.3840   -2.7270  -29.5230 C.3    74  LEU74       0.1561
     43  C         -8.2630   -2.6300  -30.4770 C.2    74  LEU74       0.2260
     44  O         -7.5500   -3.6350  -30.7210 O.2    74  LEU74      -0.2867
     45  CB        -8.8430   -2.9200  -28.0810 C.3    74  LEU74       0.0270
     46  CG        -9.8100   -3.2390  -26.9640 C.3    74  LEU74       0.0019
     47  CD1       -9.0570   -3.1410  -25.6250 C.3    74  LEU74       0.0001
     48  CD2      -11.0690   -2.3740  -26.9340 C.3    74  LEU74       0.0001
     49  N         -4.6290   -0.9980  -31.1120 N.3    76  CYS76      -0.1221
     50  CA        -3.5040   -0.4360  -30.2490 C.3    76  CYS76       0.1808
     51  C         -2.3580   -0.1620  -31.1740 C.2    76  CYS76       0.2601
     52  O         -2.1840   -0.8000  -32.2530 O.2    76  CYS76      -0.2717
     53  CB        -2.9850   -1.5060  -29.2880 C.3    76  CYS76       0.0970
     54  SG        -4.2250   -1.9320  -28.0750 S.3    76  CYS76      -0.0800
     55  N         -1.4020    0.6700  -30.7540 N.am   77  GLU77      -0.1965
     56  CA        -0.2120    0.7950  -31.5790 C.3    77  GLU77       0.1733
     57  C          0.5770   -0.5040  -31.4740 C.2    77  GLU77       0.2616
     58  O          0.3790   -1.2530  -30.5360 O.2    77  GLU77      -0.2715
     59  CB         0.6950    1.9450  -31.0880 C.3    77  GLU77       0.0429
     60  CG         1.1350    1.6920  -29.6990 C.3    77  GLU77       0.1163
     61  CD         2.1860    2.6750  -29.1350 C.2    77  GLU77       0.3649
     62  OE1        3.1890    3.0500  -29.7620 O.co2  77  GLU77      -0.2457
     63  OE2        1.9550    3.0530  -28.0150 O.co2  77  GLU77      -0.2457
     64  N          1.4230   -0.7310  -32.4540 N.am   78  PHE78      -0.1960
     65  CA         2.2520   -1.9550  -32.5130 C.3    78  PHE78       0.1771
     66  C          3.6440   -1.6750  -32.0040 C.2    78  PHE78       0.2619
     67  O          4.2800   -0.6910  -32.4510 O.2    78  PHE78      -0.2715
     68  CB         2.2960   -2.3830  -33.9860 C.3    78  PHE78       0.0574
     69  CG         3.0300   -3.6390  -34.2030 C.ar   78  PHE78      -0.0200
     70  CD1        2.4630   -4.8280  -33.7770 C.ar   78  PHE78      -0.0042
     71  CD2        4.3280   -3.6240  -34.7190 C.ar   78  PHE78      -0.0042
     72  CE1        3.1470   -6.0360  -33.9890 C.ar   78  PHE78      -0.0003
     73  CE2        5.0220   -4.8100  -34.9050 C.ar   78  PHE78      -0.0003
     74  CZ         4.4440   -6.0310  -34.4960 C.ar   78  PHE78      -0.0000
     75  N          4.1780   -2.5470  -31.1370 N.am   79  LEU79      -0.1963
     76  CA         5.5710   -2.3180  -30.6960 C.3    79  LEU79       0.1728
     77  C          6.5290   -3.4560  -31.1210 C.2    79  LEU79       0.2616
     78  O          6.4210   -3.9190  -32.2100 O.2    79  LEU79      -0.2715
     79  CB         5.7000   -1.9670  -29.1750 C.3    79  LEU79       0.0311
     80  CG         5.3040   -0.6320  -28.5990 C.3    79  LEU79       0.0022
     81  CD1        5.7110    0.6680  -29.3350 C.3    79  LEU79       0.0001
     82  CD2        3.8430   -0.6620  -28.2230 C.3    79  LEU79       0.0001
     83  N          7.5590   -3.7730  -30.3490 N.am   80  HIS80      -0.1959
     84  CA         8.4930   -4.8340  -30.8060 C.3    80  HIS80       0.1787
     85  C          8.0560   -6.2200  -30.2900 C.2    80  HIS80       0.2620
     86  O          7.7800   -7.1510  -31.0120 O.2    80  HIS80      -0.2715
     87  CB         9.9200   -4.5090  -30.3720 C.3    80  HIS80       0.0785
     88  CG        10.9110   -5.4380  -30.9390 C.ar   80  HIS80       0.0821
     89  ND1       11.1320   -5.5410  -32.3050 N.ar   80  HIS80      -0.2267
     90  CD2       11.6880   -6.3670  -30.3470 C.ar   80  HIS80       0.1154
     91  CE1       12.0330   -6.4900  -32.5250 C.ar   80  HIS80       0.1986
     92  NE2       12.4060   -6.9880  -31.3460 N.ar   80  HIS80      -0.2212
     93  N          8.0200   -6.3680  -28.9780 N.am   81  GLN81      -0.1963
     94  CA         7.6690   -7.6150  -28.3500 C.3    81  GLN81       0.1733
     95  C          7.3610   -7.3550  -26.8620 C.2    81  GLN81       0.2616
     96  O          7.6410   -6.2490  -26.3430 O.2    81  GLN81      -0.2715
     97  CB         8.8530   -8.5380  -28.4780 C.3    81  GLN81       0.0408
     98  CG        10.0680   -8.2880  -27.6020 C.3    81  GLN81       0.0908
     99  CD        11.2440   -9.2710  -27.8360 C.2    81  GLN81       0.2608
    100  OE1       11.0880  -10.3070  -28.5090 O.2    81  GLN81      -0.2717
    101  NE2       12.3860   -8.9810  -27.2460 N.am   81  GLN81      -0.0878
    102  N          6.8560   -8.3790  -26.2000 N.am   82  ASP82      -0.1971
    103  CA         6.5360   -8.2180  -24.7990 C.3    82  ASP82       0.1709
    104  C          7.7190   -8.5210  -23.8820 C.2    82  ASP82       0.2293
    105  O          8.7130   -9.1370  -24.3210 O.2    82  ASP82      -0.2864
    106  CB         5.2320   -8.9320  -24.4240 C.3    82  ASP82       0.1436
    107  CG         5.3860  -10.4640  -24.3370 C.2    82  ASP82       0.3671
    108  OD1        6.4380  -10.9770  -23.8930 O.co2  82  ASP82      -0.2456
    109  OD2        4.4490  -11.1480  -24.6950 O.co2  82  ASP82      -0.2456
    110  N          3.6600  -10.2290  -19.8110 N.3   127  GLN127     -0.1231
    111  CA         3.0340  -10.3260  -21.1180 C.3   127  GLN127      0.1698
    112  C          2.2740   -9.0370  -21.5450 C.2   127  GLN127      0.2592
    113  O          1.9590   -8.9370  -22.7380 O.2   127  GLN127     -0.2718
    114  CB         2.1020  -11.5540  -21.2170 C.3   127  GLN127      0.0381
    115  CG         1.4430  -11.8040  -22.5830 C.3   127  GLN127      0.0905
    116  CD         0.4220  -12.9370  -22.5220 C.2   127  GLN127      0.2608
    117  OE1        0.3540  -13.6490  -21.5330 O.2   127  GLN127     -0.2717
    118  NE2       -0.3930  -13.0740  -23.5670 N.am  127  GLN127     -0.0878
    119  N          1.9480   -8.1230  -20.6210 N.am  128  ASN128     -0.1974
    120  CA         1.2680   -6.8620  -21.0100 C.3   128  ASN128      0.1688
    121  C          2.1670   -5.6800  -20.9070 C.2   128  ASN128      0.2292
    122  O          1.7220   -4.5420  -20.9410 O.2   128  ASN128     -0.2864
    123  CB        -0.1650   -6.7100  -20.4800 C.3   128  ASN128      0.1181
    124  CG        -0.2570   -6.7650  -18.9780 C.2   128  ASN128      0.2629
    125  OD1        0.6960   -6.4330  -18.2580 O.2   128  ASN128     -0.2716
    126  ND2       -1.4230   -7.2930  -18.4860 N.am  128  ASN128     -0.0877
    127  N          5.1670   -3.9680  -23.0270 N.3   130  LEU130     -0.1245
    128  CA         5.6910   -4.0860  -24.4060 C.3   130  LEU130      0.1561
    129  C          6.8970   -3.1710  -24.5920 C.2   130  LEU130      0.2260
    130  O          6.8480   -1.9760  -24.2140 O.2   130  LEU130     -0.2867
    131  CB         4.6150   -3.6040  -25.4310 C.3   130  LEU130      0.0270
    132  CG         3.4790   -4.5410  -25.8560 C.3   130  LEU130      0.0019
    133  CD1        4.0720   -5.8260  -26.4680 C.3   130  LEU130      0.0001
    134  CD2        2.6650   -4.8780  -24.6710 C.3   130  LEU130      0.0001
    135  N          0.2610   -2.2230  -21.4240 N.3   140  ALA140     -0.1231
    136  CA        -0.9460   -2.5540  -22.2380 C.3   140  ALA140      0.1694
    137  C         -2.0840   -3.0340  -21.3460 C.2   140  ALA140      0.2592
    138  O         -1.8630   -3.4990  -20.2510 O.2   140  ALA140     -0.2718
    139  CB        -0.6640   -3.6610  -23.2890 C.3   140  ALA140      0.0304
    140  N         -3.3020   -2.8500  -21.8280 N.am  141  ASP141     -0.1974
    141  CA        -4.5120   -3.3630  -21.1410 C.3   141  ASP141      0.1709
    142  C         -4.9500   -2.6320  -19.8560 C.2   141  ASP141      0.2293
    143  O         -5.7570   -3.2100  -19.1160 O.2   141  ASP141     -0.2864
    144  CB        -4.3610   -4.9030  -20.8700 C.3   141  ASP141      0.1436
    145  CG        -4.4960   -5.7220  -22.1110 C.2   141  ASP141      0.3671
    146  OD1       -4.9780   -5.1820  -23.1180 O.co2 141  ASP141     -0.2456
    147  OD2       -4.1590   -6.9260  -22.1110 O.co2 141  ASP141     -0.2456
@<TRIPOS>BOND
     1    73    71   ar
     2    73    74   ar
     3    71    69   ar
     4    74    72   ar
     5    69    68    1
     6    69    70   ar
     7    72    70   ar
     8    68    65    1
     9    20    21    1
    10     1     2    1
    11    21    22    1
    12    21    24    1
    13     6     8    1
    14     6     5    1
    15    22    23    2
    16    91    89   ar
    17    91    92   ar
    18    65    64    1
    19    65    66    1
    20    64    57   am
    21    67    66    2
    22    89    88   ar
    23    52    51    2
    24    78    77    2
    25    66    75   am
    26    16    15    2
    27     2     5    1
    28     2     3    1
    29    15    14    1
    30    56    57    1
    31    56    59    1
    32    56    55    1
    33     5     7    1
    34    57    58    2
    35    92    90   ar
    36    51    55   am
    37    51    50    1
    38    75    76    1
    39    77    76    1
    40    77    83   am
    41    49    50    1
    42    59    60    1
    43    86    85    2
    44    25    26    1
    45    88    87    1
    46    88    90   ar
    47    84    87    1
    48    84    83    1
    49    84    85    1
    50    44    43    2
    51    76    79    1
    52     3     4    2
    53     3     9   am
    54    14    13    1
    55    14    17    1
    56    43    42    1
    57    28    27    2
    58    27    26    1
    59    85    93   am
    60    18    17    1
    61    50    53    1
    62    26    29    1
    63     9    10    1
    64    41    42    1
    65    62    61   ar
    66    60    61    1
    67    17    19    1
    68    42    45    1
    69    81    80    1
    70    53    54    1
    71    12    11    2
    72    79    80    1
    73    61    63   ar
    74    93    94    1
    75    10    11    1
    76    29    30    1
    77    80    82    1
    78   100    99    2
    79    97    94    1
    80    97    98    1
    81    94    95    1
    82    45    46    1
    83    99    98    1
    84    99   101   am
    85    30    31    1
    86    46    48    1
    87    46    47    1
    88    95    96    2
    89    95   102   am
    90    39    38    1
    91   133   132    1
    92   102   103    1
    93    31    32    1
    94   132   131    1
    95   132   134    1
    96    36    35    1
    97    36    37    2
    98    32    33    1
    99   131   128    1
   100    38    35    1
   101    38    40    1
   102    35    34    1
   103   103   106    1
   104   103   104    1
   105   109   107   ar
   106   129   128    1
   107   129   130    2
   108   106   107    1
   109   128   127    1
   110   107   108   ar
   111   105   104    2
   112   118   116   am
   113   139   136    1
   114   146   145   ar
   115   113   112    2
   116   115   116    1
   117   115   114    1
   118   116   117    2
   119   136   135    1
   120   136   137    1
   121   145   147   ar
   122   145   144    1
   123   140   137   am
   124   140   141    1
   125   112   111    1
   126   112   119   am
   127   137   138    2
   128   114   111    1
   129   141   144    1
   130   141   142    1
   131   111   110    1
   132   120   121    1
   133   120   119    1
   134   120   123    1
   135   122   121    2
   136   123   124    1
   137   142   143    2
   138   124   126   am
   139   124   125    2
