@<TRIPOS>MOLECULE
tmp/5osnA00.pdb
 213 205 0 0 0
SMALL
GASTEIGER

@<TRIPOS>ATOM
      1  N         61.5670  -30.6600  119.3770 N.3    86  ILE86      -0.1231
      2  CA        60.4180  -29.9200  118.8710 C.3    86  ILE86       0.1692
      3  C         59.1180  -30.6560  119.1520 C.2    86  ILE86       0.2592
      4  O         58.7830  -31.6260  118.4690 O.2    86  ILE86      -0.2718
      5  CB        60.5400  -29.6590  117.3590 C.3    86  ILE86       0.0266
      6  CG1       61.9420  -29.1560  117.0340 C.3    86  ILE86       0.0019
      7  CG2       59.5650  -28.5930  116.9280 C.3    86  ILE86       0.0020
      8  CD1       62.2430  -29.0930  115.5720 C.3    86  ILE86       0.0001
      9  N         58.4200  -30.1910  120.1900 N.am   87  ASN87      -0.1960
     10  CA        57.1110  -30.7090  120.6300 C.3    87  ASN87       0.1819
     11  C         56.3840  -29.6040  121.3990 C.2    87  ASN87       0.2621
     12  O         56.9930  -28.9200  122.2190 O.2    87  ASN87      -0.2715
     13  CB        57.2660  -31.9470  121.5120 C.3    87  ASN87       0.1195
     14  CG        56.1230  -32.1100  122.4890 C.2    87  ASN87       0.2630
     15  OD1       56.1740  -31.5860  123.6050 O.2    87  ASN87      -0.2716
     16  ND2       55.0800  -32.8290  122.0750 N.am   87  ASN87      -0.0877
     17  N         55.0890  -29.4340  121.1390 N.am   88  PHE88      -0.1960
     18  CA        54.3300  -28.3750  121.7890 C.3    88  PHE88       0.1771
     19  C         53.5280  -28.7360  123.0290 C.2    88  PHE88       0.2620
     20  O         52.4730  -28.1760  123.2640 O.2    88  PHE88      -0.2715
     21  CB        53.3870  -27.7120  120.7800 C.3    88  PHE88       0.0574
     22  CG        54.0830  -27.1640  119.5720 C.ar   88  PHE88      -0.0200
     23  CD1       55.4170  -26.7820  119.6360 C.ar   88  PHE88      -0.0042
     24  CD2       53.4150  -27.0520  118.3640 C.ar   88  PHE88      -0.0042
     25  CE1       56.0760  -26.3020  118.5120 C.ar   88  PHE88      -0.0003
     26  CE2       54.0700  -26.5700  117.2280 C.ar   88  PHE88      -0.0003
     27  CZ        55.4020  -26.2000  117.3040 C.ar   88  PHE88      -0.0000
     28  N         54.0180  -29.6550  123.8400 N.am   89  GLY89      -0.1954
     29  CA        53.2680  -30.0010  125.0320 C.3    89  GLY89       0.1869
     30  C         53.7720  -29.3720  126.3240 C.2    89  GLY89       0.2309
     31  O         53.1780  -29.6140  127.3760 O.2    89  GLY89      -0.2863
     32  N         48.7590  -25.4600  123.1280 N.3    95  ARG95      -0.1245
     33  CA        48.4800  -26.8780  123.0590 C.3    95  ARG95       0.1563
     34  C         46.9740  -27.0950  123.1120 C.2    95  ARG95       0.2260
     35  O         46.4360  -27.8050  122.2770 O.2    95  ARG95      -0.2867
     36  CB        49.1480  -27.5930  124.2300 C.3    95  ARG95       0.0307
     37  CG        48.9590  -29.1070  124.2370 C.3    95  ARG95       0.0489
     38  CD        49.5430  -29.6870  125.5080 C.3    95  ARG95       0.2205
     39  NE        49.3760  -31.1300  125.6050 N.pl3  95  ARG95      -0.0865
     40  CZ        49.8890  -31.8630  126.5810 C.cat  95  ARG95       0.5346
     41  NH1       50.6000  -31.2800  127.5330 N.pl3  95  ARG95       0.1354
     42  NH2       49.6860  -33.1730  126.6050 N.pl3  95  ARG95       0.1354
     43  N         45.3050  -26.1800  119.6120 N.3    98  LEU98      -0.1245
     44  CA        45.5140  -27.1730  118.5680 C.3    98  LEU98       0.1561
     45  C         44.6560  -28.4360  118.7560 C.2    98  LEU98       0.2260
     46  O         44.2150  -29.0500  117.7780 O.2    98  LEU98      -0.2867
     47  CB        46.9830  -27.5680  118.5490 C.3    98  LEU98       0.0270
     48  CG        47.9180  -26.4220  118.1870 C.3    98  LEU98       0.0019
     49  CD1       49.3800  -26.8800  118.3400 C.3    98  LEU98       0.0001
     50  CD2       47.5990  -25.9640  116.7620 C.3    98  LEU98       0.0001
     51  N         49.0420  -27.0740  108.4550 N.3   106  PHE106     -0.1241
     52  CA        49.3730  -25.6610  108.5360 C.3   106  PHE106      0.1605
     53  C         50.8600  -25.3960  108.4590 C.2   106  PHE106      0.2264
     54  O         51.6720  -26.2710  108.7810 O.2   106  PHE106     -0.2867
     55  CB        48.7810  -25.0210  109.8060 C.3   106  PHE106      0.0534
     56  CG        49.1380  -25.7330  111.0910 C.ar  106  PHE106     -0.0203
     57  CD1       50.4370  -25.7250  111.5740 C.ar  106  PHE106     -0.0042
     58  CD2       48.1580  -26.3950  111.8280 C.ar  106  PHE106     -0.0042
     59  CE1       50.7530  -26.3670  112.7770 C.ar  106  PHE106     -0.0003
     60  CE2       48.4640  -27.0330  113.0210 C.ar  106  PHE106     -0.0003
     61  CZ        49.7580  -27.0220  113.4990 C.ar  106  PHE106     -0.0000
     62  N         54.0410  -22.7200  109.5100 N.3   108  MET108     -0.1245
     63  CA        54.3360  -22.0270  110.7490 C.3   108  MET108      0.1570
     64  C         55.3990  -20.9750  110.6620 C.2   108  MET108      0.2261
     65  O         56.3550  -21.0650  109.8920 O.2   108  MET108     -0.2867
     66  CB        54.7340  -22.9960  111.8450 C.3   108  MET108      0.0387
     67  CG        53.5550  -23.6880  112.4660 C.3   108  MET108      0.0595
     68  SD        54.0200  -24.6620  113.8850 S.3   108  MET108     -0.1393
     69  CE        53.1350  -23.8200  115.1240 C.3   108  MET108      0.0692
     70  N         58.0460  -19.1840  113.0100 N.3   110  PHE110     -0.1241
     71  CA        58.7820  -19.2760  114.2620 C.3   110  PHE110      0.1605
     72  C         59.5010  -17.9530  114.5420 C.2   110  PHE110      0.2264
     73  O         60.2040  -17.4410  113.6820 O.2   110  PHE110     -0.2867
     74  CB        59.8110  -20.4130  114.1790 C.3   110  PHE110      0.0534
     75  CG        59.2670  -21.7640  114.5760 C.ar  110  PHE110     -0.0203
     76  CD1       59.4490  -22.2510  115.8640 C.ar  110  PHE110     -0.0042
     77  CD2       58.5310  -22.5190  113.6820 C.ar  110  PHE110     -0.0042
     78  CE1       58.8960  -23.4690  116.2520 C.ar  110  PHE110     -0.0003
     79  CE2       57.9710  -23.7420  114.0620 C.ar  110  PHE110     -0.0003
     80  CZ        58.1510  -24.2160  115.3450 C.ar  110  PHE110     -0.0000
     81  N         62.1370  -16.1880  117.3110 N.3   112  ILE112     -0.1245
     82  CA        63.0450  -16.5150  118.4140 C.3   112  ILE112      0.1561
     83  C         63.5690  -15.2650  119.1070 C.2   112  ILE112      0.2260
     84  O         64.2020  -14.4160  118.4880 O.2   112  ILE112     -0.2867
     85  CB        64.2470  -17.3500  117.9210 C.3   112  ILE112      0.0252
     86  CG1       63.7400  -18.6430  117.2870 C.3   112  ILE112      0.0019
     87  CG2       65.1610  -17.6910  119.0770 C.3   112  ILE112      0.0019
     88  CD1       64.7770  -19.3910  116.5210 C.3   112  ILE112      0.0001
     89  N         71.1100  -21.1290  115.9090 N.3   132  VAL132     -0.1245
     90  CA        70.0090  -22.0660  116.1020 C.3   132  VAL132      0.1561
     91  C         70.0410  -23.0230  114.9070 C.2   132  VAL132      0.2260
     92  O         69.8420  -22.6140  113.7640 O.2   132  VAL132     -0.2867
     93  CB        68.6330  -21.3550  116.1540 C.3   132  VAL132      0.0252
     94  CG1       67.5330  -22.3900  116.3190 C.3   132  VAL132      0.0019
     95  CG2       68.5850  -20.4050  117.3190 C.3   132  VAL132      0.0019
     96  N         68.5780  -26.6320  113.1820 N.3   134  PHE134     -0.1241
     97  CA        67.5030  -27.6370  113.1190 C.3   134  PHE134      0.1605
     98  C         68.1680  -28.9680  112.7270 C.2   134  PHE134      0.2264
     99  O         68.7230  -29.0920  111.6410 O.2   134  PHE134     -0.2867
    100  CB        66.4650  -27.2280  112.0580 C.3   134  PHE134      0.0534
    101  CG        65.4780  -28.3100  111.7110 C.ar  134  PHE134     -0.0203
    102  CD1       64.6790  -28.8880  112.6950 C.ar  134  PHE134     -0.0042
    103  CD2       65.3200  -28.7270  110.3870 C.ar  134  PHE134     -0.0042
    104  CE1       63.7350  -29.8580  112.3760 C.ar  134  PHE134     -0.0003
    105  CE2       64.3760  -29.6960  110.0530 C.ar  134  PHE134     -0.0003
    106  CZ        63.5780  -30.2640  111.0610 C.ar  134  PHE134     -0.0000
    107  N         69.6680  -26.8060  108.3900 N.3   156  PRO156     -0.2102
    108  CA        69.4280  -25.3660  108.3500 C.3   156  PRO156      0.1504
    109  C         69.8550  -24.7340  109.6570 C.2   156  PRO156      0.2576
    110  O         69.5930  -25.2780  110.7220 O.2   156  PRO156     -0.2718
    111  CB        67.9180  -25.2840  108.1640 C.3   156  PRO156      0.0282
    112  CG        67.6020  -26.5180  107.4020 C.3   156  PRO156      0.0208
    113  CD        68.4210  -27.5450  108.1200 C.3   156  PRO156      0.0893
    114  N         70.5150  -23.5910  109.5770 N.am  157  SER157     -0.1938
    115  CA        70.9120  -22.8650  110.7800 C.3   157  SER157      0.2055
    116  C         70.5120  -21.4070  110.6240 C.2   157  SER157      0.2642
    117  O         70.3990  -20.8940  109.5090 O.2   157  SER157     -0.2714
    118  CB        72.4330  -22.8950  110.9910 C.3   157  SER157      0.2130
    119  OG        72.8870  -24.0840  111.6050 O.3   157  SER157     -0.2179
    120  N         70.2610  -20.7390  111.7380 N.am  158  VAL158     -0.1977
    121  CA        69.9970  -19.3100  111.6670 C.3   158  VAL158      0.1596
    122  C         70.9480  -18.7250  112.6940 C.2   158  VAL158      0.2287
    123  O         71.0610  -19.2490  113.8070 O.2   158  VAL158     -0.2864
    124  CB        68.5330  -18.8890  112.0080 C.3   158  VAL158      0.0276
    125  CG1       68.1080  -19.4220  113.3590 C.3   158  VAL158      0.0022
    126  CG2       68.4540  -17.3520  112.0050 C.3   158  VAL158      0.0022
    127  N         61.6330  -17.2620  110.9290 N.3   169  VAL169     -0.1245
    128  CA        61.6120  -18.0160  109.6770 C.3   169  VAL169      0.1561
    129  C         60.2520  -18.6950  109.5250 C.2   169  VAL169      0.2260
    130  O         59.5390  -18.8990  110.5060 O.2   169  VAL169     -0.2867
    131  CB        62.7030  -19.1170  109.6340 C.3   169  VAL169      0.0252
    132  CG1       64.0540  -18.5310  109.9760 C.3   169  VAL169      0.0019
    133  CG2       62.3630  -20.2220  110.6000 C.3   169  VAL169      0.0019
    134  N         58.0930  -22.0740  108.1350 N.3   171  VAL171     -0.1245
    135  CA        58.3150  -23.5060  107.9910 C.3   171  VAL171      0.1561
    136  C         57.1100  -24.0980  107.2620 C.2   171  VAL171      0.2260
    137  O         55.9730  -23.7580  107.5590 O.2   171  VAL171     -0.2867
    138  CB        58.4520  -24.1410  109.3840 C.3   171  VAL171      0.0252
    139  CG1       58.1360  -25.5770  109.3260 C.3   171  VAL171      0.0019
    140  CG2       59.8370  -23.9100  109.9120 C.3   171  VAL171      0.0019
    141  N         55.4400  -30.0500  107.1470 N.3   174  MET174     -0.1245
    142  CA        56.4290  -31.1140  107.0090 C.3   174  MET174      0.1570
    143  C         56.1700  -32.5900  107.2980 C.2   174  MET174      0.2261
    144  O         57.0320  -33.4190  107.0040 O.2   174  MET174     -0.2867
    145  CB        57.6780  -30.6810  107.7870 C.3   174  MET174      0.0387
    146  CG        58.2270  -29.3280  107.3680 C.3   174  MET174      0.0595
    147  SD        59.5790  -28.8490  108.4030 S.3   174  MET174     -0.1393
    148  CE        60.7170  -30.1410  108.0720 C.3   174  MET174      0.0692
    149  N         48.5560  -33.2750  110.4350 N.3   180  TYR180     -0.1227
    150  CA        49.0920  -33.5810  111.7600 C.3   180  TYR180      0.1736
    151  C         47.8770  -34.1000  112.5270 C.2   180  TYR180      0.2596
    152  O         46.7630  -33.6280  112.2860 O.2   180  TYR180     -0.2718
    153  CB        49.6050  -32.3220  112.4880 C.3   180  TYR180      0.0548
    154  CG        50.7780  -31.6030  111.8540 C.ar  180  TYR180     -0.0200
    155  CD1       51.9830  -32.2640  111.5980 C.ar  180  TYR180     -0.0009
    156  CD2       50.6930  -30.2460  111.5340 C.ar  180  TYR180     -0.0009
    157  CE1       53.0850  -31.5770  111.0290 C.ar  180  TYR180      0.0417
    158  CE2       51.7820  -29.5520  110.9680 C.ar  180  TYR180      0.0417
    159  CZ        52.9740  -30.2210  110.7210 C.ar  180  TYR180      0.1957
    160  OH        54.0600  -29.5330  110.1990 O.3   180  TYR180     -0.2866
    161  N         48.0910  -35.0580  113.4340 N.am  181  SER181     -0.1938
    162  CA        47.0270  -35.6080  114.2710 C.3   181  SER181      0.2055
    163  C         47.1860  -35.1200  115.6960 C.2   181  SER181      0.2643
    164  O         48.2910  -35.1850  116.2400 O.2   181  SER181     -0.2714
    165  CB        47.0650  -37.1310  114.2920 C.3   181  SER181      0.2130
    166  OG        46.4790  -37.6480  113.1180 O.3   181  SER181     -0.2179
    167  N         46.0920  -34.6370  116.2950 N.am  182  PHE182     -0.1973
    168  CA        46.1450  -34.1750  117.6730 C.3   182  PHE182      0.1639
    169  C         45.4640  -35.1320  118.6670 C.2   182  PHE182      0.2290
    170  O         45.2930  -34.8250  119.8520 O.2   182  PHE182     -0.2864
    171  CB        45.6170  -32.7450  117.7470 C.3   182  PHE182      0.0560
    172  CG        46.4690  -31.7780  116.9720 C.ar  182  PHE182     -0.0200
    173  CD1       47.8190  -31.6020  117.3050 C.ar  182  PHE182     -0.0042
    174  CD2       45.9750  -31.1370  115.8370 C.ar  182  PHE182     -0.0042
    175  CE1       48.6640  -30.8140  116.5110 C.ar  182  PHE182     -0.0003
    176  CE2       46.8120  -30.3460  115.0350 C.ar  182  PHE182     -0.0003
    177  CZ        48.1560  -30.1900  115.3730 C.ar  182  PHE182     -0.0000
    178  N         54.7380  -36.6750  114.0410 N.3   204  ASN204     -0.1225
    179  CA        54.5310  -35.3030  114.5640 C.3   204  ASN204      0.1785
    180  C         55.8610  -34.7560  115.1610 C.2   204  ASN204      0.2597
    181  O         55.9660  -33.5820  115.5360 O.2   204  ASN204     -0.2718
    182  CB        53.4500  -35.3140  115.6670 C.3   204  ASN204      0.1169
    183  CG        52.0610  -34.9730  115.1520 C.2   204  ASN204      0.2627
    184  OD1       51.8080  -34.9300  113.9510 O.2   204  ASN204     -0.2716
    185  ND2       51.1490  -34.7410  116.0750 N.am  204  ASN204     -0.0877
    186  N         56.8480  -35.6470  115.2830 N.am  205  TYR205     -0.1962
    187  CA        58.1900  -35.3200  115.7840 C.3   205  TYR205      0.1771
    188  C         59.1400  -35.2110  114.5750 C.2   205  TYR205      0.2619
    189  O         59.4560  -36.2050  113.9220 O.2   205  TYR205     -0.2715
    190  CB        58.6880  -36.4070  116.7750 C.3   205  TYR205      0.0574
    191  CG        57.8540  -36.5020  118.0520 C.ar  205  TYR205     -0.0198
    192  CD1       57.2620  -35.3650  118.5990 C.ar  205  TYR205     -0.0009
    193  CD2       57.6310  -37.7240  118.6900 C.ar  205  TYR205     -0.0009
    194  CE1       56.4600  -35.4370  119.7310 C.ar  205  TYR205      0.0417
    195  CE2       56.8260  -37.8040  119.8400 C.ar  205  TYR205      0.0417
    196  CZ        56.2380  -36.6540  120.3460 C.ar  205  TYR205      0.1957
    197  OH        55.3700  -36.6980  121.4220 O.3   205  TYR205     -0.2866
    198  N         59.5870  -33.9940  114.2900 N.am  206  LEU206     -0.1977
    199  CA        60.4670  -33.7300  113.1560 C.3   206  LEU206      0.1596
    200  C         61.8820  -33.3360  113.5260 C.2   206  LEU206      0.2287
    201  O         62.6020  -32.7700  112.7080 O.2   206  LEU206     -0.2864
    202  CB        59.8540  -32.6440  112.2750 C.3   206  LEU206      0.0297
    203  CG        58.6770  -33.1910  111.4830 C.3   206  LEU206      0.0022
    204  CD1       57.5040  -32.2850  111.6190 C.3   206  LEU206      0.0001
    205  CD2       59.0930  -33.3650  110.0440 C.3   206  LEU206      0.0001
    206  N         65.9460  -28.6590  118.0080 N.3   209  LEU209     -0.1245
    207  CA        66.6540  -27.4060  117.7920 C.3   209  LEU209      0.1561
    208  C         67.8290  -27.4370  118.7700 C.2   209  LEU209      0.2260
    209  O         67.6720  -27.8090  119.9280 O.2   209  LEU209     -0.2867
    210  CB        65.7560  -26.1920  118.0940 C.3   209  LEU209      0.0270
    211  CG        64.6360  -25.8820  117.1090 C.3   209  LEU209      0.0019
    212  CD1       64.2230  -24.4240  117.2890 C.3   209  LEU209      0.0001
    213  CD2       65.1090  -26.1340  115.6770 C.3   209  LEU209      0.0001
@<TRIPOS>BOND
     1   144   143    2
     2   142   141    1
     3   142   143    1
     4   142   145    1
     5   136   137    2
     6   136   135    1
     7   146   145    1
     8   146   147    1
     9   112   113    1
    10   112   111    1
    11   135   134    1
    12   135   138    1
    13   148   147    1
    14   113   107    1
    15   111   108    1
    16   108   107    1
    17   108   109    1
    18    51    52    1
    19    53    52    1
    20    53    54    2
    21    52    55    1
    22   139   138    1
    23   138   140    1
    24   117   116    2
    25    62    63    1
    26   129   128    1
    27   129   130    2
    28   114   109   am
    29   114   115    1
    30   131   128    1
    31   131   132    1
    32   131   133    1
    33   109   110    2
    34   128   127    1
    35    55    56    1
    36    65    64    2
    37   205   203    1
    38   105   103   ar
    39   105   106   ar
    40   160   159    1
    41   103   101   ar
    42   149   150    1
    43   116   115    1
    44   116   120   am
    45    64    63    1
    46   159   158   ar
    47   159   157   ar
    48    63    66    1
    49   115   118    1
    50   158   156   ar
    51   118   119    1
    52   157   155   ar
    53   106   104   ar
    54    56    57   ar
    55    56    58   ar
    56   203   204    1
    57   203   202    1
    58   156   154   ar
    59    57    59   ar
    60   155   154   ar
    61    99    98    2
    62   121   120    1
    63   121   124    1
    64   121   122    1
    65   101   100    1
    66   101   102   ar
    67   150   153    1
    68   150   151    1
    69    58    60   ar
    70    66    67    1
    71   154   153    1
    72   126   124    1
    73   124   125    1
    74   100    97    1
    75   202   199    1
    76   152   151    2
    77   104   102   ar
    78    67    68    1
    79   151   161   am
    80   122   123    2
    81   201   200    2
    82    98    97    1
    83    59    61   ar
    84    70    71    1
    85    60    61   ar
    86   166   165    1
    87    97    96    1
    88   199   200    1
    89   199   198    1
    90   161   162    1
    91    77    79   ar
    92    77    75   ar
    93    73    72    2
    94    92    91    2
    95    68    69    1
    96   189   188    2
    97   184   183    2
    98   178   179    1
    99    79    80   ar
   100    74    71    1
   101    74    75    1
   102    71    72    1
   103   162   165    1
   104   162   163    1
   105   198   188   am
   106   179   180    1
   107   179   182    1
   108   188   187    1
   109    75    76   ar
   110    91    90    1
   111   176   177   ar
   112   176   174   ar
   113   183   182    1
   114   183   185   am
   115   180   186   am
   116   180   181    2
   117   186   187    1
   118    80    78   ar
   119   177   175   ar
   120     8     6    1
   121   213   211    1
   122   163   164    2
   123   163   167   am
   124   187   190    1
   125   174   172   ar
   126    76    78   ar
   127    89    90    1
   128    90    93    1
   129    93    94    1
   130    93    95    1
   131   167   168    1
   132   175   173   ar
   133    88    86    1
   134    50    48    1
   135   190   191    1
   136     7     5    1
   137   172   173   ar
   138   172   171    1
   139     6     5    1
   140   211   212    1
   141   211   210    1
   142    26    27   ar
   143    26    24   ar
   144    86    85    1
   145    27    25   ar
   146    81    82    1
   147     5     2    1
   148   168   171    1
   149   168   169    1
   150    46    45    2
   151   207   206    1
   152   207   210    1
   153   207   208    1
   154    85    82    1
   155    85    87    1
   156   191   192   ar
   157   191   193   ar
   158    48    49    1
   159    48    47    1
   160    24    22   ar
   161    82    83    1
   162     4     3    2
   163    84    83    2
   164    25    23   ar
   165    47    44    1
   166    44    45    1
   167    44    43    1
   168   192   194   ar
   169   169   170    2
   170   193   195   ar
   171   208   209    2
   172     2     3    1
   173     2     1    1
   174     3     9   am
   175    22    23   ar
   176    22    21    1
   177   194   196   ar
   178   195   196   ar
   179     9    10    1
   180   196   197    1
   181    10    11    1
   182    10    13    1
   183    21    18    1
   184    17    11   am
   185    17    18    1
   186    11    12    2
   187    13    14    1
   188    18    19    1
   189    16    14   am
   190    35    34    2
   191    14    15    2
   192    19    20    2
   193    19    28   am
   194    33    34    1
   195    33    32    1
   196    33    36    1
   197    28    29    1
   198    36    37    1
   199    37    38    1
   200    29    30    1
   201    38    39    1
   202    39    40    2
   203    30    31    2
   204    40    42    1
   205    40    41    1
