@<TRIPOS>MOLECULE
tmp/5osqB01.pdb
 78 72 0 0 0
SMALL
GASTEIGER

@<TRIPOS>ATOM
      1  N        123.5520   60.6660   12.3870 N.3    22  GLU22      -0.1231
      2  CA       123.5120   62.1070   12.6490 C.3    22  GLU22       0.1699
      3  C        124.4410   62.4650   13.8050 C.2    22  GLU22       0.2592
      4  O        125.2010   63.4470   13.7430 O.2    22  GLU22      -0.2718
      5  CB       122.0810   62.5570   12.9610 C.3    22  GLU22       0.0402
      6  CG       121.0820   62.3300   11.8400 C.3    22  GLU22       0.1161
      7  CD       119.6740   62.7670   12.2070 C.2    22  GLU22       0.3649
      8  OE1      119.5290   63.7050   13.0210 O.co2  22  GLU22      -0.2457
      9  OE2      118.7120   62.1580   11.6870 O.co2  22  GLU22      -0.2457
     10  N        124.3750   61.6750   14.8780 N.am   23  VAL23      -0.1980
     11  CA       125.2940   61.8620   16.0020 C.3    23  VAL23       0.1595
     12  C        126.7390   61.7610   15.5240 C.2    23  VAL23       0.2287
     13  O        127.5960   62.5750   15.8970 O.2    23  VAL23      -0.2864
     14  CB       124.9950   60.8400   17.1170 C.3    23  VAL23       0.0276
     15  CG1      125.9940   60.9770   18.2700 C.3    23  VAL23       0.0022
     16  CG2      123.5730   61.0170   17.6300 C.3    23  VAL23       0.0022
     17  N        127.8240   64.9520   13.7200 N.3    26  LYS26      -0.1245
     18  CA       128.2150   65.9880   14.6700 C.3    26  LYS26       0.1561
     19  C        129.6050   65.7010   15.2270 C.2    26  LYS26       0.2260
     20  O        130.4460   66.6040   15.3470 O.2    26  LYS26      -0.2867
     21  CB       127.1870   66.1060   15.7920 C.3    26  LYS26       0.0271
     22  CG       127.5450   67.1670   16.8230 C.3    26  LYS26       0.0035
     23  CD       126.4640   67.3030   17.8730 C.3    26  LYS26       0.0206
     24  CE       126.7260   68.4730   18.8210 C.3    26  LYS26       0.1093
     25  NZ       125.4880   68.8930   19.5660 N.3    26  LYS26      -0.1314
     26  N        132.9480   68.1580   14.8350 N.3    30  ASP30      -0.1239
     27  CA       133.6990   68.6880   15.9710 C.3    30  ASP30       0.1674
     28  C        135.1490   68.2160   15.9760 C.2    30  ASP30       0.2266
     29  O        136.0350   68.9550   16.4270 O.2    30  ASP30      -0.2867
     30  CB       133.0120   68.3020   17.2820 C.3    30  ASP30       0.1410
     31  CG       131.6800   69.0150   17.4780 C.2    30  ASP30       0.3668
     32  OD1      131.2300   69.7070   16.5390 O.co2  30  ASP30      -0.2456
     33  OD2      131.0830   68.8770   18.5670 O.co2  30  ASP30      -0.2456
     34  N        130.2600   61.4370   25.4160 N.3   282  ASN282     -0.1225
     35  CA       129.9960   62.8570   25.2680 C.3   282  ASN282      0.1785
     36  C        129.1570   63.2020   24.0510 C.2   282  ASN282      0.2597
     37  O        128.7150   64.3480   23.9340 O.2   282  ASN282     -0.2718
     38  CB       131.3160   63.6300   25.2030 C.3   282  ASN282      0.1169
     39  CG       132.1960   63.3880   26.4210 C.2   282  ASN282      0.2627
     40  OD1      133.4100   63.2510   26.2910 O.2   282  ASN282     -0.2716
     41  ND2      131.5890   63.3220   27.6080 N.am  282  ASN282     -0.0877
     42  N        128.8870   62.2490   23.1660 N.am  283  TYR283     -0.1976
     43  CA       128.0550   62.5360   22.0060 C.3   283  TYR283      0.1639
     44  C        126.7620   61.7390   22.0360 C.2   283  TYR283      0.2290
     45  O        125.6820   62.3370   22.0630 O.2   283  TYR283     -0.2864
     46  CB       128.8530   62.2850   20.7230 C.3   283  TYR283      0.0560
     47  CG       129.7890   63.4320   20.4760 C.ar  283  TYR283     -0.0198
     48  CD1      130.9290   63.5810   21.2450 C.ar  283  TYR283     -0.0009
     49  CD2      129.5090   64.3960   19.5220 C.ar  283  TYR283     -0.0009
     50  CE1      131.7820   64.6400   21.0540 C.ar  283  TYR283      0.0417
     51  CE2      130.3550   65.4570   19.3210 C.ar  283  TYR283      0.0417
     52  CZ       131.4920   65.5750   20.0910 C.ar  283  TYR283      0.1957
     53  OH       132.3440   66.6310   19.9000 O.3   283  TYR283     -0.2866
     54  N        124.0030   61.6960   25.5850 N.3   286  THR286     -0.1218
     55  CA       123.5600   63.0200   25.9830 C.3   286  THR286      0.1862
     56  C        122.0950   63.1600   25.6110 C.2   286  THR286      0.2287
     57  O        121.5500   62.3600   24.8500 O.2   286  THR286     -0.2866
     58  CB       124.3690   64.1120   25.2920 C.3   286  THR286      0.1770
     59  OG1      124.1300   64.0370   23.8860 O.3   286  THR286     -0.2211
     60  CG2      125.8680   63.9400   25.5690 C.3   286  THR286      0.0375
     61  N        120.8710   65.3610   23.6150 N.3   288  GLU288     -0.1231
     62  CA       120.8210   65.6070   22.1780 C.3   288  GLU288      0.1699
     63  C        121.0630   64.3210   21.3990 C.2   288  GLU288      0.2592
     64  O        120.3480   64.0170   20.4370 O.2   288  GLU288     -0.2718
     65  CB       121.8550   66.6700   21.8070 C.3   288  GLU288      0.0402
     66  CG       121.7710   67.9450   22.6580 C.3   288  GLU288      0.1161
     67  CD       122.6490   67.8830   23.9100 C.2   288  GLU288      0.3649
     68  OE1      123.8750   67.6690   23.7760 O.co2 288  GLU288     -0.2457
     69  OE2      122.1070   68.0290   25.0290 O.co2 288  GLU288     -0.2457
     70  N        122.0670   63.5450   21.8020 N.am  289  GLY289     -0.1957
     71  CA       122.3840   62.3330   21.0620 C.3   289  GLY289      0.1869
     72  C        121.2690   61.3080   21.1300 C.2   289  GLY289      0.2309
     73  O        120.8290   60.7700   20.1050 O.2   289  GLY289     -0.2863
     74  N        118.4120   62.3720   19.0230 N.3   292  ALA292     -0.1245
     75  CA       118.6000   62.1230   17.5990 C.3   292  ALA292      0.1562
     76  C        118.3010   60.6680   17.2600 C.2   292  ALA292      0.2260
     77  O        117.6390   60.3770   16.2570 O.2   292  ALA292     -0.2867
     78  CB       120.0200   62.5010   17.1820 C.3   292  ALA292      0.0290
@<TRIPOS>BOND
     1     9     7   ar
     2     6     7    1
     3     6     5    1
     4     7     8   ar
     5     1     2    1
     6     2     5    1
     7     2     3    1
     8    17    18    1
     9     4     3    2
    10     3    10   am
    11    18    19    1
    12    18    21    1
    13    26    27    1
    14    10    11    1
    15    19    20    2
    16    12    13    2
    17    12    11    1
    18    21    22    1
    19    27    28    1
    20    27    30    1
    21    28    29    2
    22    11    14    1
    23    77    76    2
    24    32    31   ar
    25    22    23    1
    26    14    16    1
    27    14    15    1
    28    78    75    1
    29    76    75    1
    30    30    31    1
    31    31    33   ar
    32    75    74    1
    33    23    24    1
    34    24    25    1
    35    51    49   ar
    36    51    52   ar
    37    49    47   ar
    38    53    52    1
    39    52    50   ar
    40    73    72    2
    41    64    63    2
    42    47    46    1
    43    47    48   ar
    44    46    43    1
    45    50    48   ar
    46    71    72    1
    47    71    70    1
    48    63    70   am
    49    63    62    1
    50    65    62    1
    51    65    66    1
    52    43    44    1
    53    43    42    1
    54    44    45    2
    55    62    61    1
    56    66    67    1
    57    42    36   am
    58    68    67   ar
    59    59    58    1
    60    67    69   ar
    61    37    36    2
    62    36    35    1
    63    57    56    2
    64    38    35    1
    65    38    39    1
    66    35    34    1
    67    58    60    1
    68    58    55    1
    69    54    55    1
    70    56    55    1
    71    40    39    2
    72    39    41   am
