@<TRIPOS>MOLECULE
tmp/5osrA01.pdb
 169 162 0 0 0
SMALL
GASTEIGER

@<TRIPOS>ATOM
      1  N       -119.6090 -173.0850  313.0160 N.3   116  ASN116     -0.1225
      2  CA      -118.3280 -173.1010  312.3100 C.3   116  ASN116      0.1785
      3  C       -117.8920 -171.7190  311.8760 C.2   116  ASN116      0.2597
      4  O       -118.5980 -171.0250  311.1350 O.2   116  ASN116     -0.2718
      5  CB      -118.3200 -174.1060  311.1370 C.3   116  ASN116      0.1169
      6  CG      -117.0940 -174.0950  310.2150 C.2   116  ASN116      0.2627
      7  OD1     -117.2160 -173.8860  309.0000 O.2   116  ASN116     -0.2716
      8  ND2     -115.8840 -174.3320  310.7420 N.am  116  ASN116     -0.0877
      9  N       -116.7120 -171.3230  312.3640 N.am  117  THR117     -0.1953
     10  CA      -116.0470 -170.0670  312.0240 C.3   117  THR117      0.1897
     11  C       -115.6520 -170.1880  310.5640 C.2   117  THR117      0.2313
     12  O       -115.2870 -171.2820  310.1220 O.2   117  THR117     -0.2863
     13  CB      -114.8320 -169.8750  312.9360 C.3   117  THR117      0.1794
     14  OG1     -115.2560 -170.0000  314.2970 O.3   117  THR117     -0.2208
     15  CG2     -114.1260 -168.5400  312.7190 C.3   117  THR117      0.0378
     16  N       -113.9260 -170.5160  307.1020 N.3   119  PHE119     -0.1241
     17  CA      -112.6900 -171.2040  306.7130 C.3   119  PHE119      0.1605
     18  C       -111.5670 -170.2340  306.3080 C.2   119  PHE119      0.2264
     19  O       -110.4080 -170.4530  306.6810 O.2   119  PHE119     -0.2867
     20  CB      -112.9560 -172.2650  305.6260 C.3   119  PHE119      0.0534
     21  CG      -113.6290 -171.7790  304.3570 C.ar  119  PHE119     -0.0203
     22  CD1     -115.0160 -171.7010  304.2690 C.ar  119  PHE119     -0.0042
     23  CD2     -112.8770 -171.4390  303.2370 C.ar  119  PHE119     -0.0042
     24  CE1     -115.6340 -171.2530  303.0960 C.ar  119  PHE119     -0.0003
     25  CE2     -113.4980 -170.9910  302.0640 C.ar  119  PHE119     -0.0003
     26  CZ      -114.8720 -170.9060  302.0010 C.ar  119  PHE119     -0.0000
     27  N       -110.4720 -168.5380  309.5590 N.3   122  LEU122     -0.1231
     28  CA      -109.5900 -169.4040  310.3200 C.3   122  LEU122      0.1693
     29  C       -108.2180 -169.5180  309.6220 C.2   122  LEU122      0.2592
     30  O       -107.2050 -169.2720  310.2520 O.2   122  LEU122     -0.2718
     31  CB      -110.2060 -170.8020  310.5420 C.3   122  LEU122      0.0284
     32  CG      -111.3360 -170.9130  311.5620 C.3   122  LEU122      0.0019
     33  CD1     -112.1330 -172.1700  311.3310 C.3   122  LEU122      0.0001
     34  CD2     -110.8140 -170.9220  312.9850 C.3   122  LEU122      0.0001
     35  N       -108.1890 -169.8670  308.3360 N.am  123  TYR123     -0.1976
     36  CA      -106.9220 -170.0050  307.5800 C.3   123  TYR123      0.1639
     37  C       -106.0350 -168.7430  307.6960 C.2   123  TYR123      0.2290
     38  O       -104.8130 -168.8230  307.9040 O.2   123  TYR123     -0.2864
     39  CB      -107.2210 -170.3660  306.1080 C.3   123  TYR123      0.0560
     40  CG      -105.9650 -170.6340  305.3040 C.ar  123  TYR123     -0.0198
     41  CD1     -105.3910 -171.9000  305.2730 C.ar  123  TYR123     -0.0009
     42  CD2     -105.3080 -169.6040  304.6400 C.ar  123  TYR123     -0.0009
     43  CE1     -104.1780 -172.1290  304.6300 C.ar  123  TYR123      0.0417
     44  CE2     -104.1200 -169.8330  303.9480 C.ar  123  TYR123      0.0417
     45  CZ      -103.5540 -171.0950  303.9550 C.ar  123  TYR123      0.1957
     46  OH      -102.3850 -171.3170  303.2740 O.3   123  TYR123     -0.2866
     47  N       -105.5340 -167.9680  312.2900 N.3   126  LEU126     -0.1245
     48  CA      -105.0440 -168.8650  313.3350 C.3   126  LEU126      0.1561
     49  C       -103.5550 -168.5940  313.5970 C.2   126  LEU126      0.2260
     50  O       -102.7600 -168.4330  312.6650 O.2   126  LEU126     -0.2867
     51  CB      -105.2850 -170.3530  313.0020 C.3   126  LEU126      0.0270
     52  CG      -106.7210 -170.8540  313.1280 C.3   126  LEU126      0.0019
     53  CD1     -106.8330 -172.3330  312.7170 C.3   126  LEU126      0.0001
     54  CD2     -107.2680 -170.6740  314.5320 C.3   126  LEU126      0.0001
     55  N       -102.7820 -173.2510  315.7290 N.3   131  ILE131     -0.1245
     56  CA      -102.5740 -174.3780  314.8060 C.3   131  ILE131      0.1561
     57  C       -102.1810 -175.6270  315.6000 C.2   131  ILE131      0.2260
     58  O       -102.7450 -176.7010  315.3570 O.2   131  ILE131     -0.2867
     59  CB      -101.5200 -174.0400  313.7490 C.3   131  ILE131      0.0252
     60  CG1     -101.9810 -172.8270  312.8960 C.3   131  ILE131      0.0019
     61  CG2     -101.1760 -175.2820  312.8700 C.3   131  ILE131      0.0019
     62  CD1     -100.8180 -172.2320  312.1060 C.3   131  ILE131      0.0001
     63  N       -105.3530 -176.8720  317.6120 N.3   134  TYR134     -0.1227
     64  CA      -106.3630 -177.5460  316.7850 C.3   134  TYR134      0.1736
     65  C       -105.8330 -178.8200  316.1480 C.2   134  TYR134      0.2595
     66  O       -106.5770 -179.8030  316.0550 O.2   134  TYR134     -0.2718
     67  CB      -107.0140 -176.6070  315.7840 C.3   134  TYR134      0.0548
     68  CG      -107.9240 -175.5900  316.4540 C.ar  134  TYR134     -0.0200
     69  CD1     -108.9740 -175.9980  317.2730 C.ar  134  TYR134     -0.0009
     70  CD2     -107.7250 -174.2240  316.2790 C.ar  134  TYR134     -0.0009
     71  CE1     -109.8360 -175.0750  317.8630 C.ar  134  TYR134      0.0417
     72  CE2     -108.6110 -173.2880  316.8310 C.ar  134  TYR134      0.0417
     73  CZ      -109.6310 -173.7190  317.6640 C.ar  134  TYR134      0.1957
     74  OH      -110.4930 -172.8130  318.2350 O.3   134  TYR134     -0.2866
     75  N       -104.5440 -178.8530  315.7850 N.am  135  MET135     -0.1979
     76  CA      -103.9700 -180.0930  315.2590 C.3   135  MET135      0.1605
     77  C       -104.0880 -181.2030  316.3170 C.2   135  MET135      0.2287
     78  O       -104.4220 -182.3350  315.9680 O.2   135  MET135     -0.2864
     79  CB      -102.4970 -179.9000  314.8660 C.3   135  MET135      0.0413
     80  CG      -102.3110 -179.1390  313.5600 C.3   135  MET135      0.0598
     81  SD      -102.7640 -180.1260  312.1050 S.3   135  MET135     -0.1393
     82  CE      -101.4630 -181.3170  312.1360 C.3   135  MET135      0.0692
     83  N       -107.6230 -182.4850  316.3610 N.3   138  ILE138     -0.1245
     84  CA      -107.8910 -183.3850  315.2200 C.3   138  ILE138      0.1561
     85  C       -107.2730 -184.7520  315.5310 C.2   138  ILE138      0.2260
     86  O       -107.8910 -185.7890  315.2900 O.2   138  ILE138     -0.2867
     87  CB      -107.3730 -182.8380  313.8580 C.3   138  ILE138      0.0252
     88  CG1     -108.0330 -181.4800  313.5310 C.3   138  ILE138      0.0019
     89  CG2     -107.6770 -183.8680  312.7280 C.3   138  ILE138      0.0019
     90  CD1     -107.3910 -180.7090  312.3010 C.3   138  ILE138      0.0001
     91  N       -109.8490 -179.5960  305.3210 N.3   157  PRO157     -0.2102
     92  CA      -110.4120 -178.5160  306.1440 C.3   157  PRO157      0.1504
     93  C       -111.9230 -178.3970  306.1460 C.2   157  PRO157      0.2575
     94  O       -112.4940 -178.1690  307.2130 O.2   157  PRO157     -0.2718
     95  CB      -109.7440 -177.2670  305.5700 C.3   157  PRO157      0.0282
     96  CG      -108.3870 -177.7730  305.1090 C.3   157  PRO157      0.0208
     97  CD      -108.7430 -179.0960  304.4630 C.3   157  PRO157      0.0893
     98  N       -112.5670 -178.6400  304.9990 N.am  158  HIS158     -0.1976
     99  CA      -114.0370 -178.5680  304.9100 C.3   158  HIS158      0.1656
    100  C       -114.7410 -179.6090  305.7780 C.2   158  HIS158      0.2291
    101  O       -115.9090 -179.4310  306.1170 O.2   158  HIS158     -0.2864
    102  CB      -114.5200 -178.6200  303.4530 C.3   158  HIS158      0.0771
    103  CG      -114.4400 -177.2950  302.7490 C.ar  158  HIS158      0.0820
    104  ND1     -114.5450 -177.2060  301.3640 N.ar  158  HIS158     -0.2267
    105  CD2     -114.2720 -176.0450  303.2550 C.ar  158  HIS158      0.1154
    106  CE1     -114.4290 -175.9140  301.0760 C.ar  158  HIS158      0.1986
    107  NE2     -114.2600 -175.1770  302.1770 N.ar  158  HIS158     -0.2212
    108  N       -113.6750 -180.3950  308.8510 N.3   160  VAL160     -0.1231
    109  CA      -113.3210 -180.0930  310.2400 C.3   160  VAL160      0.1692
    110  C       -114.0690 -178.8260  310.6120 C.2   160  VAL160      0.2592
    111  O       -113.8030 -177.7750  310.0520 O.2   160  VAL160     -0.2718
    112  CB      -111.7960 -179.9320  310.4270 C.3   160  VAL160      0.0266
    113  CG1     -111.4740 -179.5990  311.8850 C.3   160  VAL160      0.0020
    114  CG2     -111.0640 -181.2170  309.9980 C.3   160  VAL160      0.0020
    115  N       -115.0570 -178.9440  311.4840 N.am  161  MET161     -0.1965
    116  CA      -115.8430 -177.7960  311.9330 C.3   161  MET161      0.1736
    117  C       -115.1450 -177.2160  313.1430 C.2   161  MET161      0.2616
    118  O       -114.8550 -177.9560  314.0850 O.2   161  MET161     -0.2715
    119  CB      -117.2770 -178.2460  312.3110 C.3   161  MET161      0.0427
    120  CG      -118.0610 -178.8380  311.1420 C.3   161  MET161      0.0599
    121  SD      -118.6640 -177.6150  309.9760 S.3   161  MET161     -0.1393
    122  CE      -117.3960 -177.7130  308.6400 C.3   161  MET161      0.0692
    123  N       -114.8710 -175.9030  313.1390 N.am  162  ILE162     -0.1977
    124  CA      -114.2600 -175.2600  314.3000 C.3   162  ILE162      0.1596
    125  C       -115.1510 -174.1100  314.7680 C.2   162  ILE162      0.2287
    126  O       -115.4150 -173.1790  314.0070 O.2   162  ILE162     -0.2864
    127  CB      -112.7980 -174.7620  314.0430 C.3   162  ILE162      0.0276
    128  CG1     -111.8640 -175.9410  313.7180 C.3   162  ILE162      0.0022
    129  CG2     -112.2590 -173.9940  315.2690 C.3   162  ILE162      0.0022
    130  CD1     -110.4460 -175.5590  313.2960 C.3   162  ILE162      0.0001
    131  N       -102.8500 -180.8050  305.2190 N.3   219  MET219     -0.1230
    132  CA      -103.4940 -179.6490  305.8790 C.3   219  MET219      0.1702
    133  C       -102.4360 -178.8090  306.6140 C.2   219  MET219      0.2592
    134  O       -102.4310 -177.5700  306.4870 O.2   219  MET219     -0.2718
    135  CB      -104.5500 -180.1300  306.9020 C.3   219  MET219      0.0401
    136  CG      -105.7910 -180.6400  306.2430 C.3   219  MET219      0.0596
    137  SD      -107.0050 -181.2260  307.4830 S.3   219  MET219     -0.1393
    138  CE      -107.2640 -179.8030  308.4740 C.3   219  MET219      0.0692
    139  N       -101.5760 -179.4730  307.4040 N.am  220  LEU220     -0.1980
    140  CA      -100.5680 -178.7770  308.1830 C.3   220  LEU220      0.1596
    141  C        -99.6210 -178.0030  307.2850 C.2   220  LEU220      0.2287
    142  O        -99.3620 -176.8370  307.5490 O.2   220  LEU220     -0.2864
    143  CB       -99.8200 -179.7510  309.0680 C.3   220  LEU220      0.0297
    144  CG       -98.7590 -179.1020  309.9590 C.3   220  LEU220      0.0022
    145  CD1      -99.4150 -178.1500  310.9600 C.3   220  LEU220      0.0001
    146  CD2      -97.9320 -180.1680  310.6750 C.3   220  LEU220      0.0001
    147  N       -100.0790 -176.7320  304.2430 N.3   222  SER222     -0.1202
    148  CA      -100.7180 -175.5360  303.6540 C.3   222  SER222      0.2020
    149  C       -100.7960 -174.4450  304.7140 C.2   222  SER222      0.2618
    150  O       -100.3990 -173.3080  304.4730 O.2   222  SER222     -0.2717
    151  CB      -102.1310 -175.8590  303.1850 C.3   222  SER222      0.2103
    152  OG      -102.7960 -174.6550  302.8190 O.3   222  SER222     -0.2182
    153  N       -101.2510 -174.8280  305.9000 N.am  223  MET223     -0.1979
    154  CA      -101.4040 -173.8680  306.9990 C.3   223  MET223      0.1605
    155  C       -100.1190 -173.1590  307.5000 C.2   223  MET223      0.2287
    156  O       -100.1030 -171.9350  307.6010 O.2   223  MET223     -0.2864
    157  CB      -102.1190 -174.5360  308.1790 C.3   223  MET223      0.0413
    158  CG      -102.3440 -173.6410  309.3860 C.3   223  MET223      0.0598
    159  SD      -103.5480 -172.3290  309.0980 S.3   223  MET223     -0.1393
    160  CE      -104.7890 -173.2190  308.1870 C.3   223  MET223      0.0692
    161  N       -101.7810 -172.6510  299.7710 N.3   228  GLU228     -0.1245
    162  CA      -103.0540 -173.3320  299.6450 C.3   228  GLU228      0.1567
    163  C       -103.3650 -173.7580  298.1950 C.2   228  GLU228      0.2260
    164  O       -103.5750 -172.8920  297.3440 O.2   228  GLU228     -0.2867
    165  CB      -104.1700 -172.4090  300.2110 C.3   228  GLU228      0.0388
    166  CG      -105.5930 -172.9050  300.0330 C.3   228  GLU228      0.1160
    167  CD      -105.9850 -174.1480  300.8040 C.2   228  GLU228      0.3649
    168  OE1     -106.7500 -174.9660  300.2450 O.co2 228  GLU228     -0.2457
    169  OE2     -105.5490 -174.2980  301.9690 O.co2 228  GLU228     -0.2457
@<TRIPOS>BOND
     1   164   163    2
     2   163   162    1
     3   162   161    1
     4   162   165    1
     5   166   165    1
     6   166   167    1
     7   168   167   ar
     8   167   169   ar
     9   106   104   ar
    10   106   107   ar
    11   104   103   ar
    12    26    25   ar
    13    26    24   ar
    14    25    23   ar
    15   107   105   ar
    16   103   105   ar
    17   103   102    1
    18   152   151    1
    19    24    22   ar
    20   151   148    1
    21    23    21   ar
    22    46    45    1
    23   102    99    1
    24   148   147    1
    25   148   149    1
    26    44    45   ar
    27    44    42   ar
    28    45    43   ar
    29    22    21   ar
    30    21    20    1
    31    97    96    1
    32    97    91    1
    33   150   149    2
    34    43    41   ar
    35    42    40   ar
    36   149   153   am
    37    99    98    1
    38    99   100    1
    39    98    93   am
    40    96    95    1
    41   131   132    1
    42    41    40   ar
    43    40    39    1
    44    91    92    1
    45    95    92    1
    46    20    17    1
    47   100   101    2
    48   132   133    1
    49   132   135    1
    50   153   154    1
    51    39    36    1
    52    92    93    1
    53    93    94    2
    54   136   135    1
    55   136   137    1
    56    18    19    2
    57    18    17    1
    58   134   133    2
    59   133   139   am
    60    17    16    1
    61   154   155    1
    62   154   157    1
    63   141   142    2
    64   141   140    1
    65   139   140    1
    66   137   138    1
    67   155   156    2
    68    36    37    1
    69    36    35    1
    70    37    38    2
    71   157   158    1
    72   140   143    1
    73   160   159    1
    74    35    29   am
    75   122   121    1
    76   108   109    1
    77     7     6    2
    78   143   144    1
    79   159   158    1
    80    27    28    1
    81    29    30    2
    82    29    28    1
    83   144   146    1
    84   144   145    1
    85   121   120    1
    86   114   112    1
    87   111   110    2
    88    12    11    2
    89     6     8   am
    90     6     5    1
    91   109   112    1
    92   109   110    1
    93    28    31    1
    94   112   113    1
    95    31    32    1
    96    11    10    1
    97   110   115   am
    98     4     3    2
    99     5     2    1
   100   120   119    1
   101    33    32    1
   102   115   116    1
   103    32    34    1
   104     3     2    1
   105     3     9   am
   106   116   119    1
   107   116   117    1
   108    10     9    1
   109    10    13    1
   110    81    82    1
   111    81    80    1
   112    62    60    1
   113    47    48    1
   114    90    88    1
   115     2     1    1
   116    50    49    2
   117    53    52    1
   118    15    13    1
   119    89    87    1
   120    61    59    1
   121    60    59    1
   122    13    14    1
   123    51    52    1
   124    51    48    1
   125    52    54    1
   126   123   117   am
   127   123   124    1
   128   117   118    2
   129   130   128    1
   130    48    49    1
   131    88    87    1
   132    80    79    1
   133   128   127    1
   134    59    56    1
   135    87    84    1
   136   126   125    2
   137   127   124    1
   138   127   129    1
   139   124   125    1
   140    56    57    1
   141    56    55    1
   142    79    76    1
   143    84    85    1
   144    84    83    1
   145    76    75    1
   146    76    77    1
   147    86    85    2
   148    58    57    2
   149    67    68    1
   150    67    64    1
   151    75    65   am
   152    78    77    2
   153    66    65    2
   154    65    64    1
   155    70    68   ar
   156    70    72   ar
   157    68    69   ar
   158    64    63    1
   159    72    73   ar
   160    69    71   ar
   161    73    71   ar
   162    73    74    1
