@<TRIPOS>MOLECULE
tmp/5ossB00.pdb
 148 148 0 0 0
SMALL
GASTEIGER

@<TRIPOS>ATOM
      1  N        -17.0520  -32.3960  -14.9260 N.3    18  GLN18      -0.1245
      2  CA       -17.6760  -31.1060  -14.8220 C.3    18  GLN18       0.1566
      3  C        -17.2080  -30.1210  -15.9460 C.2    18  GLN18       0.2260
      4  O        -17.9920  -29.2450  -16.3300 O.2    18  GLN18      -0.2867
      5  CB       -17.4830  -30.5260  -13.4560 C.3    18  GLN18       0.0367
      6  CG       -18.1920  -31.3460  -12.3590 C.3    18  GLN18       0.0905
      7  CD       -18.2370  -30.6560  -11.0460 C.2    18  GLN18       0.2608
      8  OE1      -17.4070  -30.9320  -10.1760 O.2    18  GLN18      -0.2717
      9  NE2      -19.2130  -29.7710  -10.8610 N.am   18  GLN18      -0.0878
     10  N        -13.1700  -38.2040   -8.5680 N.3   119  HIS119     -0.1226
     11  CA       -14.1880  -37.1770   -8.3510 C.3   119  HIS119      0.1752
     12  C        -15.4840  -37.5510   -9.0820 C.2   119  HIS119      0.2596
     13  O        -16.0450  -36.7660   -9.8310 O.2   119  HIS119     -0.2718
     14  CB       -13.6440  -35.7790   -8.7960 C.3   119  HIS119      0.0759
     15  CG       -14.3600  -34.6090   -8.2160 C.ar  119  HIS119      0.0818
     16  ND1      -13.6620  -33.5580   -7.6360 N.ar  119  HIS119     -0.2268
     17  CD2      -15.6640  -34.2590   -8.1510 C.ar  119  HIS119      0.1154
     18  CE1      -14.5170  -32.6580   -7.2100 C.ar  119  HIS119      0.1986
     19  NE2      -15.7460  -33.0410   -7.5320 N.ar  119  HIS119     -0.2212
     20  N        -15.9120  -38.8070   -8.8190 N.am  120  TRP120     -0.1976
     21  CA       -17.3100  -39.3060   -8.9750 C.3   120  TRP120      0.1640
     22  C        -17.6210  -39.9680  -10.2950 C.2   120  TRP120      0.2290
     23  O        -18.7280  -40.4670  -10.4830 O.2   120  TRP120     -0.2864
     24  CB       -18.3380  -38.2480   -8.6760 C.3   120  TRP120      0.0576
     25  CG       -18.2020  -37.4960   -7.4150 C.ar  120  TRP120      0.0006
     26  CD1      -17.3390  -37.7560   -6.3340 C.ar  120  TRP120      0.0946
     27  CD2      -18.9810  -36.3440   -7.0360 C.ar  120  TRP120      0.0152
     28  NE1      -17.5540  -36.8110   -5.3600 N.ar  120  TRP120     -0.2442
     29  CE2      -18.5530  -35.9540   -5.7300 C.ar  120  TRP120      0.0810
     30  CE3      -20.0590  -35.6580   -7.6310 C.ar  120  TRP120      0.0012
     31  CZ2      -19.1190  -34.9080   -5.0500 C.ar  120  TRP120      0.0191
     32  CZ3      -20.6250  -34.5810   -6.9370 C.ar  120  TRP120      0.0001
     33  CH2      -20.1460  -34.2250   -5.6520 C.ar  120  TRP120      0.0015
     34  N        -12.7500  -37.5420   -3.5160 N.3   163  ASN163     -0.1225
     35  CA       -13.5110  -36.3680   -3.2420 C.3   163  ASN163      0.1785
     36  C        -14.8560  -36.6930   -2.6150 C.2   163  ASN163      0.2597
     37  O        -15.7380  -37.2190   -3.2850 O.2   163  ASN163     -0.2718
     38  CB       -13.7350  -35.5120   -4.5210 C.3   163  ASN163      0.1169
     39  CG       -14.4750  -34.2310   -4.2640 C.2   163  ASN163      0.2627
     40  OD1      -13.9000  -33.2920   -3.7060 O.2   163  ASN163     -0.2716
     41  ND2      -15.7650  -34.1730   -4.6450 N.am  163  ASN163     -0.0877
     42  N        -15.0370  -36.2900   -1.3700 N.am  164  GLU164     -0.1979
     43  CA       -16.3290  -36.2220   -0.7300 C.3   164  GLU164      0.1602
     44  C        -17.0200  -37.6260   -0.7460 C.2   164  GLU164      0.2287
     45  O        -18.0730  -37.7620   -1.3480 O.2   164  GLU164     -0.2864
     46  CB       -17.2830  -35.2040   -1.3220 C.3   164  GLU164      0.0415
     47  CG       -16.7100  -33.7770   -1.2660 C.3   164  GLU164      0.1163
     48  CD       -17.7080  -32.7090   -1.6690 C.2   164  GLU164      0.3649
     49  OE1      -18.7740  -33.0290   -2.2440 O.co2 164  GLU164     -0.2457
     50  OE2      -17.4840  -31.5010   -1.3790 O.co2 164  GLU164     -0.2457
     51  N        -20.7690  -37.8540   -0.0120 N.3   167  VAL167     -0.1245
     52  CA       -21.6600  -37.5400   -1.1500 C.3   167  VAL167      0.1561
     53  C        -21.7900  -38.7630   -2.0750 C.2   167  VAL167      0.2260
     54  O        -22.9180  -39.1880   -2.4420 O.2   167  VAL167     -0.2867
     55  CB       -21.1650  -36.2950   -1.9150 C.3   167  VAL167      0.0252
     56  CG1      -22.0830  -36.0800   -3.1210 C.3   167  VAL167      0.0019
     57  CG2      -21.3050  -35.0640   -1.0440 C.3   167  VAL167      0.0019
     58  N        -16.5630  -33.2800    2.4150 N.3   220  ASN220     -0.1240
     59  CA       -17.5560  -32.2370    2.4890 C.3   220  ASN220      0.1653
     60  C        -17.8460  -31.9480    3.9530 C.2   220  ASN220      0.2266
     61  O        -17.8070  -32.8510    4.8310 O.2   220  ASN220     -0.2867
     62  CB       -18.8760  -32.5880    1.7380 C.3   220  ASN220      0.1155
     63  CG       -19.5050  -33.8480    2.2180 C.2   220  ASN220      0.2627
     64  OD1      -19.0140  -34.9040    1.8360 O.2   220  ASN220     -0.2716
     65  ND2      -20.5240  -33.7850    3.0930 N.am  220  ASN220     -0.0877
     66  N        -18.7740  -24.8740    2.1490 N.3   293  TYR293     -0.1241
     67  CA       -19.6650  -23.9670    1.4550 C.3   293  TYR293      0.1605
     68  C        -20.6860  -23.2860    2.3610 C.2   293  TYR293      0.2264
     69  O        -20.9340  -22.1030    2.1840 O.2   293  TYR293     -0.2867
     70  CB       -20.3950  -24.7360    0.3380 C.3   293  TYR293      0.0534
     71  CG       -19.4750  -25.1810   -0.7450 C.ar  293  TYR293     -0.0201
     72  CD1      -18.7570  -26.3980   -0.6510 C.ar  293  TYR293     -0.0009
     73  CD2      -19.3350  -24.4510   -1.9110 C.ar  293  TYR293     -0.0009
     74  CE1      -17.9000  -26.7860   -1.6760 C.ar  293  TYR293      0.0417
     75  CE2      -18.5020  -24.8430   -2.9370 C.ar  293  TYR293      0.0417
     76  CZ       -17.8250  -26.0420   -2.8540 C.ar  293  TYR293      0.1957
     77  OH       -17.0090  -26.3880   -3.8770 O.3   293  TYR293     -0.2866
     78  N        -28.1610  -21.8400   -0.5110 N.3   322  TRP322     -0.1241
     79  CA       -27.3410  -22.2250    0.6500 C.3   322  TRP322      0.1605
     80  C        -26.9310  -21.0040    1.4560 C.2   322  TRP322      0.2264
     81  O        -26.3320  -20.0750    0.8840 O.2   322  TRP322     -0.2867
     82  CB       -26.0410  -22.8940    0.2100 C.3   322  TRP322      0.0550
     83  CG       -26.1960  -24.1520   -0.5520 C.ar  322  TRP322      0.0003
     84  CD1      -27.2990  -24.9700   -0.6150 C.ar  322  TRP322      0.0946
     85  CD2      -25.1770  -24.7880   -1.3100 C.ar  322  TRP322      0.0152
     86  NE1      -27.0390  -26.0560   -1.4500 N.ar  322  TRP322     -0.2442
     87  CE2      -25.7450  -25.9760   -1.8770 C.ar  322  TRP322      0.0810
     88  CE3      -23.8500  -24.4620   -1.6120 C.ar  322  TRP322      0.0012
     89  CZ2      -25.0070  -26.8470   -2.7020 C.ar  322  TRP322      0.0191
     90  CZ3      -23.0980  -25.3380   -2.4190 C.ar  322  TRP322      0.0001
     91  CH2      -23.6950  -26.5200   -2.9670 C.ar  322  TRP322      0.0015
     92  N        -11.9000  -26.9290   -1.4410 N.3   349  GLU349     -0.1245
     93  CA       -12.9160  -26.2110   -2.1760 C.3   349  GLU349      0.1567
     94  C        -13.6350  -25.2380   -1.2700 C.2   349  GLU349      0.2260
     95  O        -14.0120  -25.5440   -0.1220 O.2   349  GLU349     -0.2867
     96  CB       -14.0680  -27.0940   -2.7020 C.3   349  GLU349      0.0388
     97  CG       -13.6460  -28.2120   -3.6080 C.3   349  GLU349      0.1160
     98  CD       -14.8110  -29.0870   -4.1040 C.2   349  GLU349      0.3649
     99  OE1      -16.0270  -28.7190   -3.9620 O.co2 349  GLU349     -0.2457
    100  OE2      -14.4070  -30.1530   -4.6390 O.co2 349  GLU349     -0.2457
    101  N        -13.4280  -22.9770   -5.5200 N.3   396  TRP396     -0.1241
    102  CA       -14.2800  -23.7480   -6.4050 C.3   396  TRP396      0.1605
    103  C        -15.0950  -22.6840   -7.0760 C.2   396  TRP396      0.2264
    104  O        -15.9020  -22.0560   -6.3950 O.2   396  TRP396     -0.2867
    105  CB       -15.2210  -24.7750   -5.7160 C.3   396  TRP396      0.0550
    106  CG       -15.9880  -25.5500   -6.7850 C.ar  396  TRP396      0.0003
    107  CD1      -17.1960  -25.2450   -7.2820 C.ar  396  TRP396      0.0946
    108  CD2      -15.5250  -26.6760   -7.5060 C.ar  396  TRP396      0.0152
    109  NE1      -17.5520  -26.1260   -8.2860 N.ar  396  TRP396     -0.2442
    110  CE2      -16.5240  -27.0090   -8.4560 C.ar  396  TRP396      0.0810
    111  CE3      -14.3950  -27.4820   -7.4040 C.ar  396  TRP396      0.0012
    112  CZ2      -16.4230  -28.0950   -9.2820 C.ar  396  TRP396      0.0191
    113  CZ3      -14.2690  -28.5450   -8.2560 C.ar  396  TRP396      0.0001
    114  CH2      -15.2750  -28.8510   -9.1790 C.ar  396  TRP396      0.0015
    115  N        -22.8250  -28.4920  -13.1100 N.3   403  GLU403     -0.1231
    116  CA       -23.0490  -28.5680  -11.6710 C.3   403  GLU403      0.1699
    117  C        -23.9480  -29.7910  -11.3280 C.2   403  GLU403      0.2592
    118  O        -25.0160  -29.6660  -10.7530 O.2   403  GLU403     -0.2718
    119  CB       -23.6110  -27.2560  -11.1400 C.3   403  GLU403      0.0402
    120  CG       -23.8520  -27.1980   -9.6420 C.3   403  GLU403      0.1161
    121  CD       -22.7190  -27.7540   -8.7600 C.2   403  GLU403      0.3649
    122  OE1      -21.4890  -27.5910   -9.0380 O.co2 403  GLU403     -0.2457
    123  OE2      -23.0670  -28.3470   -7.7310 O.co2 403  GLU403     -0.2457
    124  N        -23.4760  -30.9580  -11.7500 N.am  404  TRP404     -0.1976
    125  CA       -24.1200  -32.2240  -11.4100 C.3   404  TRP404      0.1640
    126  C        -25.6490  -32.2350  -11.6930 C.2   404  TRP404      0.2290
    127  O        -26.0350  -31.9100  -12.8170 O.2   404  TRP404     -0.2864
    128  CB       -23.7530  -32.5470   -9.9800 C.3   404  TRP404      0.0576
    129  CG       -22.2840  -32.5730   -9.7720 C.ar  404  TRP404      0.0006
    130  CD1      -21.5520  -31.7680   -8.9020 C.ar  404  TRP404      0.0946
    131  CD2      -21.3250  -33.4540  -10.3920 C.ar  404  TRP404      0.0152
    132  NE1      -20.2450  -32.1040   -8.9860 N.ar  404  TRP404     -0.2442
    133  CE2      -20.0630  -33.1460   -9.8520 C.ar  404  TRP404      0.0810
    134  CE3      -21.4060  -34.5020  -11.3150 C.ar  404  TRP404      0.0012
    135  CZ2      -18.9260  -33.8290  -10.2150 C.ar  404  TRP404      0.0191
    136  CZ3      -20.2750  -35.1560  -11.6880 C.ar  404  TRP404      0.0001
    137  CH2      -19.0280  -34.8340  -11.1430 C.ar  404  TRP404      0.0015
    138  N        -20.3180  -21.3330  -10.7260 N.3   412  PHE412     -0.1241
    139  CA       -19.4230  -21.2310   -9.5670 C.3   412  PHE412      0.1605
    140  C        -18.0840  -20.6110   -9.9720 C.2   412  PHE412      0.2264
    141  O        -17.2260  -20.4300   -9.1250 O.2   412  PHE412     -0.2867
    142  CB       -19.1260  -22.6550   -8.9670 C.3   412  PHE412      0.0534
    143  CG       -20.1600  -23.1460   -8.0060 C.ar  412  PHE412     -0.0203
    144  CD1      -21.2890  -23.8160   -8.4640 C.ar  412  PHE412     -0.0042
    145  CD2      -20.0210  -22.9630   -6.6700 C.ar  412  PHE412     -0.0042
    146  CE1      -22.2460  -24.2610   -7.5890 C.ar  412  PHE412     -0.0003
    147  CE2      -20.9650  -23.4240   -5.7680 C.ar  412  PHE412     -0.0003
    148  CZ       -22.0890  -24.0830   -6.2240 C.ar  412  PHE412     -0.0000
@<TRIPOS>BOND
     1     4     3    2
     2     3     2    1
     3     1     2    1
     4     2     5    1
     5     5     6    1
     6   115   116    1
     7   127   126    2
     8     6     7    1
     9   124   125    1
    10   124   117   am
    11   126   125    1
    12   136   134   ar
    13   136   137   ar
    14   116   117    1
    15   116   119    1
    16   125   128    1
    17   117   118    2
    18   134   131   ar
    19   137   135   ar
    20   119   120    1
    21     7     9   am
    22     7     8    2
    23   138   139    1
    24    23    22    2
    25   131   133   ar
    26   131   129   ar
    27    22    21    1
    28   135   133   ar
    29   128   129    1
    30   140   139    1
    31   140   141    2
    32   133   132   ar
    33    13    12    2
    34   129   130   ar
    35   120   121    1
    36   139   142    1
    37   112   114   ar
    38   112   110   ar
    39   114   113   ar
    40    12    20   am
    41    12    11    1
    42   122   121   ar
    43   132   130   ar
    44    21    20    1
    45    21    24    1
    46   142   143    1
    47    14    11    1
    48    14    15    1
    49   121   123   ar
    50    24    25    1
    51    10    11    1
    52   144   143   ar
    53   144   146   ar
    54   110   109   ar
    55   110   108   ar
    56   109   107   ar
    57   113   111   ar
    58    15    17   ar
    59    15    16   ar
    60    17    19   ar
    61   143   145   ar
    62    16    18   ar
    63    30    27   ar
    64    30    32   ar
    65   146   148   ar
    66    19    18   ar
    67   108   111   ar
    68   108   106   ar
    69    25    27   ar
    70    25    26   ar
    71   107   106   ar
    72   103   102    1
    73   103   104    2
    74    27    29   ar
    75    32    33   ar
    76   106   105    1
    77   145   147   ar
    78   102   105    1
    79   102   101    1
    80    26    28   ar
    81   148   147   ar
    82    29    28   ar
    83    29    31   ar
    84    33    31   ar
    85    41    39   am
    86   100    98   ar
    87    38    39    1
    88    38    35    1
    89    39    40    2
    90    98    99   ar
    91    98    97    1
    92    77    76    1
    93    97    96    1
    94    34    35    1
    95    37    36    2
    96    35    36    1
    97    56    55    1
    98    91    89   ar
    99    91    90   ar
   100    75    76   ar
   101    75    73   ar
   102    76    74   ar
   103    89    87   ar
   104    96    93    1
   105    36    42   am
   106    54    53    2
   107    90    88   ar
   108    49    48   ar
   109    93    92    1
   110    93    94    1
   111    53    52    1
   112    55    52    1
   113    55    57    1
   114    73    71   ar
   115    87    86   ar
   116    87    85   ar
   117    74    72   ar
   118    48    50   ar
   119    48    47    1
   120    88    85   ar
   121    86    84   ar
   122    42    43    1
   123    45    44    2
   124    46    47    1
   125    46    43    1
   126    85    83   ar
   127    94    95    2
   128    52    51    1
   129    44    43    1
   130    71    72   ar
   131    71    70    1
   132    84    83   ar
   133    83    82    1
   134    78    79    1
   135    82    79    1
   136    70    67    1
   137    79    80    1
   138    81    80    2
   139    67    66    1
   140    67    68    1
   141    62    63    1
   142    62    59    1
   143    64    63    2
   144    69    68    2
   145    63    65   am
   146    58    59    1
   147    59    60    1
   148    60    61    2
