@<TRIPOS>MOLECULE
tmp/5ostA00.pdb
 191 186 0 0 0
SMALL
GASTEIGER

@<TRIPOS>ATOM
      1  N        -32.2200  -22.4490  -30.5880 N.3    28  TYR28      -0.1241
      2  CA       -33.2380  -21.4530  -30.8970 C.3    28  TYR28       0.1605
      3  C        -32.6870  -20.2780  -31.7410 C.2    28  TYR28       0.2264
      4  O        -31.5280  -19.8930  -31.5750 O.2    28  TYR28      -0.2867
      5  CB       -33.9000  -20.9380  -29.6140 C.3    28  TYR28       0.0534
      6  CG       -33.0400  -20.1680  -28.6230 C.ar   28  TYR28      -0.0201
      7  CD1      -32.2620  -20.8370  -27.6710 C.ar   28  TYR28      -0.0009
      8  CD2      -33.0770  -18.7710  -28.5670 C.ar   28  TYR28      -0.0009
      9  CE1      -31.5220  -20.1390  -26.7320 C.ar   28  TYR28       0.0417
     10  CE2      -32.3450  -18.0730  -27.6170 C.ar   28  TYR28       0.0417
     11  CZ       -31.5600  -18.7600  -26.7000 C.ar   28  TYR28       0.1957
     12  OH       -30.7910  -18.0890  -25.7400 O.3    28  TYR28      -0.2866
     13  N        -31.2300   -4.6350  -22.1360 N.3   402  GLU402     -0.1245
     14  CA       -30.2660   -5.6700  -21.8190 C.3   402  GLU402      0.1567
     15  C        -29.6350   -6.0970  -23.1300 C.2   402  GLU402      0.2260
     16  O        -28.4350   -6.1920  -23.2380 O.2   402  GLU402     -0.2867
     17  CB       -31.0060   -6.8330  -21.1790 C.3   402  GLU402      0.0388
     18  CG       -30.2320   -8.0940  -21.0090 C.3   402  GLU402      0.1160
     19  CD       -31.0660   -9.2580  -20.4560 C.2   402  GLU402      0.3649
     20  OE1      -32.0390   -9.0220  -19.6980 O.co2 402  GLU402     -0.2457
     21  OE2      -30.6660  -10.4250  -20.7170 O.co2 402  GLU402     -0.2457
     22  N        -33.1600  -10.6310  -25.8780 N.3   406  TYR406     -0.1241
     23  CA       -33.8310  -10.6740  -24.5990 C.3   406  TYR406      0.1605
     24  C        -34.2360   -9.2410  -24.3200 C.2   406  TYR406      0.2264
     25  O        -33.5740   -8.5300  -23.6030 O.2   406  TYR406     -0.2867
     26  CB       -32.9200  -11.2140  -23.4840 C.3   406  TYR406      0.0534
     27  CG       -32.0760  -12.4130  -23.8600 C.ar  406  TYR406     -0.0201
     28  CD1      -32.5800  -13.4520  -24.6700 C.ar  406  TYR406     -0.0009
     29  CD2      -30.7440  -12.5450  -23.3490 C.ar  406  TYR406     -0.0009
     30  CE1      -31.7680  -14.5330  -25.0110 C.ar  406  TYR406      0.0417
     31  CE2      -29.9480  -13.6670  -23.6540 C.ar  406  TYR406      0.0417
     32  CZ       -30.4660  -14.6520  -24.4900 C.ar  406  TYR406      0.1957
     33  OH       -29.6690  -15.7430  -24.7930 O.3   406  TYR406     -0.2866
     34  N        -35.3730   -6.7350  -22.7520 N.3   408  TYR408     -0.1241
     35  CA       -35.8040   -6.2540  -21.4390 C.3   408  TYR408      0.1605
     36  C        -35.1150   -4.9200  -21.0990 C.2   408  TYR408      0.2264
     37  O        -33.9580   -4.8000  -21.2850 O.2   408  TYR408     -0.2867
     38  CB       -35.5670   -7.3210  -20.3720 C.3   408  TYR408      0.0534
     39  CG       -36.1580   -8.6460  -20.7810 C.ar  408  TYR408     -0.0201
     40  CD1      -37.5320   -8.7560  -21.0900 C.ar  408  TYR408     -0.0009
     41  CD2      -35.3760   -9.7830  -20.8790 C.ar  408  TYR408     -0.0009
     42  CE1      -38.1020   -9.9470  -21.4660 C.ar  408  TYR408      0.0417
     43  CE2      -35.9520  -10.9970  -21.2430 C.ar  408  TYR408      0.0417
     44  CZ       -37.3170  -11.0620  -21.5620 C.ar  408  TYR408      0.1957
     45  OH       -37.8920  -12.2490  -21.9240 O.3   408  TYR408     -0.2866
     46  N        -29.9030   -7.3670  -12.7460 N.3   413  ASP413     -0.1225
     47  CA       -28.8240   -8.2900  -12.4510 C.3   413  ASP413      0.1805
     48  C        -27.7030   -8.0950  -13.4880 C.2   413  ASP413      0.2597
     49  O        -26.5680   -8.4550  -13.2120 O.2   413  ASP413     -0.2718
     50  CB       -29.3000   -9.7600  -12.4100 C.3   413  ASP413      0.1424
     51  CG       -30.1270  -10.1610  -13.6470 C.2   413  ASP413      0.3668
     52  OD1      -31.2310   -9.5940  -13.8010 O.co2 413  ASP413     -0.2456
     53  OD2      -29.6800  -11.0090  -14.4520 O.co2 413  ASP413     -0.2456
     54  N        -28.0360   -7.5010  -14.6330 N.am  414  VAL414     -0.1980
     55  CA       -27.0980   -7.1650  -15.6680 C.3   414  VAL414      0.1595
     56  C        -26.5140   -5.7080  -15.5390 C.2   414  VAL414      0.2287
     57  O        -25.3330   -5.4890  -15.7870 O.2   414  VAL414     -0.2864
     58  CB       -27.7550   -7.3580  -17.0800 C.3   414  VAL414      0.0276
     59  CG1      -26.8270   -6.9130  -18.1810 C.3   414  VAL414      0.0022
     60  CG2      -28.1130   -8.8250  -17.3080 C.3   414  VAL414      0.0022
     61  N        -36.7490   -7.9840  -11.8680 N.3   468  HIS468     -0.1241
     62  CA       -35.7300   -8.2340  -12.8350 C.3   468  HIS468      0.1621
     63  C        -35.5730   -7.1480  -13.9060 C.2   468  HIS468      0.2264
     64  O        -34.4580   -6.9010  -14.3060 O.2   468  HIS468     -0.2867
     65  CB       -35.9750   -9.5960  -13.4440 C.3   468  HIS468      0.0745
     66  CG       -35.1910   -9.8920  -14.6630 C.ar  468  HIS468      0.0817
     67  ND1      -35.5850   -9.4560  -15.9070 N.ar  468  HIS468     -0.2268
     68  CD2      -34.1660  -10.7600  -14.8700 C.ar  468  HIS468      0.1154
     69  CE1      -34.7660   -9.9650  -16.8210 C.ar  468  HIS468      0.1986
     70  NE2      -33.8850  -10.7470  -16.2130 N.ar  468  HIS468     -0.2212
     71  N        -39.6730  -10.3550  -18.2860 N.3   484  TYR484     -0.1241
     72  CA       -38.9570  -11.6170  -18.3490 C.3   484  TYR484      0.1605
     73  C        -39.7010  -12.7300  -17.6460 C.2   484  TYR484      0.2264
     74  O        -40.2020  -12.5460  -16.5200 O.2   484  TYR484     -0.2867
     75  CB       -37.5980  -11.4030  -17.6360 C.3   484  TYR484      0.0534
     76  CG       -36.7460  -12.6020  -17.3170 C.ar  484  TYR484     -0.0201
     77  CD1      -35.9540  -13.2150  -18.2980 C.ar  484  TYR484     -0.0009
     78  CD2      -36.7150  -13.1180  -16.0110 C.ar  484  TYR484     -0.0009
     79  CE1      -35.1770  -14.3350  -17.9970 C.ar  484  TYR484      0.0417
     80  CE2      -35.9570  -14.2280  -15.6850 C.ar  484  TYR484      0.0417
     81  CZ       -35.1750  -14.8330  -16.6630 C.ar  484  TYR484      0.1957
     82  OH       -34.3810  -15.9230  -16.2840 O.3   484  TYR484     -0.2866
     83  N        -38.4460  -16.5010  -18.1610 N.3   486  TRP486     -0.1241
     84  CA       -37.8010  -17.8150  -18.2320 C.3   486  TRP486      0.1605
     85  C        -37.6570  -18.4230  -16.8240 C.2   486  TRP486      0.2264
     86  O        -37.7220  -19.6380  -16.6610 O.2   486  TRP486     -0.2867
     87  CB       -36.4630  -17.7540  -18.9760 C.3   486  TRP486      0.0550
     88  CG       -35.6490  -18.9940  -18.8440 C.ar  486  TRP486      0.0003
     89  CD1      -34.5980  -19.2180  -17.9670 C.ar  486  TRP486      0.0946
     90  CD2      -35.8130  -20.2040  -19.5810 C.ar  486  TRP486      0.0152
     91  NE1      -34.1060  -20.4990  -18.1250 N.ar  486  TRP486     -0.2442
     92  CE2      -34.8330  -21.1300  -19.0990 C.ar  486  TRP486      0.0810
     93  CE3      -36.6940  -20.6110  -20.5930 C.ar  486  TRP486      0.0012
     94  CZ2      -34.7110  -22.4180  -19.6060 C.ar  486  TRP486      0.0191
     95  CZ3      -36.5640  -21.8980  -21.0980 C.ar  486  TRP486      0.0001
     96  CH2      -35.5770  -22.7870  -20.6070 C.ar  486  TRP486      0.0015
     97  N        -35.3590  -14.7020   -6.7380 N.3   492  TRP492     -0.1241
     98  CA       -33.9310  -14.6360   -7.0720 C.3   492  TRP492      0.1605
     99  C        -33.2460  -14.1380   -5.8200 C.2   492  TRP492      0.2264
    100  O        -33.7930  -13.2540   -5.1160 O.2   492  TRP492     -0.2867
    101  CB       -33.6530  -13.7410   -8.2750 C.3   492  TRP492      0.0550
    102  CG       -33.7890  -14.4330   -9.6040 C.ar  492  TRP492      0.0003
    103  CD1      -34.5070  -15.5520   -9.8680 C.ar  492  TRP492      0.0946
    104  CD2      -33.1950  -14.0430  -10.8460 C.ar  492  TRP492      0.0152
    105  NE1      -34.4010  -15.8990  -11.1890 N.ar  492  TRP492     -0.2442
    106  CE2      -33.6010  -14.9820  -11.8180 C.ar  492  TRP492      0.0810
    107  CE3      -32.3550  -13.0060  -11.2280 C.ar  492  TRP492      0.0012
    108  CZ2      -33.1990  -14.9080  -13.1540 C.ar  492  TRP492      0.0191
    109  CZ3      -31.9550  -12.9360  -12.5350 C.ar  492  TRP492      0.0001
    110  CH2      -32.3740  -13.8850  -13.4940 C.ar  492  TRP492      0.0015
    111  N        -28.6830  -14.4600  -11.6420 N.3   552  THR552     -0.1218
    112  CA       -28.3890  -14.0520  -13.0450 C.3   552  THR552      0.1862
    113  C        -27.8990  -15.1760  -13.9870 C.2   552  THR552      0.2287
    114  O        -28.1420  -15.1330  -15.1810 O.2   552  THR552     -0.2866
    115  CB       -27.5160  -12.7610  -13.0770 C.3   552  THR552      0.1770
    116  OG1      -27.4250  -12.2270  -14.4000 O.3   552  THR552     -0.2211
    117  CG2      -26.1790  -12.9380  -12.5360 C.3   552  THR552      0.0375
    118  N        -28.9580  -17.9880  -15.0990 N.3   554  ASP554     -0.1239
    119  CA       -30.3670  -18.3920  -15.0920 C.3   554  ASP554      0.1674
    120  C        -30.6590  -19.7850  -15.7220 C.2   554  ASP554      0.2266
    121  O        -31.8160  -20.1220  -15.9360 O.2   554  ASP554     -0.2867
    122  CB       -31.2680  -17.2320  -15.6340 C.3   554  ASP554      0.1410
    123  CG       -31.2260  -17.0720  -17.1630 C.2   554  ASP554      0.3668
    124  OD1      -30.2940  -17.6080  -17.8000 O.co2 554  ASP554     -0.2456
    125  OD2      -32.1610  -16.3990  -17.7110 O.co2 554  ASP554     -0.2456
    126  N        -23.7920  -22.5040  -19.1760 N.3   688  GLN688     -0.1245
    127  CA       -23.2900  -21.2380  -18.6510 C.3   688  GLN688      0.1566
    128  C        -21.9130  -21.3660  -17.9590 C.2   688  GLN688      0.2260
    129  O        -21.0330  -20.4990  -18.1170 O.2   688  GLN688     -0.2867
    130  CB       -24.3380  -20.5550  -17.7280 C.3   688  GLN688      0.0367
    131  CG       -25.5600  -20.0170  -18.4490 C.3   688  GLN688      0.0905
    132  CD       -26.6090  -19.4360  -17.5200 C.2   688  GLN688      0.2608
    133  OE1      -26.6140  -19.6430  -16.2990 O.2   688  GLN688     -0.2717
    134  NE2      -27.4980  -18.6800  -18.0980 N.am  688  GLN688     -0.0878
    135  N        -18.3790  -14.8710  -20.0840 N.3   693  TRP693     -0.1241
    136  CA       -19.2970  -13.7610  -20.1080 C.3   693  TRP693      0.1605
    137  C        -18.4300  -12.4770  -20.1380 C.2   693  TRP693      0.2264
    138  O        -17.6730  -12.1480  -19.2200 O.2   693  TRP693     -0.2867
    139  CB       -20.2500  -13.7980  -18.8920 C.3   693  TRP693      0.0550
    140  CG       -21.4310  -14.8310  -18.9830 C.ar  693  TRP693      0.0003
    141  CD1      -21.5540  -15.8910  -19.8690 C.ar  693  TRP693      0.0946
    142  CD2      -22.6100  -14.8820  -18.1550 C.ar  693  TRP693      0.0152
    143  NE1      -22.7120  -16.5780  -19.6300 N.ar  693  TRP693     -0.2442
    144  CE2      -23.3810  -15.9890  -18.5890 C.ar  693  TRP693      0.0810
    145  CE3      -23.0770  -14.1140  -17.0880 C.ar  693  TRP693      0.0012
    146  CZ2      -24.5890  -16.3300  -17.9970 C.ar  693  TRP693      0.0191
    147  CZ3      -24.2770  -14.4530  -16.4970 C.ar  693  TRP693      0.0001
    148  CH2      -25.0250  -15.5370  -16.9550 C.ar  693  TRP693      0.0015
    149  N        -23.0200  -11.1650  -24.9400 N.3   738  GLU738     -0.1245
    150  CA       -22.9950  -11.6190  -23.5560 C.3   738  GLU738      0.1567
    151  C        -21.8840  -12.6150  -23.4710 C.2   738  GLU738      0.2260
    152  O        -21.0600  -12.5300  -22.5900 O.2   738  GLU738     -0.2867
    153  CB       -24.3350  -12.2770  -23.1340 C.3   738  GLU738      0.0388
    154  CG       -24.3350  -13.1740  -21.8670 C.3   738  GLU738      0.1160
    155  CD       -24.5250  -12.3930  -20.5820 C.2   738  GLU738      0.3649
    156  OE1      -23.7010  -11.5250  -20.2430 O.co2 738  GLU738     -0.2457
    157  OE2      -25.5300  -12.6650  -19.8740 O.co2 738  GLU738     -0.2457
    158  N        -23.3710  -16.0460  -27.9060 N.3   747  ARG747     -0.1245
    159  CA       -24.7290  -15.8930  -27.4480 C.3   747  ARG747      0.1563
    160  C        -25.0400  -14.4350  -27.0910 C.2   747  ARG747      0.2260
    161  O        -24.3590  -13.7730  -26.2450 O.2   747  ARG747     -0.2867
    162  CB       -24.9760  -16.8140  -26.2460 C.3   747  ARG747      0.0307
    163  CG       -26.4280  -16.7750  -25.7550 C.3   747  ARG747      0.0489
    164  CD       -26.7190  -17.9180  -24.8070 C.3   747  ARG747      0.2205
    165  NE       -26.0020  -17.7920  -23.5610 N.pl3 747  ARG747     -0.0865
    166  CZ       -26.3420  -16.9180  -22.6150 C.cat 747  ARG747      0.5346
    167  NH1      -27.3610  -16.0890  -22.7990 N.pl3 747  ARG747      0.1354
    168  NH2      -25.6520  -16.8510  -21.4740 N.pl3 747  ARG747      0.1354
    169  N        -25.0070   -6.4000  -26.3310 N.3   751  TYR751     -0.1241
    170  CA       -25.3300   -6.7830  -24.9960 C.3   751  TYR751      0.1605
    171  C        -24.8420   -5.7360  -24.0180 C.2   751  TYR751      0.2264
    172  O        -23.7980   -5.1900  -24.1960 O.2   751  TYR751     -0.2867
    173  CB       -24.7350   -8.1980  -24.7090 C.3   751  TYR751      0.0534
    174  CG       -25.4660   -8.8510  -23.6030 C.ar  751  TYR751     -0.0201
    175  CD1      -26.6550   -9.5250  -23.8360 C.ar  751  TYR751     -0.0009
    176  CD2      -25.0200   -8.7440  -22.3020 C.ar  751  TYR751     -0.0009
    177  CE1      -27.4010  -10.0730  -22.7870 C.ar  751  TYR751      0.0417
    178  CE2      -25.7480   -9.3010  -21.2320 C.ar  751  TYR751      0.0417
    179  CZ       -26.9330   -9.9470  -21.4670 C.ar  751  TYR751      0.1957
    180  OH       -27.6420  -10.4690  -20.3890 O.3   751  TYR751     -0.2866
    181  N        -24.1440   -6.0160  -20.6140 N.3   753  ARG753     -0.1245
    182  CA       -23.0770   -6.3510  -19.6370 C.3   753  ARG753      0.1563
    183  C        -21.6380   -5.8320  -19.8750 C.2   753  ARG753      0.2260
    184  O        -21.0700   -5.2320  -18.9320 O.2   753  ARG753     -0.2867
    185  CB       -23.0580   -7.7930  -19.3090 C.3   753  ARG753      0.0307
    186  CG       -22.8640   -8.0200  -17.8220 C.3   753  ARG753      0.0489
    187  CD       -22.7110   -9.5310  -17.5600 C.3   753  ARG753      0.2205
    188  NE       -23.9000  -10.3640  -17.8380 N.pl3 753  ARG753     -0.0865
    189  CZ       -24.8670  -10.6850  -16.9600 C.cat 753  ARG753      0.5346
    190  NH1      -24.9350  -10.1550  -15.6990 N.pl3 753  ARG753      0.1354
    191  NH2      -25.8490  -11.4870  -17.3680 N.pl3 753  ARG753      0.1354
@<TRIPOS>BOND
     1     3     4    2
     2     3     2    1
     3     2     1    1
     4     2     5    1
     5     5     6    1
     6     6     8   ar
     7     6     7   ar
     8     8    10   ar
     9   158   159    1
    10     7     9   ar
    11    10    11   ar
    12   159   160    1
    13   159   162    1
    14   160   161    2
    15     9    11   ar
    16    11    12    1
    17   169   170    1
    18   162   163    1
    19    22    23    1
    20   163   164    1
    21    30    28   ar
    22    30    32   ar
    23   170   173    1
    24   170   171    1
    25   149   150    1
    26   164   165    1
    27    33    32    1
    28   173   174    1
    29    28    27   ar
    30    23    24    1
    31    23    26    1
    32    32    31   ar
    33    24    25    2
    34   172   171    2
    35    27    26    1
    36    27    29   ar
    37   175   174   ar
    38   175   177   ar
    39    31    29   ar
    40   174   176   ar
    41   165   166    2
    42   150   151    1
    43   150   153    1
    44   151   152    2
    45    16    15    2
    46   153   154    1
    47    15    14    1
    48   167   166    1
    49   177   179   ar
    50    34    35    1
    51   166   168    1
    52   176   178   ar
    53    13    14    1
    54    45    44    1
    55   154   155    1
    56    14    17    1
    57    44    42   ar
    58    44    43   ar
    59   179   178   ar
    60   179   180    1
    61    42    40   ar
    62    35    36    1
    63    35    38    1
    64    37    36    2
    65    43    41   ar
    66    17    18    1
    67    95    96   ar
    68    95    93   ar
    69    40    39   ar
    70    18    19    1
    71    41    39   ar
    72    39    38    1
    73    21    19   ar
    74   181   182    1
    75    96    94   ar
    76    93    90   ar
    77   155   156   ar
    78   155   157   ar
    79    19    20   ar
    80   137   136    1
    81   137   138    2
    82   136   135    1
    83   136   139    1
    84   183   182    1
    85   183   184    2
    86   141   143   ar
    87   141   140   ar
    88   182   185    1
    89   143   144   ar
    90    94    92   ar
    91    90    92   ar
    92    90    88   ar
    93   185   186    1
    94   126   127    1
    95    92    91   ar
    96   140   139    1
    97   140   142   ar
    98    87    88    1
    99    87    84    1
   100    88    89   ar
   101   127   128    1
   102   127   130    1
   103   144   142   ar
   104   144   146   ar
   105   131   130    1
   106   131   132    1
   107    72    71    1
   108    72    73    1
   109    72    75    1
   110    77    79   ar
   111    77    76   ar
   112    84    83    1
   113    84    85    1
   114    59    58    1
   115   142   145   ar
   116    91    89   ar
   117   129   128    2
   118   134   132   am
   119   146   148   ar
   120    79    81   ar
   121   188   187    1
   122   188   189    2
   123   186   187    1
   124   124   123   ar
   125   125   123   ar
   126    73    74    2
   127    75    76    1
   128   132   133    2
   129   191   189    1
   130    76    78   ar
   131    60    58    1
   132   123   122    1
   133   145   147   ar
   134    58    55    1
   135   189   190    1
   136   148   147   ar
   137    85    86    2
   138    69    70   ar
   139    69    67   ar
   140    81    82    1
   141    81    80   ar
   142    70    68   ar
   143    78    80   ar
   144   121   120    2
   145    67    66   ar
   146    57    56    2
   147   120   119    1
   148    55    56    1
   149    55    54    1
   150   122   119    1
   151   114   113    2
   152   118   119    1
   153    68    66   ar
   154    66    65    1
   155    54    48   am
   156    53    51   ar
   157   116   115    1
   158    64    63    2
   159   113   112    1
   160    63    62    1
   161    52    51   ar
   162    51    50    1
   163   110   108   ar
   164   110   109   ar
   165    48    49    2
   166    48    47    1
   167    65    62    1
   168   108   106   ar
   169   115   112    1
   170   115   117    1
   171   112   111    1
   172    62    61    1
   173    46    47    1
   174   109   107   ar
   175    47    50    1
   176   106   105   ar
   177   106   104   ar
   178   107   104   ar
   179   105   103   ar
   180   104   102   ar
   181   103   102   ar
   182   102   101    1
   183   101    98    1
   184    98    97    1
   185    98    99    1
   186    99   100    2
