@<TRIPOS>MOLECULE
tmp/5osuA00.pdb
 180 173 0 0 0
SMALL
GASTEIGER

@<TRIPOS>ATOM
      1  N       -121.8940 -173.0020  310.7390 N.3   116  ASN116     -0.1225
      2  CA      -120.5930 -173.0170  310.0860 C.3   116  ASN116      0.1785
      3  C       -120.0960 -171.6660  309.6070 C.2   116  ASN116      0.2597
      4  O       -120.7760 -170.9580  308.8670 O.2   116  ASN116     -0.2718
      5  CB      -120.6140 -173.9770  308.9000 C.3   116  ASN116      0.1169
      6  CG      -121.5430 -173.5150  307.8000 C.2   116  ASN116      0.2627
      7  OD1     -122.6440 -173.0330  308.0670 O.2   116  ASN116     -0.2716
      8  ND2     -121.1030 -173.6520  306.5570 N.am  116  ASN116     -0.0877
      9  N       -118.8900 -171.3300  310.0380 N.am  117  THR117     -0.1953
     10  CA      -118.2410 -170.1020  309.6360 C.3   117  THR117      0.1897
     11  C       -117.8870 -170.2550  308.1650 C.2   117  THR117      0.2313
     12  O       -117.4930 -171.3340  307.7310 O.2   117  THR117     -0.2863
     13  CB      -116.9730 -169.8660  310.4660 C.3   117  THR117      0.1794
     14  OG1     -117.3080 -169.8780  311.8580 O.3   117  THR117     -0.2208
     15  CG2     -116.3320 -168.5370  310.1060 C.3   117  THR117      0.0378
     16  N       -116.0330 -170.3270  304.6380 N.3   119  PHE119     -0.1241
     17  CA      -114.6990 -170.7450  304.2230 C.3   119  PHE119      0.1605
     18  C       -113.7010 -169.5940  304.1270 C.2   119  PHE119      0.2264
     19  O       -112.6030 -169.6830  304.6660 O.2   119  PHE119     -0.2867
     20  CB      -114.7720 -171.4790  302.8840 C.3   119  PHE119      0.0534
     21  CG      -113.4320 -171.8810  302.3380 C.ar  119  PHE119     -0.0203
     22  CD1     -112.6860 -170.9980  301.5780 C.ar  119  PHE119     -0.0042
     23  CD2     -112.9210 -173.1440  302.5790 C.ar  119  PHE119     -0.0042
     24  CE1     -111.4540 -171.3630  301.0730 C.ar  119  PHE119     -0.0003
     25  CE2     -111.6920 -173.5140  302.0760 C.ar  119  PHE119     -0.0003
     26  CZ      -110.9570 -172.6240  301.3230 C.ar  119  PHE119     -0.0000
     27  N       -112.5740 -168.3770  307.4850 N.3   122  LEU122     -0.1231
     28  CA      -111.6730 -169.3390  308.1120 C.3   122  LEU122      0.1693
     29  C       -110.3280 -169.3810  307.3810 C.2   122  LEU122      0.2592
     30  O       -109.2870 -169.2650  308.0130 O.2   122  LEU122     -0.2718
     31  CB      -112.2990 -170.7450  308.1040 C.3   122  LEU122      0.0284
     32  CG      -113.5060 -170.9500  309.0170 C.3   122  LEU122      0.0019
     33  CD1     -114.1610 -172.2490  308.7150 C.3   122  LEU122      0.0001
     34  CD2     -113.1180 -170.8660  310.4790 C.3   122  LEU122      0.0001
     35  N       -110.3570 -169.5440  306.0640 N.am  123  TYR123     -0.1976
     36  CA      -109.1170 -169.6730  305.2840 C.3   123  TYR123      0.1639
     37  C       -108.1960 -168.4630  305.4560 C.2   123  TYR123      0.2290
     38  O       -106.9810 -168.6040  305.6400 O.2   123  TYR123     -0.2864
     39  CB      -109.4280 -169.9350  303.7900 C.3   123  TYR123      0.0560
     40  CG      -108.1790 -170.3030  303.0190 C.ar  123  TYR123     -0.0198
     41  CD1     -107.6610 -171.5990  303.0650 C.ar  123  TYR123     -0.0009
     42  CD2     -107.4610 -169.3370  302.3200 C.ar  123  TYR123     -0.0009
     43  CE1     -106.4590 -171.9200  302.4330 C.ar  123  TYR123      0.0417
     44  CE2     -106.2710 -169.6540  301.6600 C.ar  123  TYR123      0.0417
     45  CZ      -105.7750 -170.9450  301.7210 C.ar  123  TYR123      0.1957
     46  OH      -104.6130 -171.2440  301.0600 O.3   123  TYR123     -0.2866
     47  N       -107.7710 -167.7350  310.1340 N.3   126  LEU126     -0.1245
     48  CA      -107.2830 -168.6240  311.1850 C.3   126  LEU126      0.1561
     49  C       -105.7760 -168.3820  311.4350 C.2   126  LEU126      0.2260
     50  O       -104.9710 -168.2130  310.5100 O.2   126  LEU126     -0.2867
     51  CB      -107.5580 -170.1240  310.8860 C.3   126  LEU126      0.0270
     52  CG      -109.0180 -170.5990  310.9860 C.3   126  LEU126      0.0019
     53  CD1     -109.1560 -172.0910  310.5660 C.3   126  LEU126      0.0001
     54  CD2     -109.5990 -170.4040  312.3930 C.3   126  LEU126      0.0001
     55  N       -104.9500 -173.1060  313.6180 N.3   131  ILE131     -0.1245
     56  CA      -104.7500 -174.2000  312.6550 C.3   131  ILE131      0.1561
     57  C       -104.3590 -175.4720  313.4050 C.2   131  ILE131      0.2260
     58  O       -104.9400 -176.5340  313.1800 O.2   131  ILE131     -0.2867
     59  CB      -103.7290 -173.8110  311.5770 C.3   131  ILE131      0.0252
     60  CG1     -104.2710 -172.6810  310.6610 C.3   131  ILE131      0.0019
     61  CG2     -103.2770 -175.0710  310.7650 C.3   131  ILE131      0.0019
     62  CD1     -103.0630 -172.0100  309.9570 C.3   131  ILE131      0.0001
     63  N       -107.5270 -176.7550  315.4000 N.3   134  TYR134     -0.1227
     64  CA      -108.5230 -177.4200  314.5560 C.3   134  TYR134      0.1736
     65  C       -108.0010 -178.6780  313.9180 C.2   134  TYR134      0.2595
     66  O       -108.7730 -179.6210  313.7740 O.2   134  TYR134     -0.2718
     67  CB      -109.1420 -176.4720  313.5340 C.3   134  TYR134      0.0548
     68  CG      -110.0730 -175.4590  314.1840 C.ar  134  TYR134     -0.0200
     69  CD1     -111.1630 -175.8720  314.9520 C.ar  134  TYR134     -0.0009
     70  CD2     -109.8410 -174.0900  314.0630 C.ar  134  TYR134     -0.0009
     71  CE1     -111.9860 -174.9550  315.5970 C.ar  134  TYR134      0.0417
     72  CE2     -110.7160 -173.1630  314.6300 C.ar  134  TYR134      0.0417
     73  CZ      -111.7760 -173.6040  315.4120 C.ar  134  TYR134      0.1957
     74  OH      -112.6500 -172.7090  315.9840 O.3   134  TYR134     -0.2866
     75  N       -106.7000 -178.7290  313.5690 N.am  135  MET135     -0.1979
     76  CA      -106.1260 -179.9670  313.0240 C.3   135  MET135      0.1605
     77  C       -106.2490 -181.0900  314.0650 C.2   135  MET135      0.2287
     78  O       -106.6120 -182.2180  313.7150 O.2   135  MET135     -0.2864
     79  CB      -104.6610 -179.7880  312.6080 C.3   135  MET135      0.0413
     80  CG      -104.4770 -178.9800  311.3240 C.3   135  MET135      0.0598
     81  SD      -104.9120 -179.9200  309.8290 S.3   135  MET135     -0.1393
     82  CE      -103.5980 -181.0890  309.8250 C.3   135  MET135      0.0692
     83  N       -109.7320 -182.3890  314.1840 N.3   138  ILE138     -0.1245
     84  CA      -110.0080 -183.3090  313.0620 C.3   138  ILE138      0.1561
     85  C       -109.3880 -184.6700  313.3500 C.2   138  ILE138      0.2260
     86  O       -110.0200 -185.7090  313.1370 O.2   138  ILE138     -0.2867
     87  CB      -109.5140 -182.7520  311.7100 C.3   138  ILE138      0.0252
     88  CG1     -110.1960 -181.3830  311.3770 C.3   138  ILE138      0.0019
     89  CG2     -109.7750 -183.7820  310.6060 C.3   138  ILE138      0.0019
     90  CD1     -109.6230 -180.6010  310.1240 C.3   138  ILE138      0.0001
     91  N       -112.2090 -179.5380  302.9380 N.3   157  PRO157     -0.2102
     92  CA      -112.8150 -178.4670  303.7110 C.3   157  PRO157      0.1504
     93  C       -114.3410 -178.4210  303.7300 C.2   157  PRO157      0.2575
     94  O       -114.8440 -178.2090  304.7470 O.2   157  PRO157     -0.2718
     95  CB      -112.2020 -177.2130  303.1260 C.3   157  PRO157      0.0282
     96  CG      -110.8640 -177.6630  302.6400 C.3   157  PRO157      0.0208
     97  CD      -111.1330 -179.0400  302.0900 C.3   157  PRO157      0.0893
     98  N       -115.0040 -178.6650  302.5990 N.am  158  HIS158     -0.1976
     99  CA      -116.4830 -178.6630  302.5540 C.3   158  HIS158      0.1656
    100  C       -117.0820 -179.6670  303.5510 C.2   158  HIS158      0.2291
    101  O       -118.2130 -179.4780  304.0280 O.2   158  HIS158     -0.2864
    102  CB      -117.0020 -178.9150  301.1240 C.3   158  HIS158      0.0771
    103  CG      -118.5080 -178.9690  301.0100 C.ar  158  HIS158      0.0820
    104  ND1     -119.2380 -177.8980  300.5050 N.ar  158  HIS158     -0.2267
    105  CD2     -119.3700 -179.9660  301.3310 C.ar  158  HIS158      0.1154
    106  CE1     -120.5070 -178.2710  300.5550 C.ar  158  HIS158      0.1986
    107  NE2     -120.6390 -179.4980  301.0730 N.ar  158  HIS158     -0.2212
    108  N       -115.7650 -180.3540  306.5650 N.3   160  VAL160     -0.1231
    109  CA      -115.3380 -180.0400  307.9170 C.3   160  VAL160      0.1692
    110  C       -116.0370 -178.7600  308.3370 C.2   160  VAL160      0.2592
    111  O       -115.6630 -177.6900  307.9010 O.2   160  VAL160     -0.2718
    112  CB      -113.8190 -179.8210  308.0000 C.3   160  VAL160      0.0266
    113  CG1     -113.4310 -179.3490  309.3920 C.3   160  VAL160      0.0020
    114  CG2     -113.0820 -181.1000  307.6390 C.3   160  VAL160      0.0020
    115  N       -117.0680 -178.8770  309.1660 N.am  161  MET161     -0.1965
    116  CA      -117.7980 -177.6980  309.6200 C.3   161  MET161      0.1736
    117  C       -117.1780 -177.1180  310.8800 C.2   161  MET161      0.2616
    118  O       -117.0160 -177.8160  311.8740 O.2   161  MET161     -0.2715
    119  CB      -119.2790 -178.0120  309.8660 C.3   161  MET161      0.0427
    120  CG      -120.0750 -178.4450  308.6420 C.3   161  MET161      0.0599
    121  SD      -120.2640 -177.2640  307.2900 S.3   161  MET161     -0.1393
    122  CE      -118.7900 -177.6010  306.3280 C.3   161  MET161      0.0692
    123  N       -116.8860 -175.8230  310.8430 N.am  162  ILE162     -0.1977
    124  CA      -116.2990 -175.1480  311.9800 C.3   162  ILE162      0.1596
    125  C       -117.1460 -173.9660  312.4330 C.2   162  ILE162      0.2287
    126  O       -117.4390 -173.0720  311.6490 O.2   162  ILE162     -0.2864
    127  CB      -114.8850 -174.6320  311.6500 C.3   162  ILE162      0.0276
    128  CG1     -113.9740 -175.7950  311.2560 C.3   162  ILE162      0.0022
    129  CG2     -114.3090 -173.8740  312.8340 C.3   162  ILE162      0.0022
    130  CD1     -112.5800 -175.3780  310.8440 C.3   162  ILE162      0.0001
    131  N       -107.6560 -183.7620  296.7530 N.3   195  PHE195     -0.1241
    132  CA      -107.4520 -184.4870  297.9720 C.3   195  PHE195      0.1605
    133  C       -107.2270 -185.9910  297.7620 C.2   195  PHE195      0.2264
    134  O       -107.0580 -186.6870  298.6870 O.2   195  PHE195     -0.2867
    135  CB      -108.6500 -184.2080  298.8720 C.3   195  PHE195      0.0534
    136  CG      -108.8460 -182.7320  299.0880 C.ar  195  PHE195     -0.0203
    137  CD1     -108.0990 -182.0720  299.9990 C.ar  195  PHE195     -0.0042
    138  CD2     -109.6400 -182.0260  298.2680 C.ar  195  PHE195     -0.0042
    139  CE1     -108.2320 -180.7380  300.1410 C.ar  195  PHE195     -0.0003
    140  CE2     -109.7850 -180.6910  298.4040 C.ar  195  PHE195     -0.0003
    141  CZ      -109.0620 -180.0530  299.3240 C.ar  195  PHE195     -0.0000
    142  N       -105.1000 -180.6100  302.9650 N.3   219  MET219     -0.1230
    143  CA      -105.7410 -179.4480  303.6150 C.3   219  MET219      0.1702
    144  C       -104.6830 -178.6120  304.3940 C.2   219  MET219      0.2592
    145  O       -104.6580 -177.3700  304.2870 O.2   219  MET219     -0.2718
    146  CB      -106.8170 -179.9200  304.6140 C.3   219  MET219      0.0401
    147  CG      -108.0660 -180.4570  303.9260 C.3   219  MET219      0.0596
    148  SD      -109.2940 -181.0500  305.1140 S.3   219  MET219     -0.1393
    149  CE      -109.6690 -179.5360  306.0330 C.3   219  MET219      0.0692
    150  N       -103.8190 -179.2790  305.1800 N.am  220  LEU220     -0.1980
    151  CA      -102.7930 -178.5850  305.9490 C.3   220  LEU220      0.1596
    152  C       -101.8450 -177.8130  305.0260 C.2   220  LEU220      0.2287
    153  O       -101.5630 -176.6490  305.2860 O.2   220  LEU220     -0.2864
    154  CB      -102.0040 -179.5670  306.8090 C.3   220  LEU220      0.0297
    155  CG      -100.9700 -178.9040  307.7080 C.3   220  LEU220      0.0022
    156  CD1     -101.6290 -177.8770  308.6610 C.3   220  LEU220      0.0001
    157  CD2     -100.1160 -179.9360  308.4120 C.3   220  LEU220      0.0001
    158  N       -102.2390 -176.5970  301.9940 N.3   222  SER222     -0.1202
    159  CA      -102.9230 -175.4440  301.4100 C.3   222  SER222      0.2020
    160  C       -103.0210 -174.3130  302.4400 C.2   222  SER222      0.2618
    161  O       -102.6790 -173.1650  302.1380 O.2   222  SER222     -0.2717
    162  CB      -104.3200 -175.8430  300.9470 C.3   222  SER222      0.2103
    163  OG      -105.0520 -174.6750  300.6170 O.3   222  SER222     -0.2182
    164  N       -103.4060 -174.6660  303.6650 N.am  223  MET223     -0.1979
    165  CA      -103.6060 -173.6870  304.7340 C.3   223  MET223      0.1605
    166  C       -102.2950 -172.9790  305.1220 C.2   223  MET223      0.2287
    167  O       -102.2720 -171.7330  305.1130 O.2   223  MET223     -0.2864
    168  CB      -104.2290 -174.3980  305.9480 C.3   223  MET223      0.0413
    169  CG      -104.7350 -173.4630  307.0180 C.3   223  MET223      0.0598
    170  SD      -106.1820 -172.5360  306.4300 S.3   223  MET223     -0.1393
    171  CE      -106.3770 -171.4340  307.7630 C.3   223  MET223      0.0692
    172  N       -103.9940 -172.5400  297.5370 N.3   228  GLU228     -0.1245
    173  CA      -105.2700 -173.2200  297.5060 C.3   228  GLU228      0.1567
    174  C       -105.7090 -173.6240  296.0910 C.2   228  GLU228      0.2260
    175  O       -105.9460 -172.7470  295.2660 O.2   228  GLU228     -0.2867
    176  CB      -106.3140 -172.3170  298.2260 C.3   228  GLU228      0.0388
    177  CG      -107.7810 -172.6620  298.0320 C.3   228  GLU228      0.1160
    178  CD      -108.2270 -173.9890  298.6050 C.2   228  GLU228      0.3649
    179  OE1     -109.4040 -174.3510  298.3870 O.co2 228  GLU228     -0.2457
    180  OE2     -107.4060 -174.6660  299.2680 O.co2 228  GLU228     -0.2457
@<TRIPOS>BOND
     1   175   174    2
     2   174   173    1
     3   131   132    1
     4   173   172    1
     5   173   176    1
     6   133   132    1
     7   133   134    2
     8   132   135    1
     9   177   176    1
    10   177   178    1
    11   138   140   ar
    12   138   136   ar
    13   179   178   ar
    14   140   141   ar
    15   178   180   ar
    16   135   136    1
    17   136   137   ar
    18   141   139   ar
    19   137   139   ar
    20   104   106   ar
    21   104   103   ar
    22   106   107   ar
    23   163   162    1
    24   162   159    1
    25   103   102    1
    26   103   105   ar
    27    46    45    1
    28    24    26   ar
    29    24    22   ar
    30   107   105   ar
    31   102    99    1
    32    26    25   ar
    33   159   158    1
    34   159   160    1
    35    22    21   ar
    36    44    45   ar
    37    44    42   ar
    38    45    43   ar
    39    25    23   ar
    40    97    96    1
    41    97    91    1
    42   161   160    2
    43    42    40   ar
    44    21    23   ar
    45    21    20    1
    46    43    41   ar
    47   160   164   am
    48    99    98    1
    49    99   100    1
    50    98    93   am
    51    96    95    1
    52    20    17    1
    53    91    92    1
    54   142   143    1
    55    40    41   ar
    56    40    39    1
    57    95    92    1
    58   100   101    2
    59   143   144    1
    60   143   146    1
    61   164   165    1
    62    92    93    1
    63    93    94    2
    64    39    36    1
    65   147   146    1
    66   147   148    1
    67    18    17    1
    68    18    19    2
    69    17    16    1
    70   145   144    2
    71   144   150   am
    72   165   166    1
    73   165   168    1
    74   152   153    2
    75   152   151    1
    76   167   166    2
    77   148   149    1
    78   150   151    1
    79    36    37    1
    80    36    35    1
    81    37    38    2
    82   168   169    1
    83   151   154    1
    84    35    29   am
    85   122   121    1
    86   170   169    1
    87   170   171    1
    88     8     6   am
    89   108   109    1
    90   154   155    1
    91   121   120    1
    92    29    30    2
    93    29    28    1
    94    27    28    1
    95   114   112    1
    96   155   157    1
    97   155   156    1
    98    12    11    2
    99     6     7    2
   100     6     5    1
   101   111   110    2
   102   109   112    1
   103   109   110    1
   104   112   113    1
   105    31    28    1
   106    31    32    1
   107    11    10    1
   108   110   115   am
   109   120   119    1
   110    33    32    1
   111     4     3    2
   112     5     2    1
   113    32    34    1
   114   115   116    1
   115     3     9   am
   116     3     2    1
   117   116   119    1
   118   116   117    1
   119    10     9    1
   120    10    13    1
   121    82    81    1
   122    81    80    1
   123    62    60    1
   124     2     1    1
   125    15    13    1
   126    90    88    1
   127    47    48    1
   128    13    14    1
   129    50    49    2
   130    53    52    1
   131    89    87    1
   132    60    59    1
   133    61    59    1
   134   123   117   am
   135   123   124    1
   136   130   128    1
   137   117   118    2
   138    51    52    1
   139    51    48    1
   140    52    54    1
   141    48    49    1
   142   128   127    1
   143    80    79    1
   144    88    87    1
   145    59    56    1
   146   126   125    2
   147   127   124    1
   148   127   129    1
   149    87    84    1
   150   124   125    1
   151    79    76    1
   152    56    57    1
   153    56    55    1
   154    76    75    1
   155    76    77    1
   156    84    85    1
   157    84    83    1
   158    86    85    2
   159    58    57    2
   160    67    68    1
   161    67    64    1
   162    75    65   am
   163    78    77    2
   164    66    65    2
   165    65    64    1
   166    70    68   ar
   167    70    72   ar
   168    68    69   ar
   169    64    63    1
   170    72    73   ar
   171    69    71   ar
   172    73    71   ar
   173    73    74    1
