@<TRIPOS>MOLECULE
tmp/5oswA04.pdb
 105 96 0 0 0
SMALL
GASTEIGER

@<TRIPOS>ATOM
      1  N          4.7160    5.8810   89.8110 N.3   393  LEU393     -0.1245
      2  CA         3.8190    5.5620   88.6940 C.3   393  LEU393      0.1561
      3  C          4.5780    5.8640   87.3950 C.2   393  LEU393      0.2260
      4  O          4.5910    5.0630   86.4360 O.2   393  LEU393     -0.2867
      5  CB         2.4660    6.3320   88.8040 C.3   393  LEU393      0.0270
      6  CG         1.4410    6.2100   87.6550 C.3   393  LEU393      0.0019
      7  CD1        1.2080    4.7470   87.2740 C.3   393  LEU393      0.0001
      8  CD2        0.1250    6.8010   88.0940 C.3   393  LEU393      0.0001
      9  N          5.5860    3.1130   84.4370 N.3   397  HIS397     -0.1241
     10  CA         4.8430    3.2880   83.1750 C.3   397  HIS397      0.1621
     11  C          5.3940    4.2090   82.1060 C.2   397  HIS397      0.2264
     12  O          4.9140    4.1440   80.9790 O.2   397  HIS397     -0.2867
     13  CB         3.3740    3.6220   83.4840 C.3   397  HIS397      0.0745
     14  CG         2.6410    2.4810   84.1170 C.ar  397  HIS397      0.0817
     15  ND1        2.0340    2.5790   85.3490 N.ar  397  HIS397     -0.2268
     16  CD2        2.4800    1.1910   83.7200 C.ar  397  HIS397      0.1154
     17  CE1        1.4920    1.4150   85.6680 C.ar  397  HIS397      0.1986
     18  NE2        1.7680    0.5500   84.7070 N.ar  397  HIS397     -0.2212
     19  N          2.2770    6.5510   79.3150 N.3   401  GLY401     -0.1225
     20  CA         1.3650    5.9180   80.2870 C.3   401  GLY401      0.1811
     21  C          1.0200    6.8470   81.4600 C.2   401  GLY401      0.2280
     22  O         -0.0930    6.8900   81.8940 O.2   401  GLY401     -0.2866
     23  N         -1.3120    9.2940   80.2660 N.3   404  ASN404     -0.1225
     24  CA        -2.6510    8.6340   80.1850 C.3   404  ASN404      0.1785
     25  C         -3.4110    8.5770   81.5470 C.2   404  ASN404      0.2597
     26  O         -4.6440    8.8050   81.6070 O.2   404  ASN404     -0.2718
     27  CB        -2.5290    7.2500   79.5490 C.3   404  ASN404      0.1169
     28  CG        -2.0930    7.3490   78.1050 C.2   404  ASN404      0.2627
     29  OD1       -2.3210    8.3640   77.4700 O.2   404  ASN404     -0.2716
     30  ND2       -1.3540    6.3660   77.6320 N.am  404  ASN404     -0.0877
     31  N         -2.6840    8.2660   82.6030 N.am  405  ALA405     -0.1979
     32  CA        -3.1950    8.2710   83.9450 C.3   405  ALA405      0.1597
     33  C         -3.6910    9.6760   84.2510 C.2   405  ALA405      0.2287
     34  O         -4.7300    9.8350   84.8150 O.2   405  ALA405     -0.2864
     35  CB        -2.0840    7.9460   84.9250 C.3   405  ALA405      0.0319
     36  N         -6.8950   10.5470   82.4730 N.3   408  VAL408     -0.1231
     37  CA        -7.9500    9.9430   83.2310 C.3   408  VAL408      0.1692
     38  C         -8.2870   10.7570   84.4670 C.2   408  VAL408      0.2591
     39  O         -9.4730   11.0360   84.7010 O.2   408  VAL408     -0.2718
     40  CB        -7.6210    8.4900   83.6100 C.3   408  VAL408      0.0266
     41  CG1       -8.6530    7.9610   84.6210 C.3   408  VAL408      0.0020
     42  CG2       -7.6500    7.6460   82.3520 C.3   408  VAL408      0.0020
     43  N         -7.2690   11.1480   85.2520 N.am  409  ARG409     -0.1980
     44  CA        -7.5360   12.0040   86.4300 C.3   409  ARG409      0.1597
     45  C         -8.2250   13.3310   86.1780 C.2   409  ARG409      0.2287
     46  O         -9.2020   13.6520   86.8690 O.2   409  ARG409     -0.2864
     47  CB        -6.3010   12.1860   87.2330 C.3   409  ARG409      0.0334
     48  CG        -6.1410   10.9870   88.1320 C.3   409  ARG409      0.0492
     49  CD        -4.6820   10.6300   88.3950 C.3   409  ARG409      0.2205
     50  NE        -3.8770   11.6790   88.9940 N.pl3 409  ARG409     -0.0865
     51  CZ        -2.5850   11.5060   89.3630 C.cat 409  ARG409      0.5346
     52  NH1       -1.9350   10.3090   89.2440 N.pl3 409  ARG409      0.1354
     53  NH2       -1.9410   12.5420   89.8660 N.pl3 409  ARG409      0.1354
     54  N        -11.9570   13.1840   84.7910 N.3   412  ARG412     -0.1245
     55  CA       -12.8220   12.9450   85.9330 C.3   412  ARG412      0.1563
     56  C        -13.0000   14.1790   86.7440 C.2   412  ARG412      0.2260
     57  O        -14.1340   14.4850   87.1660 O.2   412  ARG412     -0.2867
     58  CB       -12.3330   11.8380   86.8520 C.3   412  ARG412      0.0307
     59  CG       -12.4870   10.4330   86.2090 C.3   412  ARG412      0.0489
     60  CD       -11.7220    9.4070   87.0170 C.3   412  ARG412      0.2205
     61  NE       -11.9450    8.0350   86.5140 N.pl3 412  ARG412     -0.0865
     62  CZ       -11.1950    6.9550   86.8250 C.cat 412  ARG412      0.5346
     63  NH1      -10.1730    7.0390   87.6700 N.pl3 412  ARG412      0.1354
     64  NH2      -11.4760    5.7480   86.3560 N.pl3 412  ARG412      0.1354
     65  N         -9.4720    8.6810   74.1730 N.3   528  LEU528     -0.1245
     66  CA        -9.5500    8.3480   75.5990 C.3   528  LEU528      0.1561
     67  C        -10.4150    9.3950   76.3300 C.2   528  LEU528      0.2260
     68  O        -11.3380    9.0010   77.0440 O.2   528  LEU528     -0.2867
     69  CB        -8.1690    8.2300   76.2160 C.3   528  LEU528      0.0270
     70  CG        -7.9390    8.0530   77.7330 C.3   528  LEU528      0.0019
     71  CD1       -8.6570    6.8420   78.2710 C.3   528  LEU528      0.0001
     72  CD2       -6.4560    7.9690   78.1200 C.3   528  LEU528      0.0001
     73  N        -10.7730    2.3990   85.9940 N.3   540  ASP540     -0.1239
     74  CA        -9.3850    2.2580   85.4570 C.3   540  ASP540      0.1674
     75  C         -9.1720    1.0440   84.5670 C.2   540  ASP540      0.2266
     76  O         -8.5910    1.1750   83.4930 O.2   540  ASP540     -0.2867
     77  CB        -8.3530    2.2330   86.5820 C.3   540  ASP540      0.1410
     78  CG        -8.3350    3.5150   87.3820 C.2   540  ASP540      0.3668
     79  OD1       -9.2020    4.3630   87.1620 O.co2 540  ASP540     -0.2456
     80  OD2       -7.4640    3.6670   88.2600 O.co2 540  ASP540     -0.2456
     81  N        -11.1270    1.3990   81.2770 N.3   543  LEU543     -0.1231
     82  CA       -10.3900    2.3290   80.4040 C.3   543  LEU543      0.1693
     83  C         -9.1270    1.7360   79.8140 C.2   543  LEU543      0.2591
     84  O         -8.9040    1.8500   78.5800 O.2   543  LEU543     -0.2718
     85  CB       -10.1380    3.6930   81.0870 C.3   543  LEU543      0.0284
     86  CG       -11.3900    4.4170   81.5500 C.3   543  LEU543      0.0019
     87  CD1      -11.1940    5.4310   82.6660 C.3   543  LEU543      0.0001
     88  CD2      -12.0540    4.9700   80.3060 C.3   543  LEU543      0.0001
     89  N         -8.3230    1.0730   80.6340 N.am  544  LYS544     -0.1980
     90  CA        -7.1760    0.2560   80.0850 C.3   544  LYS544      0.1596
     91  C         -7.6080   -0.6630   78.9340 C.2   544  LYS544      0.2287
     92  O         -7.0260   -0.5920   77.8530 O.2   544  LYS544     -0.2864
     93  CB        -6.4360   -0.5200   81.2000 C.3   544  LYS544      0.0298
     94  CG        -5.5650   -1.6700   80.6740 C.3   544  LYS544      0.0038
     95  CD        -4.7770   -2.4280   81.7450 C.3   544  LYS544      0.0206
     96  CE        -3.6950   -3.2740   81.0640 C.3   544  LYS544      0.1093
     97  NZ        -2.9160   -4.2360   81.9140 N.3   544  LYS544     -0.1314
     98  N         -8.7770    1.3640   75.7520 N.3   547  MET547     -0.1245
     99  CA        -7.5580    1.9410   75.1120 C.3   547  MET547      0.1570
    100  C         -6.6980    0.8560   74.3850 C.2   547  MET547      0.2261
    101  O         -6.2010    1.1190   73.2570 O.2   547  MET547     -0.2867
    102  CB        -6.7190    2.6740   76.1510 C.3   547  MET547      0.0387
    103  CG        -5.7610    3.7660   75.6210 C.3   547  MET547      0.0595
    104  SD        -6.3440    5.1470   74.5130 S.3   547  MET547     -0.1393
    105  CE        -8.1540    5.0990   74.6920 C.3   547  MET547      0.0692
@<TRIPOS>BOND
     1   101   100    2
     2    65    66    1
     3   100    99    1
     4   104   105    1
     5   104   103    1
     6    99    98    1
     7    99   102    1
     8    66    69    1
     9    66    67    1
    10   103   102    1
    11    69    70    1
    12    67    68    2
    13    29    28    2
    14    30    28   am
    15    70    72    1
    16    70    71    1
    17    92    91    2
    18    28    27    1
    19    84    83    2
    20    91    90    1
    21    19    20    1
    22    27    24    1
    23    83    82    1
    24    83    89   am
    25    90    89    1
    26    90    93    1
    27    24    23    1
    28    24    25    1
    29    20    21    1
    30    88    86    1
    31    82    85    1
    32    82    81    1
    33    94    93    1
    34    94    95    1
    35    12    11    2
    36    96    95    1
    37    96    97    1
    38    85    86    1
    39    21    22    2
    40    25    26    2
    41    25    31   am
    42    86    87    1
    43    11    10    1
    44    42    40    1
    45    36    37    1
    46    31    32    1
    47    10    13    1
    48    10     9    1
    49    37    40    1
    50    37    38    1
    51    13    14    1
    52    76    75    2
    53    40    41    1
    54    16    14   ar
    55    16    18   ar
    56    32    33    1
    57    32    35    1
    58    14    15   ar
    59    33    34    2
    60    38    39    2
    61    38    43   am
    62    75    74    1
    63    18    17   ar
    64    54    55    1
    65    43    44    1
    66    15    17   ar
    67    74    73    1
    68    74    77    1
    69    55    56    1
    70    55    58    1
    71    45    44    1
    72    45    46    2
    73    59    58    1
    74    59    60    1
    75    64    62    1
    76    44    47    1
    77     4     3    2
    78    61    62    2
    79    61    60    1
    80    77    78    1
    81    56    57    2
    82    62    63    1
    83    79    78   ar
    84    47    48    1
    85     7     6    1
    86    78    80   ar
    87     3     2    1
    88     6     8    1
    89     6     5    1
    90    48    49    1
    91    49    50    1
    92     2     5    1
    93     2     1    1
    94    50    51    2
    95    52    51    1
    96    51    53    1
