@<TRIPOS>MOLECULE
tmp/5oswA08.pdb
 146 134 0 0 0
SMALL
GASTEIGER

@<TRIPOS>ATOM
      1  N         -4.7890   38.4560   91.4800 N.3   205  PHE205     -0.1241
      2  CA        -4.5280   38.3910   92.9630 C.3   205  PHE205      0.1605
      3  C         -3.8860   39.6040   93.5960 C.2   205  PHE205      0.2264
      4  O         -3.7590   39.6390   94.8410 O.2   205  PHE205     -0.2867
      5  CB        -3.7160   37.1360   93.3030 C.3   205  PHE205      0.0534
      6  CG        -4.4470   35.8480   92.9950 C.ar  205  PHE205     -0.0203
      7  CD1       -5.3830   35.3240   93.9020 C.ar  205  PHE205     -0.0042
      8  CD2       -4.2380   35.1850   91.7820 C.ar  205  PHE205     -0.0042
      9  CE1       -6.0450   34.1040   93.6470 C.ar  205  PHE205     -0.0003
     10  CE2       -4.9280   34.0090   91.5010 C.ar  205  PHE205     -0.0003
     11  CZ        -5.8410   33.4580   92.4180 C.ar  205  PHE205     -0.0000
     12  N          0.7390   42.1770   95.5930 N.3   208  ARG208     -0.1231
     13  CA         1.1240   41.5790   96.8630 C.3   208  ARG208      0.1694
     14  C          1.4280   40.0620   96.6690 C.2   208  ARG208      0.2591
     15  O          2.3360   39.5020   97.3100 O.2   208  ARG208     -0.2718
     16  CB        -0.0210   41.7740   97.8780 C.3   208  ARG208      0.0321
     17  CG         0.4310   41.8560   99.3320 C.3   208  ARG208      0.0489
     18  CD        -0.7110   41.8340  100.3750 C.3   208  ARG208      0.2205
     19  NE        -0.3750   40.9070  101.4720 N.pl3 208  ARG208     -0.0865
     20  CZ        -1.1220   40.6310  102.5460 C.cat 208  ARG208      0.5346
     21  NH1       -2.2840   41.2430  102.7320 N.pl3 208  ARG208      0.1354
     22  NH2       -0.6830   39.7520  103.4680 N.pl3 208  ARG208      0.1354
     23  N          0.6860   39.3710   95.7890 N.am  209  ALA209     -0.1980
     24  CA         0.9220   37.9060   95.6100 C.3   209  ALA209      0.1597
     25  C          2.3360   37.6010   94.9750 C.2   209  ALA209      0.2287
     26  O          3.1020   36.6480   95.3680 O.2   209  ALA209     -0.2864
     27  CB        -0.2200   37.2630   94.7760 C.3   209  ALA209      0.0319
     28  N          4.7540   39.8350   94.9750 N.3   211  LYS211     -0.1231
     29  CA         5.6890   40.2930   96.0410 C.3   211  LYS211      0.1693
     30  C          6.0530   39.1890   97.0060 C.2   211  LYS211      0.2591
     31  O          7.2100   38.9850   97.2700 O.2   211  LYS211     -0.2718
     32  CB         5.1220   41.4660   96.8510 C.3   211  LYS211      0.0285
     33  CG         5.8140   42.7570   96.5830 C.3   211  LYS211      0.0035
     34  CD         5.1470   43.9700   97.2650 C.3   211  LYS211      0.0206
     35  CE         4.3090   44.8030   96.2470 C.3   211  LYS211      0.1093
     36  NZ         4.2320   46.2840   96.5520 N.3   211  LYS211     -0.1314
     37  N          5.0430   38.4500   97.4540 N.am  212  ALA212     -0.1980
     38  CA         5.3260   37.3050   98.3140 C.3   212  ALA212      0.1597
     39  C          6.1310   36.2320   97.6500 C.2   212  ALA212      0.2287
     40  O          7.0010   35.6950   98.2850 O.2   212  ALA212     -0.2864
     41  CB         4.0540   36.7140   98.8770 C.3   212  ALA212      0.0319
     42  N          9.7840   37.5100   97.4120 N.3   215  VAL215     -0.1245
     43  CA        10.4850   37.4480   98.7490 C.3   215  VAL215      0.1561
     44  C         10.9510   36.0480   98.9830 C.2   215  VAL215      0.2260
     45  O         12.1310   35.8270   99.2050 O.2   215  VAL215     -0.2867
     46  CB         9.6440   37.9650   99.9530 C.3   215  VAL215      0.0252
     47  CG1       10.3580   37.7180  101.2910 C.3   215  VAL215      0.0019
     48  CG2        9.3610   39.4540   99.7830 C.3   215  VAL215      0.0019
     49  N         17.2740   41.5320  105.4800 N.3   227  PHE227     -0.1241
     50  CA        15.8960   41.5750  105.0820 C.3   227  PHE227      0.1605
     51  C         15.6640   42.9010  104.3950 C.2   227  PHE227      0.2264
     52  O         14.9010   42.9950  103.4300 O.2   227  PHE227     -0.2867
     53  CB        14.9650   41.4130  106.3070 C.3   227  PHE227      0.0534
     54  CG        13.5340   41.4540  105.9460 C.ar  227  PHE227     -0.0203
     55  CD1       13.0420   40.6290  104.9460 C.ar  227  PHE227     -0.0042
     56  CD2       12.6460   42.3310  106.5820 C.ar  227  PHE227     -0.0042
     57  CE1       11.7140   40.6850  104.5710 C.ar  227  PHE227     -0.0003
     58  CE2       11.3080   42.3500  106.2390 C.ar  227  PHE227     -0.0003
     59  CZ        10.8390   41.5290  105.2070 C.ar  227  PHE227     -0.0000
     60  N         14.0330   43.0100  100.6250 N.3   231  THR231     -0.1218
     61  CA        12.8020   43.8250  100.4230 C.3   231  THR231      0.1862
     62  C         13.0090   44.8870   99.3380 C.2   231  THR231      0.2287
     63  O         12.0420   45.1850   98.5470 O.2   231  THR231     -0.2866
     64  CB        12.3530   44.5450  101.7160 C.3   231  THR231      0.1770
     65  OG1       12.0780   43.5720  102.7350 O.3   231  THR231     -0.2211
     66  CG2       10.9800   45.3510  101.4740 C.3   231  THR231      0.0375
     67  N         13.0240   43.1090   95.8790 N.3   234  VAL234     -0.1245
     68  CA        11.6360   42.6450   95.5370 C.3   234  VAL234      0.1561
     69  C         10.7860   43.8550   95.1040 C.2   234  VAL234      0.2260
     70  O         10.0410   43.7980   94.1220 O.2   234  VAL234     -0.2867
     71  CB        11.0000   41.8540   96.7340 C.3   234  VAL234      0.0252
     72  CG1        9.4910   41.6670   96.6130 C.3   234  VAL234      0.0019
     73  CG2       11.7430   40.5420   96.9950 C.3   234  VAL234      0.0019
     74  N          2.4350   42.9080  107.2090 N.3   323  ASP323     -0.1225
     75  CA         3.0560   42.4630  105.9910 C.3   323  ASP323      0.1805
     76  C          4.5590   42.4170  106.1380 C.2   323  ASP323      0.2597
     77  O          5.2170   41.5580  105.5360 O.2   323  ASP323     -0.2718
     78  CB         2.5750   43.2460  104.7660 C.3   323  ASP323      0.1424
     79  CG         1.4890   42.4850  103.9900 C.2   323  ASP323      0.3668
     80  OD1        0.7570   41.6840  104.6200 O.co2 323  ASP323     -0.2456
     81  OD2        1.3790   42.6600  102.7550 O.co2 323  ASP323     -0.2456
     82  N          5.0890   43.3100  106.9660 N.am  324  VAL324     -0.1980
     83  CA         6.5220   43.3120  107.2550 C.3   324  VAL324      0.1595
     84  C          6.8580   42.1190  108.1320 C.2   324  VAL324      0.2287
     85  O          7.8480   41.4550  107.8730 O.2   324  VAL324     -0.2864
     86  CB         6.9880   44.6390  107.8820 C.3   324  VAL324      0.0276
     87  CG1        8.3960   44.5260  108.4930 C.3   324  VAL324      0.0022
     88  CG2        6.8900   45.7380  106.8340 C.3   324  VAL324      0.0022
     89  N          5.0630   39.2220  108.2580 N.3   326  LEU326     -0.1231
     90  CA         4.9100   37.9990  107.4670 C.3   326  LEU326      0.1693
     91  C          6.0110   37.8920  106.3700 C.2   326  LEU326      0.2592
     92  O          6.4460   36.7890  106.0020 O.2   326  LEU326     -0.2718
     93  CB         3.4820   37.8550  106.9540 C.3   326  LEU326      0.0284
     94  CG         2.4260   37.4300  107.9750 C.3   326  LEU326      0.0019
     95  CD1        1.0000   37.7420  107.4870 C.3   326  LEU326      0.0001
     96  CD2        2.5430   35.9330  108.3730 C.3   326  LEU326      0.0001
     97  N          6.4650   39.0390  105.8870 N.am  327  GLY327     -0.1957
     98  CA         7.5380   39.0840  104.9250 C.3   327  GLY327      0.1869
     99  C          8.8200   38.5670  105.5740 C.2   327  GLY327      0.2309
    100  O          9.5540   37.7780  104.9770 O.2   327  GLY327     -0.2863
    101  N          8.7070   34.8390  105.8920 N.3   330  LEU330     -0.1245
    102  CA         9.0560   34.2600  104.5990 C.3   330  LEU330      0.1561
    103  C         10.5520   34.2830  104.2540 C.2   330  LEU330      0.2260
    104  O         11.1830   33.2380  103.9110 O.2   330  LEU330     -0.2867
    105  CB         8.2460   34.9230  103.5070 C.3   330  LEU330      0.0270
    106  CG         7.7770   34.1610  102.3110 C.3   330  LEU330      0.0019
    107  CD1        7.2120   32.7400  102.6710 C.3   330  LEU330      0.0001
    108  CD2        6.6730   34.9500  101.5610 C.3   330  LEU330      0.0001
    109  N          5.3280   29.5480  100.8220 N.3   346  LEU346     -0.1245
    110  CA         4.1850   30.4580  100.8650 C.3   346  LEU346      0.1561
    111  C          3.0070   29.8220  101.6030 C.2   346  LEU346      0.2260
    112  O          2.3430   30.5320  102.4000 O.2   346  LEU346     -0.2867
    113  CB         3.7970   30.8310   99.3820 C.3   346  LEU346      0.0270
    114  CG         4.9180   31.6370   98.6100 C.3   346  LEU346      0.0019
    115  CD1        4.6400   31.7640   97.0810 C.3   346  LEU346      0.0001
    116  CD2        5.0920   33.0360   99.1620 C.3   346  LEU346      0.0001
    117  N          3.7370   30.1270  105.3140 N.3   349  ALA349     -0.1231
    118  CA         3.5370   31.4600  105.8510 C.3   349  ALA349      0.1694
    119  C          1.9820   31.7120  105.9300 C.2   349  ALA349      0.2591
    120  O          1.5260   32.3690  106.8400 O.2   349  ALA349     -0.2718
    121  CB         4.2090   32.4520  104.9360 C.3   349  ALA349      0.0304
    122  N          1.2030   31.1710  104.9860 N.am  350  LYS350     -0.1980
    123  CA        -0.2800   31.3130  105.0470 C.3   350  LYS350      0.1596
    124  C         -0.8220   30.6380  106.3290 C.2   350  LYS350      0.2287
    125  O         -1.7230   31.1840  106.9670 O.2   350  LYS350     -0.2864
    126  CB        -0.8650   30.7150  103.7640 C.3   350  LYS350      0.0298
    127  CG        -2.3230   31.0520  103.4980 C.3   350  LYS350      0.0038
    128  CD        -2.8870   30.3510  102.2300 C.3   350  LYS350      0.0206
    129  CE        -4.4150   30.3520  102.1640 C.3   350  LYS350      0.1093
    130  NZ        -5.0490   31.6850  101.8730 N.3   350  LYS350     -0.1314
    131  N          0.2650   32.6960  109.4070 N.3   353  GLU353     -0.1245
    132  CA        -0.7600   33.7270  109.4240 C.3   353  GLU353      0.1567
    133  C         -2.0940   33.2930  110.0830 C.2   353  GLU353      0.2260
    134  O         -2.5830   33.9320  111.0360 O.2   353  GLU353     -0.2867
    135  CB        -1.0030   34.1720  108.0160 C.3   353  GLU353      0.0388
    136  CG        -2.0920   35.2530  107.9780 C.3   353  GLU353      0.1160
    137  CD        -2.1660   35.9550  106.6220 C.2   353  GLU353      0.3649
    138  OE1       -2.8590   36.9880  106.5370 O.co2 353  GLU353     -0.2457
    139  OE2       -1.5430   35.4900  105.6530 O.co2 353  GLU353     -0.2457
    140  N         -1.5760   30.1400   96.1410 N.3   481  VAL481     -0.1245
    141  CA        -0.5600   29.2250   96.5980 C.3   481  VAL481      0.1561
    142  C         -1.1310   27.8980   96.9370 C.2   481  VAL481      0.2260
    143  O         -0.3260   26.9400   97.0670 O.2   481  VAL481     -0.2867
    144  CB         0.2090   29.6590   97.7990 C.3   481  VAL481      0.0252
    145  CG1        1.1980   30.7430   97.3760 C.3   481  VAL481      0.0019
    146  CG2       -0.6770   30.0400   98.9490 C.3   481  VAL481      0.0019
@<TRIPOS>BOND
     1     1     2    1
     2    10     8   ar
     3    10    11   ar
     4     8     6   ar
     5    11     9   ar
     6     2     5    1
     7     2     3    1
     8     6     5    1
     9     6     7   ar
    10     3     4    2
    11     9     7   ar
    12    70    69    2
    13    27    24    1
    14    28    29    1
    15    25    26    2
    16    25    24    1
    17    69    68    1
    18    68    67    1
    19    68    71    1
    20    12    13    1
    21    24    23    1
    22    23    14   am
    23    29    32    1
    24    29    30    1
    25   140   141    1
    26    35    36    1
    27    35    34    1
    28    33    32    1
    29    33    34    1
    30   141   142    1
    31   141   144    1
    32    72    71    1
    33    14    13    1
    34    14    15    2
    35    71    73    1
    36    13    16    1
    37   142   143    2
    38    30    31    2
    39    30    37   am
    40   115   114    1
    41   145   144    1
    42    42    43    1
    43    37    38    1
    44    39    40    2
    45    39    38    1
    46   144   146    1
    47    16    17    1
    48    38    41    1
    49    63    62    2
    50   114   116    1
    51   114   113    1
    52    43    44    1
    53    43    46    1
    54    44    45    2
    55    17    18    1
    56    62    61    1
    57   113   110    1
    58    48    46    1
    59    46    47    1
    60    18    19    1
    61    61    60    1
    62    61    64    1
    63   109   110    1
    64   110   111    1
    65    19    20    2
    66    66    64    1
    67   108   106    1
    68   111   112    2
    69    64    65    1
    70   130   129    1
    71   129   128    1
    72   128   127    1
    73   106   107    1
    74   106   105    1
    75    20    21    1
    76    20    22    1
    77    81    79   ar
    78    52    51    2
    79   127   126    1
    80   105   102    1
    81   126   123    1
    82   104   103    2
    83    79    80   ar
    84    79    78    1
    85   103   102    1
    86    51    50    1
    87    57    55   ar
    88    57    59   ar
    89   102   101    1
    90    78    75    1
    91    98    99    1
    92    98    97    1
    93   121   118    1
    94    55    54   ar
    95   100    99    2
    96   122   123    1
    97   122   119   am
    98   123   124    1
    99    50    49    1
   100    50    53    1
   101    59    58   ar
   102   117   118    1
   103    77    76    2
   104   139   137   ar
   105   118   119    1
   106    97    91   am
   107   119   120    2
   108    54    53    1
   109    54    56   ar
   110    75    76    1
   111    75    74    1
   112    92    91    2
   113    76    82   am
   114    58    56   ar
   115   124   125    2
   116    91    90    1
   117   138   137   ar
   118   137   136    1
   119    88    86    1
   120    93    90    1
   121    93    94    1
   122    82    83    1
   123    83    86    1
   124    83    84    1
   125    90    89    1
   126    95    94    1
   127    85    84    2
   128    86    87    1
   129    94    96    1
   130   136   135    1
   131   135   132    1
   132   131   132    1
   133   132   133    1
   134   133   134    2
