@<TRIPOS>MOLECULE
tmp/5oswA05.pdb
 108 102 0 0 0
SMALL
GASTEIGER

@<TRIPOS>ATOM
      1  N         19.2170   52.9520   70.5910 N.3    16  GLU16      -0.1245
      2  CA        18.2630   52.7600   69.4710 C.3    16  GLU16       0.1567
      3  C         17.8940   51.3210   69.2920 C.2    16  GLU16       0.2260
      4  O         16.7060   51.0390   69.0600 O.2    16  GLU16      -0.2867
      5  CB        18.8210   53.3340   68.1610 C.3    16  GLU16       0.0388
      6  CG        17.9490   53.2920   66.9090 C.3    16  GLU16       0.1160
      7  CD        18.5810   54.0890   65.7400 C.2    16  GLU16       0.3649
      8  OE1       18.3780   53.7630   64.5580 O.co2  16  GLU16      -0.2457
      9  OE2       19.3260   55.0240   65.9920 O.co2  16  GLU16      -0.2457
     10  N         14.0340   50.0100   69.6390 N.3    20  GLN20      -0.1231
     11  CA        13.2670   49.5160   68.4930 C.3    20  GLN20       0.1698
     12  C         12.6730   48.1330   68.7220 C.2    20  GLN20       0.2592
     13  O         11.4860   47.9000   68.4140 O.2    20  GLN20      -0.2718
     14  CB        14.1720   49.4840   67.2910 C.3    20  GLN20       0.0381
     15  CG        14.3830   50.8540   66.6800 C.3    20  GLN20       0.0905
     16  CD        15.1640   50.7710   65.3830 C.2    20  GLN20       0.2608
     17  OE1       16.0390   49.8890   65.2230 O.2    20  GLN20      -0.2717
     18  NE2       14.9120   51.7280   64.4760 N.am   20  GLN20      -0.0878
     19  N         13.5010   47.2050   69.2130 N.am   21  GLY21      -0.1957
     20  CA        13.0110   45.8590   69.6170 C.3    21  GLY21       0.1869
     21  C         11.8220   45.9120   70.5220 C.2    21  GLY21       0.2309
     22  O         10.7770   45.3010   70.2490 O.2    21  GLY21      -0.2863
     23  N          8.7260   47.0980   68.6780 N.3    24  LEU24      -0.1245
     24  CA         8.2380   46.0110   67.8430 C.3    24  LEU24       0.1561
     25  C          7.5130   44.9440   68.6450 C.2    24  LEU24       0.2260
     26  O          6.3560   44.5940   68.3210 O.2    24  LEU24      -0.2867
     27  CB         9.3710   45.3940   67.0190 C.3    24  LEU24       0.0270
     28  CG         9.0850   44.1810   66.1150 C.3    24  LEU24       0.0019
     29  CD1        8.0630   44.5210   65.0820 C.3    24  LEU24       0.0001
     30  CD2       10.3180   43.6680   65.4320 C.3    24  LEU24       0.0001
     31  N          4.1470   41.7230   59.7300 N.3    36  PHE36      -0.1241
     32  CA         5.4990   42.2240   60.0660 C.3    36  PHE36       0.1605
     33  C          5.9050   43.6220   59.5360 C.2    36  PHE36       0.2264
     34  O          6.2540   44.5100   60.3250 O.2    36  PHE36      -0.2867
     35  CB         6.4970   41.1140   59.6810 C.3    36  PHE36       0.0534
     36  CG         7.9400   41.4040   59.9880 C.ar   36  PHE36      -0.0203
     37  CD1        8.3610   41.7090   61.2720 C.ar   36  PHE36      -0.0042
     38  CD2        8.8930   41.2990   58.9810 C.ar   36  PHE36      -0.0042
     39  CE1        9.7010   41.9300   61.5410 C.ar   36  PHE36      -0.0003
     40  CE2       10.2390   41.5430   59.2290 C.ar   36  PHE36      -0.0003
     41  CZ        10.6390   41.8690   60.5090 C.ar   36  PHE36      -0.0000
     42  N          6.9070   47.1110   61.3740 N.3    40  VAL40      -0.1245
     43  CA         8.2440   47.6300   61.1350 C.3    40  VAL40       0.1561
     44  C          8.1400   49.1210   60.6940 C.2    40  VAL40       0.2260
     45  O          8.8380   50.0090   61.2400 O.2    40  VAL40      -0.2867
     46  CB         9.1130   46.7410   60.1880 C.3    40  VAL40       0.0252
     47  CG1       10.4290   47.4150   59.8320 C.3    40  VAL40       0.0019
     48  CG2        9.4660   45.4040   60.8490 C.3    40  VAL40       0.0019
     49  N          7.5080   51.1560   63.7990 N.3    43  VAL43      -0.1231
     50  CA         8.7220   51.2060   64.6200 C.3    43  VAL43       0.1692
     51  C          9.7040   52.2920   64.1270 C.2    43  VAL43       0.2591
     52  O         10.1790   53.0900   64.9300 O.2    43  VAL43      -0.2718
     53  CB         9.4220   49.8120   64.6870 C.3    43  VAL43       0.0266
     54  CG1       10.7980   49.9080   65.3430 C.3    43  VAL43       0.0020
     55  CG2        8.5550   48.8190   65.4490 C.3    43  VAL43       0.0020
     56  N         10.0020   52.3080   62.8190 N.am   44  LYS44      -0.1980
     57  CA        10.8820   53.3280   62.2140 C.3    44  LYS44       0.1596
     58  C         10.3530   54.7330   62.4180 C.2    44  LYS44       0.2287
     59  O         11.1340   55.6760   62.7060 O.2    44  LYS44      -0.2864
     60  CB        11.0610   53.0650   60.7330 C.3    44  LYS44       0.0298
     61  CG        11.6330   51.6840   60.4470 C.3    44  LYS44       0.0038
     62  CD        11.6540   51.4080   58.9560 C.3    44  LYS44       0.0206
     63  CE        12.6260   50.2890   58.6310 C.3    44  LYS44       0.1093
     64  NZ        12.4730   49.9040   57.2040 N.3    44  LYS44      -0.1314
     65  N         19.4100   39.7960   55.2600 N.3   129  ASP129     -0.1239
     66  CA        19.1960   40.8990   56.1590 C.3   129  ASP129      0.1674
     67  C         19.0960   40.4070   57.5980 C.2   129  ASP129      0.2266
     68  O         18.0250   40.0340   58.0670 O.2   129  ASP129     -0.2867
     69  CB        17.9450   41.6810   55.7080 C.3   129  ASP129      0.1410
     70  CG        17.7590   42.9860   56.4850 C.2   129  ASP129      0.3668
     71  OD1       16.9880   43.8330   55.9720 O.co2 129  ASP129     -0.2456
     72  OD2       18.3340   43.1470   57.6100 O.co2 129  ASP129     -0.2456
     73  N         19.3180   42.0370   60.4100 N.3   131  LYS131     -0.1231
     74  CA        18.4820   42.9540   61.2120 C.3   131  LYS131      0.1693
     75  C         17.0120   42.5710   61.0720 C.2   131  LYS131      0.2591
     76  O         16.3210   42.4100   62.0910 O.2   131  LYS131     -0.2718
     77  CB        18.7240   44.4430   60.8590 C.3   131  LYS131      0.0285
     78  CG        17.9670   45.4800   61.6990 C.3   131  LYS131      0.0035
     79  CD        18.1940   45.2660   63.2010 C.3   131  LYS131      0.0206
     80  CE        18.5510   46.5490   63.9200 C.3   131  LYS131      0.1093
     81  NZ        19.1430   46.2090   65.2410 N.3   131  LYS131     -0.1314
     82  N         16.5580   42.4150   59.8220 N.am  132  LYS132     -0.1980
     83  CA        15.2340   41.8850   59.5480 C.3   132  LYS132      0.1596
     84  C         15.0480   40.5020   60.1680 C.2   132  LYS132      0.2287
     85  O         13.9570   40.1870   60.5950 O.2   132  LYS132     -0.2864
     86  CB        14.9590   41.7990   58.0580 C.3   132  LYS132      0.0298
     87  CG        13.5820   41.2650   57.6990 C.3   132  LYS132      0.0038
     88  CD        13.3300   41.3000   56.1950 C.3   132  LYS132      0.0206
     89  CE        13.3900   42.7190   55.6040 C.3   132  LYS132      0.1093
     90  NZ        12.5890   43.7130   56.3780 N.3   132  LYS132     -0.1314
     91  N         16.5210   39.2000   62.9770 N.3   134  TRP134     -0.1227
     92  CA        16.3770   39.4430   64.4460 C.3   134  TRP134      0.1737
     93  C         14.9410   39.9480   64.7270 C.2   134  TRP134      0.2596
     94  O         14.2000   39.3100   65.4730 O.2   134  TRP134     -0.2718
     95  CB        17.4200   40.4760   64.8760 C.3   134  TRP134      0.0564
     96  CG        17.4850   40.8780   66.3370 C.ar  134  TRP134      0.0003
     97  CD1       18.1150   40.1910   67.3410 C.ar  134  TRP134      0.0946
     98  CD2       17.0330   42.1080   66.9230 C.ar  134  TRP134      0.0152
     99  NE1       18.0390   40.8840   68.5200 N.ar  134  TRP134     -0.2442
    100  CE2       17.3830   42.0660   68.2940 C.ar  134  TRP134      0.0810
    101  CE3       16.3650   43.2470   66.4270 C.ar  134  TRP134      0.0012
    102  CZ2       17.0700   43.1050   69.1810 C.ar  134  TRP134      0.0191
    103  CZ3       16.0420   44.2730   67.3230 C.ar  134  TRP134      0.0001
    104  CH2       16.4100   44.1990   68.6840 C.ar  134  TRP134      0.0015
    105  N         14.5550   41.0400   64.0690 N.am  135  GLY135     -0.1957
    106  CA        13.2160   41.6100   64.2020 C.3   135  GLY135      0.1869
    107  C         12.0920   40.6230   63.9540 C.2   135  GLY135      0.2309
    108  O         11.0820   40.6570   64.6370 O.2   135  GLY135     -0.2863
@<TRIPOS>BOND
     1    65    66    1
     2    89    88    1
     3    89    90    1
     4    69    66    1
     5    69    70    1
     6    71    70   ar
     7    66    67    1
     8    88    87    1
     9    70    72   ar
    10    64    63    1
    11    67    68    2
    12    87    86    1
    13    86    83    1
    14    63    62    1
    15    62    61    1
    16    38    40   ar
    17    38    36   ar
    18    40    41   ar
    19    33    32    1
    20    33    34    2
    21    83    82    1
    22    83    84    1
    23    35    36    1
    24    35    32    1
    25    31    32    1
    26    82    75   am
    27    47    46    1
    28    36    37   ar
    29    84    85    2
    30    46    48    1
    31    46    43    1
    32    73    74    1
    33    61    60    1
    34    41    39   ar
    35    44    43    1
    36    44    45    2
    37    60    57    1
    38    77    74    1
    39    77    78    1
    40    75    74    1
    41    75    76    2
    42    43    42    1
    43    37    39   ar
    44    78    79    1
    45    57    58    1
    46    57    56    1
    47    58    59    2
    48    56    51   am
    49    91    92    1
    50    79    80    1
    51    49    50    1
    52    80    81    1
    53   107   106    1
    54   107   108    2
    55   105   106    1
    56   105    93   am
    57    51    50    1
    58    51    52    2
    59    92    93    1
    60    92    95    1
    61    18    16   am
    62     8     7   ar
    63    50    53    1
    64    53    54    1
    65    53    55    1
    66    93    94    2
    67    95    96    1
    68    29    28    1
    69    17    16    2
    70    16    15    1
    71    30    28    1
    72     7     9   ar
    73     7     6    1
    74    28    27    1
    75    96    98   ar
    76    96    97   ar
    77   101    98   ar
    78   101   103   ar
    79    15    14    1
    80     6     5    1
    81    98   100   ar
    82    27    24    1
    83    14    11    1
    84   103   104   ar
    85    97    99   ar
    86    24    25    1
    87    24    23    1
    88     5     2    1
    89   100    99   ar
    90   100   102   ar
    91    26    25    2
    92    13    12    2
    93    11    12    1
    94    11    10    1
    95   104   102   ar
    96    12    19   am
    97     4     3    2
    98    19    20    1
    99     3     2    1
   100     2     1    1
   101    20    21    1
   102    22    21    2
