@<TRIPOS>MOLECULE
tmp/5oswA07.pdb
 98 92 0 0 0
SMALL
GASTEIGER

@<TRIPOS>ATOM
      1  N          2.2190   33.4780   84.1620 N.3   197  LEU197     -0.1245
      2  CA         1.8310   33.3830   85.5560 C.3   197  LEU197      0.1561
      3  C          2.1330   34.6100   86.4170 C.2   197  LEU197      0.2260
      4  O          1.3150   34.9930   87.2280 O.2   197  LEU197     -0.2867
      5  CB         2.4660   32.1080   86.1760 C.3   197  LEU197      0.0270
      6  CG         2.3190   31.9780   87.6830 C.3   197  LEU197      0.0019
      7  CD1        0.8430   32.0240   88.1230 C.3   197  LEU197      0.0001
      8  CD2        2.9020   30.6580   88.1840 C.3   197  LEU197      0.0001
      9  N         -0.9220   36.5530   88.1130 N.3   201  SER201     -0.1217
     10  CA        -0.9760   36.7360   89.5850 C.3   201  SER201      0.1889
     11  C         -1.2620   38.2190   89.9000 C.2   201  SER201      0.2288
     12  O         -2.1080   38.5240   90.7310 O.2   201  SER201     -0.2866
     13  CB         0.2860   36.2680   90.2940 C.3   201  SER201      0.2089
     14  OG         1.3260   37.2000   90.0570 O.3   201  SER201     -0.2183
     15  N          0.6860   39.3710   95.7890 N.3   209  ALA209     -0.1231
     16  CA         0.9220   37.9060   95.6100 C.3   209  ALA209      0.1694
     17  C          2.3360   37.6010   94.9750 C.2   209  ALA209      0.2591
     18  O          3.1020   36.6480   95.3680 O.2   209  ALA209     -0.2718
     19  CB        -0.2200   37.2630   94.7760 C.3   209  ALA209      0.0304
     20  N          2.5920   38.3470   93.8990 N.am  210  LEU210     -0.1980
     21  CA         3.8930   38.3490   93.2320 C.3   210  LEU210      0.1596
     22  C          5.0050   38.7630   94.2040 C.2   210  LEU210      0.2287
     23  O          6.0930   38.1470   94.1780 O.2   210  LEU210     -0.2864
     24  CB         3.8770   39.2100   91.9630 C.3   210  LEU210      0.0297
     25  CG         5.1820   39.0160   91.1440 C.3   210  LEU210      0.0022
     26  CD1        5.6590   37.5740   90.8450 C.3   210  LEU210      0.0001
     27  CD2        5.0940   39.7990   89.8330 C.3   210  LEU210      0.0001
     28  N          5.0430   38.4500   97.4540 N.3   212  ALA212     -0.1231
     29  CA         5.3260   37.3050   98.3140 C.3   212  ALA212      0.1694
     30  C          6.1310   36.2320   97.6500 C.2   212  ALA212      0.2592
     31  O          7.0010   35.6950   98.2850 O.2   212  ALA212     -0.2718
     32  CB         4.0540   36.7140   98.8770 C.3   212  ALA212      0.0304
     33  N          5.8500   35.9030   96.3800 N.am  213  TRP213     -0.1976
     34  CA         6.5270   34.7830   95.7110 C.3   213  TRP213      0.1640
     35  C          7.9890   35.2410   95.6320 C.2   213  TRP213      0.2290
     36  O          8.9090   34.4820   95.9320 O.2   213  TRP213     -0.2864
     37  CB         5.9720   34.5010   94.2900 C.3   213  TRP213      0.0576
     38  CG         6.8820   33.5620   93.4530 C.ar  213  TRP213      0.0006
     39  CD1        8.0780   33.8870   92.8840 C.ar  213  TRP213      0.0946
     40  CD2        6.7020   32.1690   93.2270 C.ar  213  TRP213      0.0152
     41  NE1        8.6790   32.7600   92.3290 N.ar  213  TRP213     -0.2442
     42  CE2        7.8340   31.6960   92.5000 C.ar  213  TRP213      0.0810
     43  CE3        5.7020   31.2800   93.5520 C.ar  213  TRP213      0.0012
     44  CZ2        8.0000   30.3360   92.1150 C.ar  213  TRP213      0.0191
     45  CZ3        5.8380   29.9190   93.1590 C.ar  213  TRP213      0.0001
     46  CH2        6.9800   29.4640   92.4320 C.ar  213  TRP213      0.0015
     47  N          6.3840   27.5220   96.4780 N.3   343  SER343     -0.1217
     48  CA         4.9470   27.3650   96.8220 C.3   343  SER343      0.1889
     49  C          4.7490   26.7860   98.2360 C.2   343  SER343      0.2288
     50  O          3.8300   27.2340   98.9340 O.2   343  SER343     -0.2866
     51  CB         4.1490   26.5930   95.7820 C.3   343  SER343      0.2089
     52  OG         4.6700   25.3000   95.6110 O.3   343  SER343     -0.2183
     53  N          5.3280   29.5480  100.8220 N.3   346  LEU346     -0.1231
     54  CA         4.1850   30.4580  100.8650 C.3   346  LEU346      0.1693
     55  C          3.0070   29.8220  101.6030 C.2   346  LEU346      0.2591
     56  O          2.3430   30.5320  102.4000 O.2   346  LEU346     -0.2718
     57  CB         3.7970   30.8310   99.3820 C.3   346  LEU346      0.0284
     58  CG         4.9180   31.6370   98.6100 C.3   346  LEU346      0.0019
     59  CD1        4.6400   31.7640   97.0810 C.3   346  LEU346      0.0001
     60  CD2        5.0920   33.0360   99.1620 C.3   346  LEU346      0.0001
     61  N          2.8380   28.4880  101.4810 N.am  347  ARG347     -0.1980
     62  CA         1.7900   27.7880  102.2260 C.3   347  ARG347      0.1597
     63  C          2.1310   27.8100  103.7230 C.2   347  ARG347      0.2287
     64  O          1.2450   27.9370  104.5580 O.2   347  ARG347     -0.2864
     65  CB         1.5610   26.3080  101.7350 C.3   347  ARG347      0.0334
     66  CG         0.8920   26.1890  100.3650 C.3   347  ARG347      0.0492
     67  CD         0.9260   24.7570   99.8570 C.3   347  ARG347      0.2205
     68  NE         0.8940   24.7430   98.3680 N.pl3 347  ARG347     -0.0865
     69  CZ         1.5900   23.8990   97.6310 C.cat 347  ARG347      0.5346
     70  NH1        2.3800   23.0000   98.2310 N.pl3 347  ARG347      0.1354
     71  NH2        1.5010   23.9410   96.3110 N.pl3 347  ARG347      0.1354
     72  N          2.8630   24.3890   88.8480 N.3   453  SER453     -0.1217
     73  CA         2.2180   25.7610   88.8480 C.3   453  SER453      0.1889
     74  C          2.0680   26.3760   87.4710 C.2   453  SER453      0.2288
     75  O          1.0510   27.0700   87.1890 O.2   453  SER453     -0.2866
     76  CB         2.9700   26.7660   89.6720 C.3   453  SER453      0.2089
     77  OG         2.9870   26.3500   91.0250 O.3   453  SER453     -0.2183
     78  N         -7.1540   30.5430   95.8750 N.3   479  SER479     -0.1202
     79  CA        -5.9010   31.0240   96.5180 C.3   479  SER479      0.2020
     80  C         -4.8290   30.5460   95.6130 C.2   479  SER479      0.2619
     81  O         -4.8360   29.3730   95.2020 O.2   479  SER479     -0.2717
     82  CB        -5.6950   30.2920   97.8700 C.3   479  SER479      0.2103
     83  OG        -4.4090   30.6140   98.4300 O.3   479  SER479     -0.2182
     84  N         -3.9520   31.4410   95.2300 N.am  480  LEU480     -0.1965
     85  CA        -2.8740   31.1120   94.3220 C.3   480  LEU480      0.1728
     86  C         -1.9060   30.0740   94.8650 C.2   480  LEU480      0.2616
     87  O         -1.4970   29.2020   94.1370 O.2   480  LEU480     -0.2715
     88  CB        -2.0680   32.3750   93.9860 C.3   480  LEU480      0.0311
     89  CG        -1.1820   32.3080   92.7590 C.3   480  LEU480      0.0022
     90  CD1       -1.9020   31.7840   91.5640 C.3   480  LEU480      0.0001
     91  CD2       -0.6020   33.7070   92.3960 C.3   480  LEU480      0.0001
     92  N         -1.5760   30.1400   96.1410 N.am  481  VAL481     -0.1977
     93  CA        -0.5600   29.2250   96.5980 C.3   481  VAL481      0.1596
     94  C         -1.1310   27.8980   96.9370 C.2   481  VAL481      0.2287
     95  O         -0.3260   26.9400   97.0670 O.2   481  VAL481     -0.2864
     96  CB         0.2090   29.6590   97.7990 C.3   481  VAL481      0.0276
     97  CG1        1.1980   30.7430   97.3760 C.3   481  VAL481      0.0022
     98  CG2       -0.6770   30.0400   98.9490 C.3   481  VAL481      0.0022
@<TRIPOS>BOND
     1     1     2    1
     2     2     5    1
     3     2     3    1
     4     5     6    1
     5     3     4    2
     6    75    74    2
     7    74    73    1
     8     6     7    1
     9     6     8    1
    10     9    10    1
    11    72    73    1
    12    73    76    1
    13    10    11    1
    14    10    13    1
    15    76    77    1
    16    27    25    1
    17    11    12    2
    18    14    13    1
    19    26    25    1
    20    25    24    1
    21    90    89    1
    22    24    21    1
    23    44    46   ar
    24    44    42   ar
    25    41    42   ar
    26    41    39   ar
    27    91    89    1
    28    46    45   ar
    29    42    40   ar
    30    89    88    1
    31    39    38   ar
    32    45    43   ar
    33    40    38   ar
    34    40    43   ar
    35    21    20    1
    36    21    22    1
    37    38    37    1
    38    20    17   am
    39    88    85    1
    40    87    86    2
    41    23    22    2
    42    37    34    1
    43    85    86    1
    44    85    84    1
    45    19    16    1
    46    86    92   am
    47    17    18    2
    48    17    16    1
    49    81    80    2
    50    84    80   am
    51    16    15    1
    52    52    51    1
    53    80    79    1
    54    35    34    1
    55    35    36    2
    56    34    33    1
    57    51    48    1
    58    78    79    1
    59    92    93    1
    60    71    69    1
    61    33    30   am
    62    47    48    1
    63    79    82    1
    64    93    94    1
    65    93    96    1
    66    48    49    1
    67    94    95    2
    68    59    58    1
    69    97    96    1
    70    28    29    1
    71    69    70    1
    72    69    68    2
    73    30    31    2
    74    30    29    1
    75    96    98    1
    76    82    83    1
    77    49    50    2
    78    29    32    1
    79    68    67    1
    80    58    60    1
    81    58    57    1
    82    57    54    1
    83    67    66    1
    84    66    65    1
    85    53    54    1
    86    54    55    1
    87    61    55   am
    88    61    62    1
    89    55    56    2
    90    65    62    1
    91    62    63    1
    92    63    64    2
