@<TRIPOS>MOLECULE
tmp/5oswA06.pdb
 101 100 0 0 0
SMALL
GASTEIGER

@<TRIPOS>ATOM
      1  N         19.9140   31.4350  113.9490 N.3   302  PRO302     -0.2103
      2  CA        19.1670   31.0250  115.1250 C.3   302  PRO302      0.1489
      3  C         17.9630   30.1230  114.7430 C.2   302  PRO302      0.2418
      4  O         17.5720   30.0580  113.5450 O.2   302  PRO302     -0.2734
      5  CB        18.7400   32.3540  115.7770 C.3   302  PRO302      0.0282
      6  CG        18.9550   33.4030  114.7470 C.3   302  PRO302      0.0208
      7  CD        19.8580   32.8870  113.7050 C.3   302  PRO302      0.0893
      8  N         17.3880   29.4210  115.7320 N.am  303  PRO303     -0.2718
      9  CA        16.0930   28.7850  115.5320 C.3   303  PRO303      0.1535
     10  C         15.0200   29.8520  115.2000 C.2   303  PRO303      0.2598
     11  O         14.9700   30.8840  115.8070 O.2   303  PRO303     -0.2715
     12  CB        15.7750   28.1850  116.9110 C.3   303  PRO303      0.0310
     13  CG        16.5910   29.0460  117.8870 C.3   303  PRO303      0.0237
     14  CD        17.8790   29.3030  117.1220 C.3   303  PRO303      0.0939
     15  N         14.1780   29.5390  114.2320 N.am  304  LEU304     -0.1964
     16  CA        12.9720   30.2570  113.8620 C.3   304  LEU304      0.1728
     17  C         12.0430   30.5380  115.0450 C.2   304  LEU304      0.2616
     18  O         11.4130   31.6050  115.1320 O.2   304  LEU304     -0.2715
     19  CB        12.2240   29.4480  112.7620 C.3   304  LEU304      0.0311
     20  CG        12.9290   29.5140  111.3940 C.3   304  LEU304      0.0022
     21  CD1       12.2470   28.6020  110.3460 C.3   304  LEU304      0.0001
     22  CD2       12.8940   30.9470  110.8490 C.3   304  LEU304      0.0001
     23  N         11.9960   29.6390  116.0170 N.am  305  THR305     -0.1951
     24  CA        11.1100   29.9050  117.1260 C.3   305  THR305      0.1897
     25  C         11.4270   31.1320  117.9240 C.2   305  THR305      0.2313
     26  O         10.5500   31.6140  118.6180 O.2   305  THR305     -0.2863
     27  CB        11.1090   28.7530  118.0680 C.3   305  THR305      0.1794
     28  OG1       12.4850   28.3690  118.2340 O.3   305  THR305     -0.2208
     29  CG2       10.2350   27.6210  117.4410 C.3   305  THR305      0.0378
     30  N         12.3560   31.8570  106.8550 N.3   333  TYR333     -0.1241
     31  CA        12.1300   30.4090  106.5780 C.3   333  TYR333      0.1605
     32  C         12.8340   30.0230  105.2480 C.2   333  TYR333      0.2264
     33  O         13.5340   28.9950  105.1630 O.2   333  TYR333     -0.2867
     34  CB        10.6010   30.1610  106.5190 C.3   333  TYR333      0.0534
     35  CG        10.2290   28.7980  107.0240 C.ar  333  TYR333     -0.0201
     36  CD1       10.9410   27.6560  106.6330 C.ar  333  TYR333     -0.0009
     37  CD2        9.2070   28.6680  107.9700 C.ar  333  TYR333     -0.0009
     38  CE1       10.5730   26.3760  107.1380 C.ar  333  TYR333      0.0417
     39  CE2        8.8340   27.4270  108.4730 C.ar  333  TYR333      0.0417
     40  CZ         9.5500   26.2960  108.1030 C.ar  333  TYR333      0.1957
     41  OH         9.1730   25.0270  108.5600 O.3   333  TYR333     -0.2866
     42  N         16.6840   29.5150  105.0370 N.3   336  ARG336     -0.1231
     43  CA        17.0790   28.3140  105.7030 C.3   336  ARG336      0.1694
     44  C         16.7490   27.0380  104.9640 C.2   336  ARG336      0.2592
     45  O         17.1410   25.9320  105.4190 O.2   336  ARG336     -0.2718
     46  CB        16.4710   28.2590  107.1230 C.3   336  ARG336      0.0321
     47  CG        17.0490   29.2470  108.1360 C.3   336  ARG336      0.0489
     48  CD        16.1430   29.3920  109.3590 C.3   336  ARG336      0.2205
     49  NE        16.6670   30.2230  110.4490 N.pl3 336  ARG336     -0.0865
     50  CZ        16.8020   31.5570  110.4500 C.cat 336  ARG336      0.5346
     51  NH1       16.4120   32.2820  109.3920 N.pl3 336  ARG336      0.1354
     52  NH2       17.2920   32.1620  111.5210 N.pl3 336  ARG336      0.1354
     53  N         16.0740   27.1340  103.8280 N.am  337  HIS337     -0.1976
     54  CA        15.4940   25.9720  103.1440 C.3   337  HIS337      0.1656
     55  C         15.4020   26.0400  101.5960 C.2   337  HIS337      0.2291
     56  O         14.3110   26.1260  101.0370 O.2   337  HIS337     -0.2864
     57  CB        14.0860   25.6940  103.7010 C.3   337  HIS337      0.0771
     58  CG        14.1250   25.0990  105.0670 C.ar  337  HIS337      0.0820
     59  ND1       14.4160   23.7670  105.2770 N.ar  337  HIS337     -0.2267
     60  CD2       13.9810   25.6550  106.2880 C.ar  337  HIS337      0.1154
     61  CE1       14.4360   23.5300  106.5730 C.ar  337  HIS337      0.1986
     62  NE2       14.1480   24.6480  107.2080 N.ar  337  HIS337     -0.2212
     63  N         13.1180   23.6190   99.7240 N.3   340  TYR340     -0.1241
     64  CA        11.6910   23.8150   99.7690 C.3   340  TYR340      0.1605
     65  C         11.2870   24.4810   98.4760 C.2   340  TYR340      0.2264
     66  O         11.9210   25.4390   97.9710 O.2   340  TYR340     -0.2867
     67  CB        11.2390   24.5990  100.9900 C.3   340  TYR340      0.0534
     68  CG        11.1660   23.7920  102.3010 C.ar  340  TYR340     -0.0201
     69  CD1       11.7540   22.5030  102.4060 C.ar  340  TYR340     -0.0009
     70  CD2       10.5520   24.3150  103.4410 C.ar  340  TYR340     -0.0009
     71  CE1       11.7440   21.7800  103.6100 C.ar  340  TYR340      0.0417
     72  CE2       10.5370   23.5970  104.6610 C.ar  340  TYR340      0.0417
     73  CZ        11.1410   22.3320  104.7160 C.ar  340  TYR340      0.1957
     74  OH        11.1190   21.6350  105.9010 O.3   340  TYR340     -0.2866
     75  N          5.3940   25.8120  114.8230 N.3   373  PHE373     -0.1241
     76  CA         6.4140   25.2050  113.8960 C.3   373  PHE373      0.1605
     77  C          6.3190   23.7220  113.7980 C.2   373  PHE373      0.2264
     78  O          6.4980   23.1690  112.7010 O.2   373  PHE373     -0.2867
     79  CB         7.8330   25.6620  114.1940 C.3   373  PHE373      0.0534
     80  CG         8.0780   27.0700  113.7900 C.ar  373  PHE373     -0.0203
     81  CD1        7.7760   28.1180  114.6520 C.ar  373  PHE373     -0.0042
     82  CD2        8.4850   27.3650  112.4870 C.ar  373  PHE373     -0.0042
     83  CE1        7.9610   29.4330  114.2630 C.ar  373  PHE373     -0.0003
     84  CE2        8.6450   28.7050  112.0800 C.ar  373  PHE373     -0.0003
     85  CZ         8.3890   29.7210  112.9850 C.ar  373  PHE373     -0.0000
     86  N          4.9310   21.3290  109.8030 N.3   377  LYS377     -0.1245
     87  CA         5.6730   20.2690  109.0960 C.3   377  LYS377      0.1561
     88  C          4.8270   19.4290  108.1210 C.2   377  LYS377      0.2260
     89  O          5.3770   18.9340  107.1260 O.2   377  LYS377     -0.2867
     90  CB         6.5230   19.4150  110.0510 C.3   377  LYS377      0.0271
     91  CG         7.3730   20.1590  111.1360 C.3   377  LYS377      0.0035
     92  CD         8.3670   21.2220  110.6570 C.3   377  LYS377      0.0206
     93  CE         9.8200   20.7110  110.5020 C.3   377  LYS377      0.1093
     94  NZ        10.4700   19.9980  111.6670 N.3   377  LYS377     -0.1314
     95  N          5.0660   20.1450  104.3700 N.3   380  VAL380     -0.1245
     96  CA         6.2820   19.6320  103.7310 C.3   380  VAL380      0.1561
     97  C          5.9990   18.1530  103.4130 C.2   380  VAL380      0.2260
     98  O          6.2480   17.6570  102.3090 O.2   380  VAL380     -0.2867
     99  CB         7.4590   19.7920  104.6980 C.3   380  VAL380      0.0252
    100  CG1        8.7690   19.2860  104.0810 C.3   380  VAL380      0.0019
    101  CG2        7.5670   21.2280  105.1350 C.3   380  VAL380      0.0019
@<TRIPOS>BOND
     1    66    65    2
     2    65    64    1
     3    63    64    1
     4    64    67    1
     5    67    68    1
     6    56    55    2
     7    55    54    1
     8    68    69   ar
     9    68    70   ar
    10    98    97    2
    11    69    71   ar
    12    54    57    1
    13    54    53    1
    14    97    96    1
    15    70    72   ar
    16    71    73   ar
    17    57    58    1
    18    96    95    1
    19    96    99    1
    20    53    44   am
    21   100    99    1
    22    72    73   ar
    23    99   101    1
    24    73    74    1
    25    44    45    2
    26    44    43    1
    27    42    43    1
    28    58    59   ar
    29    58    60   ar
    30    33    32    2
    31    32    31    1
    32    59    61   ar
    33    43    46    1
    34    60    62   ar
    35    34    31    1
    36    34    35    1
    37    61    62   ar
    38    31    30    1
    39    36    35   ar
    40    36    38   ar
    41    35    37   ar
    42    46    47    1
    43    89    88    2
    44    38    40   ar
    45    37    39   ar
    46    40    39   ar
    47    40    41    1
    48    88    87    1
    49    47    48    1
    50    87    86    1
    51    87    90    1
    52    48    49    1
    53    51    50    1
    54    90    91    1
    55    21    20    1
    56    49    50    2
    57    50    52    1
    58    93    92    1
    59    93    94    1
    60    92    91    1
    61    22    20    1
    62    20    19    1
    63    84    82   ar
    64    84    85   ar
    65    82    80   ar
    66    78    77    2
    67    19    16    1
    68    85    83   ar
    69     4     3    2
    70     7     1    1
    71     7     6    1
    72    80    79    1
    73    80    81   ar
    74    77    76    1
    75    16    15    1
    76    16    17    1
    77    76    79    1
    78    76    75    1
    79     1     2    1
    80    15    10   am
    81    83    81   ar
    82     3     2    1
    83     3     8   am
    84     6     5    1
    85    17    18    2
    86    17    23   am
    87     2     5    1
    88    10     9    1
    89    10    11    2
    90     9     8    1
    91     9    12    1
    92     8    14    1
    93    23    24    1
    94    12    13    1
    95    14    13    1
    96    24    25    1
    97    24    27    1
    98    29    27    1
    99    25    26    2
   100    27    28    1
