@<TRIPOS>MOLECULE
tmp/5osxA00.pdb
 138 135 0 0 0
SMALL
GASTEIGER

@<TRIPOS>ATOM
      1  N        -82.3370   68.8140  -17.6010 N.3    25  TRP25      -0.1227
      2  CA       -80.9540   68.3500  -17.6290 C.3    25  TRP25       0.1737
      3  C        -80.0210   69.3800  -17.0160 C.2    25  TRP25       0.2595
      4  O        -79.1100   69.0300  -16.2510 O.2    25  TRP25      -0.2718
      5  CB       -80.5240   68.0400  -19.0620 C.3    25  TRP25       0.0564
      6  CG       -79.1380   67.4520  -19.1420 C.ar   25  TRP25       0.0003
      7  CD1      -78.8050   66.1410  -19.0240 C.ar   25  TRP25       0.0946
      8  CD2      -77.9090   68.1640  -19.3450 C.ar   25  TRP25       0.0152
      9  NE1      -77.4350   65.9860  -19.1370 N.ar   25  TRP25      -0.2442
     10  CE2      -76.8680   67.2130  -19.3500 C.ar   25  TRP25       0.0810
     11  CE3      -77.5910   69.5080  -19.5390 C.ar   25  TRP25       0.0012
     12  CZ2      -75.5190   67.5710  -19.5260 C.ar   25  TRP25       0.0191
     13  CZ3      -76.2570   69.8590  -19.7180 C.ar   25  TRP25       0.0001
     14  CH2      -75.2430   68.8920  -19.7100 C.ar   25  TRP25       0.0015
     15  N        -80.2240   70.6610  -17.3360 N.am   26  GLN26      -0.1979
     16  CA       -79.2490   71.6650  -16.8970 C.3    26  GLN26       0.1601
     17  C        -79.3280   71.8890  -15.3910 C.2    26  GLN26       0.2287
     18  O        -78.3000   72.0830  -14.7310 O.2    26  GLN26      -0.2864
     19  CB       -79.4590   72.9750  -17.6540 C.3    26  GLN26       0.0394
     20  CG       -79.0510   72.9250  -19.0990 C.3    26  GLN26       0.0908
     21  CD       -79.3780   74.1530  -19.9140 C.2    26  GLN26       0.2608
     22  OE1      -80.1670   74.9790  -19.4750 O.2    26  GLN26      -0.2717
     23  NE2      -78.8150   74.2470  -21.0740 N.am   26  GLN26      -0.0878
     24  N        -72.8640   61.6810  -13.8470 N.3    59  ASP59      -0.1239
     25  CA       -71.6560   62.0660  -14.5520 C.3    59  ASP59       0.1674
     26  C        -70.7430   62.8040  -13.5870 C.2    59  ASP59       0.2266
     27  O        -71.2020   63.5060  -12.6830 O.2    59  ASP59      -0.2867
     28  CB       -71.8800   63.0160  -15.7430 C.3    59  ASP59       0.1410
     29  CG       -72.9420   62.5450  -16.7070 C.2    59  ASP59       0.3668
     30  OD1      -73.0990   61.3250  -16.8990 O.co2  59  ASP59      -0.2456
     31  OD2      -73.6090   63.4330  -17.2990 O.co2  59  ASP59      -0.2456
     32  N        -69.7960   72.5480  -18.6630 N.3    69  PRO69      -0.2102
     33  CA       -69.6560   71.2540  -19.3480 C.3    69  PRO69       0.1504
     34  C        -70.8800   70.8990  -20.1870 C.2    69  PRO69       0.2576
     35  O        -71.4770   69.8320  -20.0170 O.2    69  PRO69      -0.2718
     36  CB       -69.4370   70.2810  -18.1970 C.3    69  PRO69       0.0282
     37  CG       -70.2080   70.8720  -17.0720 C.3    69  PRO69       0.0208
     38  CD       -70.0850   72.3720  -17.2270 C.3    69  PRO69       0.0893
     39  N        -71.2640   71.8010  -21.0810 N.am   70  MET70      -0.1966
     40  CA       -72.3820   71.5460  -21.9720 C.3    70  MET70       0.1736
     41  C        -72.0280   72.0530  -23.3560 C.2    70  MET70       0.2616
     42  O        -71.2280   72.9880  -23.5130 O.2    70  MET70      -0.2715
     43  CB       -73.6940   72.1850  -21.4670 C.3    70  MET70       0.0427
     44  CG       -73.6560   73.6690  -21.2630 C.3    70  MET70       0.0599
     45  SD       -74.8970   74.1400  -20.0390 S.3    70  MET70      -0.1393
     46  CE       -74.4630   72.9970  -18.7300 C.3    70  MET70       0.0692
     47  N        -72.6260   71.4110  -24.3580 N.am   71  TRP71      -0.1960
     48  CA       -72.4420   71.8140  -25.7480 C.3    71  TRP71       0.1771
     49  C        -72.6790   73.2990  -25.9570 C.2    71  TRP71       0.2619
     50  O        -72.1490   73.8770  -26.9090 O.2    71  TRP71      -0.2715
     51  CB       -73.4080   71.0680  -26.6680 C.3    71  TRP71       0.0590
     52  CG       -73.4270   69.5880  -26.5340 C.ar   71  TRP71       0.0006
     53  CD1      -72.3550   68.7490  -26.5030 C.ar   71  TRP71       0.0946
     54  CD2      -74.5960   68.7530  -26.4720 C.ar   71  TRP71       0.0152
     55  NE1      -72.7840   67.4420  -26.4030 N.ar   71  TRP71      -0.2442
     56  CE2      -74.1560   67.4230  -26.3920 C.ar   71  TRP71       0.0810
     57  CE3      -75.9720   69.0100  -26.4750 C.ar   71  TRP71       0.0012
     58  CZ2      -75.0420   66.3490  -26.3080 C.ar   71  TRP71       0.0191
     59  CZ3      -76.8480   67.9410  -26.3890 C.ar   71  TRP71       0.0001
     60  CH2      -76.3800   66.6320  -26.3050 C.ar   71  TRP71       0.0015
     61  N        -73.5100   73.9170  -25.1180 N.am   72  GLU72      -0.1977
     62  CA       -73.9660   75.2760  -25.3790 C.3    72  GLU72       0.1602
     63  C        -72.8880   76.3100  -25.1090 C.2    72  GLU72       0.2287
     64  O        -72.9690   77.4110  -25.6510 O.2    72  GLU72      -0.2864
     65  CB       -75.2000   75.5990  -24.5340 C.3    72  GLU72       0.0415
     66  CG       -76.5310   75.0650  -25.0690 C.3    72  GLU72       0.1163
     67  CD       -76.7670   73.5900  -24.7770 C.2    72  GLU72       0.3649
     68  OE1      -77.8230   73.0790  -25.2200 O.co2  72  GLU72      -0.2457
     69  OE2      -75.9040   72.9300  -24.1450 O.co2  72  GLU72      -0.2457
     70  N        -65.5950   65.7690  -29.1340 N.3    81  ARG81      -0.1245
     71  CA       -65.0530   64.9850  -28.0390 C.3    81  ARG81       0.1563
     72  C        -64.3660   63.7360  -28.5730 C.2    81  ARG81       0.2260
     73  O        -64.8030   63.1380  -29.5600 O.2    81  ARG81      -0.2867
     74  CB       -66.1460   64.5800  -27.0330 C.3    81  ARG81       0.0307
     75  CG       -67.1940   63.6540  -27.6160 C.3    81  ARG81       0.0489
     76  CD       -68.1690   63.1070  -26.5560 C.3    81  ARG81       0.2205
     77  NE       -69.2120   62.2740  -27.1540 N.pl3  81  ARG81      -0.0865
     78  CZ       -70.1950   61.6980  -26.4660 C.cat  81  ARG81       0.5346
     79  NH1      -70.2800   61.8500  -25.1400 N.pl3  81  ARG81       0.1354
     80  NH2      -71.0950   60.9720  -27.1060 N.pl3  81  ARG81       0.1354
     81  N        -69.4630   59.3630  -18.0820 N.3   124  ASN124     -0.1240
     82  CA       -70.8590   58.9820  -17.8890 C.3   124  ASN124      0.1653
     83  C        -70.9020   57.5650  -17.3530 C.2   124  ASN124      0.2266
     84  O        -70.3590   56.6540  -17.9760 O.2   124  ASN124     -0.2867
     85  CB       -71.6790   59.0380  -19.1810 C.3   124  ASN124      0.1155
     86  CG       -71.4320   60.2830  -19.9910 C.2   124  ASN124      0.2627
     87  OD1      -70.8170   60.2300  -21.0620 O.2   124  ASN124     -0.2716
     88  ND2      -71.9280   61.4130  -19.4970 N.am  124  ASN124     -0.0877
     89  N        -73.2960   54.5950  -16.8080 N.3   126  ARG126     -0.1245
     90  CA       -74.5450   54.1890  -17.4510 C.3   126  ARG126      0.1563
     91  C        -74.7080   52.6770  -17.3820 C.2   126  ARG126      0.2260
     92  O        -73.7640   51.9300  -17.6620 O.2   126  ARG126     -0.2867
     93  CB       -74.5960   54.6240  -18.9230 C.3   126  ARG126      0.0307
     94  CG       -74.5870   56.1220  -19.1490 C.3   126  ARG126      0.0489
     95  CD       -75.8060   56.7960  -18.5500 C.3   126  ARG126      0.2205
     96  NE       -75.8230   58.2230  -18.8870 N.pl3 126  ARG126     -0.0865
     97  CZ       -75.2000   59.1620  -18.1840 C.cat 126  ARG126      0.5346
     98  NH1      -74.4950   58.8420  -17.1080 N.pl3 126  ARG126      0.1354
     99  NH2      -75.2720   60.4280  -18.5680 N.pl3 126  ARG126      0.1354
    100  N        -76.0590   51.0660  -19.5370 N.3   128  LYS128     -0.1245
    101  CA       -75.8590   50.6080  -20.9060 C.3   128  LYS128      0.1561
    102  C        -74.3950   50.5250  -21.3040 C.2   128  LYS128      0.2260
    103  O        -74.1060   50.0390  -22.4020 O.2   128  LYS128     -0.2867
    104  CB       -76.5880   51.5290  -21.8870 C.3   128  LYS128      0.0271
    105  CG       -76.0780   52.9630  -21.9360 C.3   128  LYS128      0.0035
    106  CD       -76.8630   53.6840  -23.0050 C.3   128  LYS128      0.0206
    107  CE       -76.8570   55.2050  -22.8130 C.3   128  LYS128      0.1093
    108  NZ       -75.5270   55.7660  -22.9110 N.3   128  LYS128     -0.1314
    109  N        -68.8480   55.6960  -20.3160 N.3   131  LYS131     -0.1245
    110  CA       -68.1680   56.4760  -21.3350 C.3   131  LYS131      0.1561
    111  C        -67.2960   57.5100  -20.6460 C.2   131  LYS131      0.2260
    112  O        -67.6720   58.0720  -19.6120 O.2   131  LYS131     -0.2867
    113  CB       -69.1700   57.1670  -22.2790 C.3   131  LYS131      0.0271
    114  CG       -69.8060   56.2430  -23.3040 C.3   131  LYS131      0.0035
    115  CD       -70.8190   56.9730  -24.1920 C.3   131  LYS131      0.0206
    116  CE       -72.1280   57.1840  -23.4560 C.3   131  LYS131      0.1093
    117  NZ       -73.0870   58.0760  -24.1720 N.3   131  LYS131     -0.1314
    118  N        -63.2930   66.7060  -24.1120 N.3   135  TRP135     -0.1241
    119  CA       -63.8710   67.7250  -24.9710 C.3   135  TRP135      0.1605
    120  C        -62.8230   68.7590  -25.3720 C.2   135  TRP135      0.2264
    121  O        -62.1000   69.2900  -24.5230 O.2   135  TRP135     -0.2867
    122  CB       -65.0270   68.4210  -24.2610 C.3   135  TRP135      0.0550
    123  CG       -66.2070   67.5480  -23.9820 C.ar  135  TRP135      0.0003
    124  CD1      -66.2420   66.1820  -23.9000 C.ar  135  TRP135      0.0946
    125  CD2      -67.5450   68.0000  -23.7850 C.ar  135  TRP135      0.0152
    126  NE1      -67.5340   65.7550  -23.6320 N.ar  135  TRP135     -0.2442
    127  CE2      -68.3510   66.8570  -23.5700 C.ar  135  TRP135      0.0810
    128  CE3      -68.1430   69.2650  -23.7800 C.ar  135  TRP135      0.0012
    129  CZ2      -69.7240   66.9470  -23.3320 C.ar  135  TRP135      0.0191
    130  CZ3      -69.5050   69.3550  -23.5510 C.ar  135  TRP135      0.0001
    131  CH2      -70.2800   68.2010  -23.3250 C.ar  135  TRP135      0.0015
    132  N        -73.4720   65.3450  -32.4480 N.3   172  THR172     -0.1218
    133  CA       -74.0550   64.8550  -31.1970 C.3   172  THR172      0.1862
    134  C        -75.0970   65.8410  -30.6640 C.2   172  THR172      0.2287
    135  O        -76.2460   65.4790  -30.4140 O.2   172  THR172     -0.2866
    136  CB       -72.9760   64.6290  -30.1020 C.3   172  THR172      0.1770
    137  OG1      -71.9690   63.7270  -30.5800 O.3   172  THR172     -0.2211
    138  CG2      -73.6050   64.0520  -28.8360 C.3   172  THR172      0.0375
@<TRIPOS>BOND
     1   132   133    1
     2   133   134    1
     3   133   136    1
     4   134   135    2
     5   137   136    1
     6   136   138    1
     7    73    72    2
     8    70    71    1
     9    72    71    1
    10    71    74    1
    11    75    74    1
    12    75    76    1
    13    77    76    1
    14    77    78    2
    15    80    78    1
    16    50    49    2
    17    51    52    1
    18    51    48    1
    19    52    53   ar
    20    52    54   ar
    21    53    55   ar
    22    57    54   ar
    23    57    59   ar
    24    54    56   ar
    25    78    79    1
    26    55    56   ar
    27    56    58   ar
    28    59    60   ar
    29    58    60   ar
    30    49    48    1
    31    49    61   am
    32    48    47    1
    33    64    63    2
    34    62    61    1
    35    62    63    1
    36    62    65    1
    37   120   119    1
    38   120   121    2
    39    68    67   ar
    40    66    67    1
    41    66    65    1
    42   119   122    1
    43   119   118    1
    44    67    69   ar
    45    47    41   am
    46   122   123    1
    47   115   116    1
    48   115   114    1
    49   117   116    1
    50   123   124   ar
    51   123   125   ar
    52   124   126   ar
    53   125   128   ar
    54   125   127   ar
    55   128   130   ar
    56   126   127   ar
    57   127   129   ar
    58   130   131   ar
    59    42    41    2
    60    41    40    1
    61   129   131   ar
    62   114   113    1
    63   106   107    1
    64   106   105    1
    65   108   107    1
    66   103   102    2
    67   113   110    1
    68    40    43    1
    69    40    39    1
    70   105   104    1
    71   104   101    1
    72    43    44    1
    73   110   111    1
    74   110   109    1
    75   102   101    1
    76    44    45    1
    77    39    34   am
    78    23    21   am
    79    87    86    2
    80   101   100    1
    81   111   112    2
    82    34    35    2
    83    34    33    1
    84    45    46    1
    85    86    88   am
    86    86    85    1
    87    21    22    2
    88    21    20    1
    89    13    14   ar
    90    13    11   ar
    91    14    12   ar
    92    11     8   ar
    93    12    10   ar
    94    10     8   ar
    95    10     9   ar
    96    33    32    1
    97    33    36    1
    98     8     6   ar
    99    85    82    1
   100    94    93    1
   101    94    95    1
   102     6     5    1
   103     6     7   ar
   104     9     7   ar
   105    20    19    1
   106     5     2    1
   107    93    90    1
   108    96    95    1
   109    96    97    2
   110    32    38    1
   111    99    97    1
   112    36    37    1
   113    97    98    1
   114    81    82    1
   115    84    83    2
   116    82    83    1
   117    92    91    2
   118    19    16    1
   119     2     1    1
   120     2     3    1
   121    90    91    1
   122    90    89    1
   123    15     3   am
   124    15    16    1
   125    31    29   ar
   126    38    37    1
   127     3     4    2
   128    30    29   ar
   129    16    17    1
   130    29    28    1
   131    28    25    1
   132    17    18    2
   133    25    24    1
   134    25    26    1
   135    26    27    2
