@<TRIPOS>MOLECULE
tmp/5osyB01.pdb
 118 115 0 0 0
SMALL
GASTEIGER

@<TRIPOS>ATOM
      1  N         17.1780   -3.0690  -19.3670 N.3   130  TRP130     -0.1241
      2  CA        16.6390   -4.3330  -18.8790 C.3   130  TRP130      0.1605
      3  C         15.5220   -4.8460  -19.7770 C.2   130  TRP130      0.2264
      4  O         15.3080   -6.0600  -19.8650 O.2   130  TRP130     -0.2867
      5  CB        16.1430   -4.1820  -17.4390 C.3   130  TRP130      0.0550
      6  CG        14.9110   -3.3360  -17.2870 C.ar  130  TRP130      0.0003
      7  CD1       14.8630   -2.0040  -16.9920 C.ar  130  TRP130      0.0946
      8  CD2       13.5490   -3.7700  -17.4080 C.ar  130  TRP130      0.0152
      9  NE1       13.5560   -1.5800  -16.9270 N.ar  130  TRP130     -0.2442
     10  CE2       12.7310   -2.6450  -17.1790 C.ar  130  TRP130      0.0810
     11  CE3       12.9430   -4.9980  -17.6900 C.ar  130  TRP130      0.0012
     12  CZ2       11.3390   -2.7120  -17.2230 C.ar  130  TRP130      0.0191
     13  CZ3       11.5620   -5.0630  -17.7370 C.ar  130  TRP130      0.0001
     14  CH2       10.7750   -3.9270  -17.5030 C.ar  130  TRP130      0.0015
     15  N         15.7070   -8.5840  -22.0720 N.3   134  ILE134     -0.1245
     16  CA        14.6790   -9.6170  -22.1660 C.3   134  ILE134      0.1561
     17  C         14.3660   -9.9220  -23.6260 C.2   134  ILE134      0.2260
     18  O         14.2980  -11.0880  -24.0340 O.2   134  ILE134     -0.2867
     19  CB        13.4160   -9.1900  -21.3970 C.3   134  ILE134      0.0252
     20  CG1       13.7230   -9.0540  -19.9040 C.3   134  ILE134      0.0019
     21  CG2       12.2930  -10.1850  -21.6290 C.3   134  ILE134      0.0019
     22  CD1       12.5220   -8.6730  -19.0690 C.3   134  ILE134      0.0001
     23  N         16.8440  -13.0640  -18.1250 N.3   140  GLU140     -0.1245
     24  CA        15.4980  -13.5270  -17.7910 C.3   140  GLU140      0.1567
     25  C         14.8780  -14.3870  -18.8890 C.2   140  GLU140      0.2260
     26  O         13.6500  -14.4820  -18.9850 O.2   140  GLU140     -0.2867
     27  CB        14.5770  -12.3460  -17.4640 C.3   140  GLU140      0.0388
     28  CG        14.9790  -11.5770  -16.2170 C.3   140  GLU140      0.1160
     29  CD        14.1440  -10.3300  -16.0180 C.2   140  GLU140      0.3649
     30  OE1       14.6810   -9.2190  -16.2150 O.co2 140  GLU140     -0.2457
     31  OE2       12.9460  -10.4630  -15.6840 O.co2 140  GLU140     -0.2457
     32  N         12.4320  -17.0400  -17.7930 N.3   143  ARG143     -0.1245
     33  CA        11.1490  -16.6000  -17.2610 C.3   143  ARG143      0.1563
     34  C         10.0940  -16.3900  -18.3400 C.2   143  ARG143      0.2260
     35  O          8.9220  -16.1870  -18.0050 O.2   143  ARG143     -0.2867
     36  CB        11.3260  -15.3020  -16.4620 C.3   143  ARG143      0.0307
     37  CG        12.4230  -15.3710  -15.4090 C.3   143  ARG143      0.0489
     38  CD        12.5000  -14.1000  -14.5680 C.3   143  ARG143      0.2205
     39  NE        11.3340  -13.9390  -13.7020 N.pl3 143  ARG143     -0.0865
     40  CZ        10.4100  -12.9950  -13.8540 C.cat 143  ARG143      0.5346
     41  NH1        9.3820  -12.9320  -13.0170 N.pl3 143  ARG143      0.1354
     42  NH2       10.5170  -12.1090  -14.8330 N.pl3 143  ARG143      0.1354
     43  N          5.9320  -12.2850  -20.0230 N.3   158  ILE158     -0.1231
     44  CA         6.7820  -12.6090  -18.8810 C.3   158  ILE158      0.1678
     45  C          6.0230  -12.3020  -17.5930 C.2   158  ILE158      0.2434
     46  O          5.3190  -11.2840  -17.5140 O.2   158  ILE158     -0.2733
     47  CB         8.1200  -11.8510  -18.9670 C.3   158  ILE158      0.0265
     48  CG1        9.1290  -12.3850  -17.9470 C.3   158  ILE158      0.0019
     49  CG2        7.9210  -10.3440  -18.8000 C.3   158  ILE158      0.0020
     50  CD1       10.5360  -11.8500  -18.1490 C.3   158  ILE158      0.0001
     51  N          6.0950  -13.1640  -16.5810 N.am  159  PRO159     -0.2718
     52  CA         5.4050  -12.8690  -15.3210 C.3   159  PRO159      0.1535
     53  C          6.0260  -11.6810  -14.6060 C.2   159  PRO159      0.2599
     54  O          7.2160  -11.3890  -14.7460 O.2   159  PRO159     -0.2715
     55  CB         5.5750  -14.1590  -14.5100 C.3   159  PRO159      0.0310
     56  CG         6.7450  -14.8550  -15.1320 C.3   159  PRO159      0.0237
     57  CD         6.6820  -14.5130  -16.5860 C.3   159  PRO159      0.0939
     58  N          5.1890  -10.9860  -13.8400 N.am  160  ASP160     -0.1958
     59  CA         5.6520   -9.8530  -13.0550 C.3   160  ASP160      0.1840
     60  C          6.6430  -10.3170  -11.9930 C.2   160  ASP160      0.2622
     61  O          6.5390  -11.4240  -11.4560 O.2   160  ASP160     -0.2715
     62  CB         4.4630   -9.1420  -12.4050 C.3   160  ASP160      0.1450
     63  CG         4.8570   -7.8530  -11.7110 C.2   160  ASP160      0.3671
     64  OD1        5.0750   -6.8440  -12.4140 O.co2 160  ASP160     -0.2456
     65  OD2        4.9390   -7.8450  -10.4640 O.co2 160  ASP160     -0.2456
     66  N          7.6190   -9.4550  -11.6940 N.am  161  LEU161     -0.1963
     67  CA         8.6630   -9.8230  -10.7420 C.3   161  LEU161      0.1728
     68  C          8.0940  -10.1110   -9.3600 C.2   161  LEU161      0.2616
     69  O          8.6520  -10.9270   -8.6180 O.2   161  LEU161     -0.2715
     70  CB         9.7150   -8.7180  -10.6540 C.3   161  LEU161      0.0311
     71  CG        10.6000   -8.4870  -11.8790 C.3   161  LEU161      0.0022
     72  CD1       11.6260   -7.4020  -11.5860 C.3   161  LEU161      0.0001
     73  CD2       11.2830   -9.7780  -12.2970 C.3   161  LEU161      0.0001
     74  N          6.9900   -9.4610   -8.9990 N.am  162  LYS162     -0.1977
     75  CA         6.3720   -9.6300   -7.6920 C.3   162  LYS162      0.1596
     76  C          5.3710  -10.7800   -7.6470 C.2   162  LYS162      0.2287
     77  O          4.7080  -10.9660   -6.6220 O.2   162  LYS162     -0.2864
     78  CB         5.6880   -8.3280   -7.2620 C.3   162  LYS162      0.0298
     79  CG         6.6290   -7.1690   -7.1000 C.3   162  LYS162      0.0038
     80  CD         5.9190   -5.9100   -6.6420 C.3   162  LYS162      0.0206
     81  CE         5.7270   -4.9070   -7.7590 C.3   162  LYS162      0.1093
     82  NZ         6.9970   -4.4080   -8.2970 N.3   162  LYS162     -0.1314
     83  N          3.3090   -9.6170  -18.0020 N.3   174  ILE174     -0.1245
     84  CA         3.5520   -8.4270  -18.8050 C.3   174  ILE174      0.1561
     85  C          3.9570   -8.8610  -20.2050 C.2   174  ILE174      0.2260
     86  O          4.7680   -9.7800  -20.3710 O.2   174  ILE174     -0.2867
     87  CB         4.6370   -7.5280  -18.1750 C.3   174  ILE174      0.0252
     88  CG1        4.2400   -7.1390  -16.7490 C.3   174  ILE174      0.0019
     89  CG2        4.8630   -6.2840  -19.0220 C.3   174  ILE174      0.0019
     90  CD1        5.2970   -6.3540  -16.0110 C.3   174  ILE174      0.0001
     91  N          5.4470    3.2130  -16.3450 N.3   227  SER227     -0.1202
     92  CA         6.6310    3.3300  -15.5000 C.3   227  SER227      0.2020
     93  C          7.9050    3.3880  -16.3310 C.2   227  SER227      0.2618
     94  O          8.9140    3.9400  -15.8800 O.2   227  SER227     -0.2717
     95  CB         6.6900    2.1660  -14.5120 C.3   227  SER227      0.2103
     96  OG         5.5550    2.1630  -13.6640 O.3   227  SER227     -0.2182
     97  N          7.8810    2.8220  -17.5350 N.am  228  TYR228     -0.1975
     98  CA         8.9940    2.9050  -18.4670 C.3   228  TYR228      0.1639
     99  C          8.4330    3.0460  -19.8720 C.2   228  TYR228      0.2290
    100  O          7.3670    2.5130  -20.1880 O.2   228  TYR228     -0.2864
    101  CB         9.9180    1.6810  -18.3720 C.3   228  TYR228      0.0560
    102  CG         9.2240    0.3450  -18.5370 C.ar  228  TYR228     -0.0198
    103  CD1        8.6230   -0.2850  -17.4530 C.ar  228  TYR228     -0.0009
    104  CD2        9.1850   -0.2930  -19.7700 C.ar  228  TYR228     -0.0009
    105  CE1        7.9930   -1.5070  -17.5940 C.ar  228  TYR228      0.0417
    106  CE2        8.5580   -1.5190  -19.9210 C.ar  228  TYR228      0.0417
    107  CZ         7.9650   -2.1200  -18.8290 C.ar  228  TYR228      0.1957
    108  OH         7.3400   -3.3380  -18.9710 O.3   228  TYR228     -0.2866
    109  N         -0.3460   -5.1560  -19.5470 N.3   234  HIS234     -0.1241
    110  CA        -0.4840   -5.8690  -18.2840 C.3   234  HIS234      0.1621
    111  C         -1.6310   -6.8700  -18.3620 C.2   234  HIS234      0.2264
    112  O         -2.7390   -6.5210  -18.7830 O.2   234  HIS234     -0.2867
    113  CB        -0.7180   -4.8840  -17.1380 C.3   234  HIS234      0.0745
    114  CG         0.3050   -3.7930  -17.0690 C.ar  234  HIS234      0.0817
    115  ND1        1.4360   -3.8810  -16.2860 N.ar  234  HIS234     -0.2268
    116  CD2        0.3730   -2.5930  -17.6930 C.ar  234  HIS234      0.1154
    117  CE1        2.1540   -2.7810  -16.4270 C.ar  234  HIS234      0.1986
    118  NE2        1.5320   -1.9840  -17.2760 N.ar  234  HIS234     -0.2212
@<TRIPOS>BOND
     1    18    17    2
     2    17    16    1
     3    16    15    1
     4    16    19    1
     5    21    19    1
     6    19    20    1
     7    86    85    2
     8    85    84    1
     9   100    99    2
    10    43    44    1
    11   106   104   ar
    12   106   107   ar
    13    20    22    1
    14    99    98    1
    15     4     3    2
    16     3     2    1
    17   104   102   ar
    18   109   110    1
    19     1     2    1
    20    89    87    1
    21    26    25    2
    22   108   107    1
    23    47    44    1
    24    47    49    1
    25    47    48    1
    26    25    24    1
    27    44    45    1
    28     2     5    1
    29   107   105   ar
    30    84    87    1
    31    84    83    1
    32   112   111    2
    33   102   101    1
    34   102   103   ar
    35    98   101    1
    36    98    97    1
    37   111   110    1
    38    34    35    2
    39    34    33    1
    40   110   113    1
    41    87    88    1
    42    50    48    1
    43    23    24    1
    44    32    33    1
    45    24    27    1
    46    13    11   ar
    47    13    14   ar
    48   116   118   ar
    49   116   114   ar
    50    11     8   ar
    51   105   103   ar
    52    45    46    2
    53    45    51   am
    54    97    93   am
    55    14    12   ar
    56    27    28    1
    57     5     6    1
    58     8     6   ar
    59     8    10   ar
    60     6     7   ar
    61   118   117   ar
    62    33    36    1
    63    12    10   ar
    64    10     9   ar
    65   113   114    1
    66   114   115   ar
    67     7     9   ar
    68    88    90    1
    69    57    51    1
    70    57    56    1
    71    51    52    1
    72    36    37    1
    73   117   115   ar
    74    91    92    1
    75    93    94    2
    76    93    92    1
    77    28    29    1
    78    30    29   ar
    79    29    31   ar
    80    92    95    1
    81    37    38    1
    82    52    53    1
    83    52    55    1
    84    56    55    1
    85    42    40    1
    86    54    53    2
    87    53    58   am
    88    38    39    1
    89    95    96    1
    90    40    39    2
    91    40    41    1
    92    58    59    1
    93    59    62    1
    94    59    60    1
    95    64    63   ar
    96    62    63    1
    97    73    71    1
    98    60    66   am
    99    60    61    2
   100    71    72    1
   101    71    70    1
   102    63    65   ar
   103    66    67    1
   104    67    70    1
   105    67    68    1
   106    68    74   am
   107    68    69    2
   108    74    75    1
   109    82    81    1
   110    81    80    1
   111    75    76    1
   112    75    78    1
   113    76    77    2
   114    78    79    1
   115    79    80    1
