@<TRIPOS>MOLECULE
tmp/5oszA01.pdb
 110 104 0 0 0
SMALL
GASTEIGER

@<TRIPOS>ATOM
      1  N       -136.9240 -183.2780  317.3440 N.3    34  GLN34      -0.1231
      2  CA      -136.4810 -182.0610  316.6440 C.3    34  GLN34       0.1698
      3  C       -137.2580 -180.7720  317.0690 C.2    34  GLN34       0.2592
      4  O       -136.6960 -179.6740  316.9700 O.2    34  GLN34      -0.2718
      5  CB      -136.4910 -182.2580  315.1120 C.3    34  GLN34       0.0381
      6  CG      -137.8710 -182.1180  314.4350 C.3    34  GLN34       0.0905
      7  CD      -138.8430 -183.2420  314.6870 C.2    34  GLN34       0.2608
      8  OE1     -138.4890 -184.4030  314.9280 O.2    34  GLN34      -0.2717
      9  NE2     -140.1060 -182.9370  314.5400 N.am   34  GLN34      -0.0878
     10  N       -138.5300 -180.9170  317.5520 N.am   35  ASP35      -0.1974
     11  CA      -139.3550 -179.7940  318.0440 C.3    35  ASP35       0.1709
     12  C       -138.7370 -179.1860  319.3170 C.2    35  ASP35       0.2293
     13  O       -139.1160 -178.0740  319.6870 O.2    35  ASP35      -0.2864
     14  CB      -140.8300 -180.2100  318.2900 C.3    35  ASP35       0.1436
     15  CG      -141.8490 -179.0690  318.2800 C.2    35  ASP35       0.3671
     16  OD1     -141.9810 -178.3940  317.2290 O.co2  35  ASP35      -0.2456
     17  OD2     -142.5670 -178.8960  319.3010 O.co2  35  ASP35      -0.2456
     18  N       -135.8090 -177.9020  319.5580 N.3    37  TYR37      -0.1227
     19  CA      -134.7970 -176.9150  319.1680 C.3    37  TYR37       0.1736
     20  C       -135.3020 -175.8040  318.2750 C.2    37  TYR37       0.2595
     21  O       -136.0770 -176.0580  317.3620 O.2    37  TYR37      -0.2718
     22  CB      -133.5800 -177.6140  318.5050 C.3    37  TYR37       0.0548
     23  CG      -133.0390 -178.7420  319.3520 C.ar   37  TYR37      -0.0200
     24  CD1     -132.2460 -178.4820  320.4680 C.ar   37  TYR37      -0.0009
     25  CD2     -133.4000 -180.0640  319.1020 C.ar   37  TYR37      -0.0009
     26  CE1     -131.8120 -179.5090  321.3010 C.ar   37  TYR37       0.0417
     27  CE2     -132.9760 -181.0980  319.9310 C.ar   37  TYR37       0.0417
     28  CZ      -132.1740 -180.8150  321.0260 C.ar   37  TYR37       0.1957
     29  OH      -131.7740 -181.8120  321.8760 O.3    37  TYR37      -0.2866
     30  N       -134.8440 -174.5700  318.5250 N.am   38  GLN38      -0.1965
     31  CA      -135.1890 -173.3940  317.7230 C.3    38  GLN38       0.1733
     32  C       -133.8990 -172.8620  317.1480 C.2    38  GLN38       0.2616
     33  O       -132.9790 -172.5590  317.9180 O.2    38  GLN38      -0.2715
     34  CB      -135.8780 -172.2960  318.5640 C.3    38  GLN38       0.0408
     35  CG      -137.2870 -172.6550  319.0430 C.3    38  GLN38       0.0908
     36  CD      -138.0970 -171.4790  319.5610 C.2    38  GLN38       0.2608
     37  OE1     -137.6350 -170.3240  319.6050 O.2    38  GLN38      -0.2717
     38  NE2     -139.3440 -171.7540  319.9560 N.am   38  GLN38      -0.0878
     39  N       -133.8030 -172.7700  315.8150 N.am   39  LEU39      -0.1977
     40  CA      -132.5850 -172.2720  315.1570 C.3    39  LEU39       0.1596
     41  C       -132.5220 -170.7540  315.2560 C.2    39  LEU39       0.2287
     42  O       -133.4820 -170.0730  314.8890 O.2    39  LEU39      -0.2864
     43  CB      -132.4540 -172.7920  313.7080 C.3    39  LEU39       0.0297
     44  CG      -132.3760 -174.3380  313.5540 C.3    39  LEU39       0.0022
     45  CD1     -132.5030 -174.7700  312.1090 C.3    39  LEU39       0.0001
     46  CD2     -131.1170 -174.9270  314.1910 C.3    39  LEU39       0.0001
     47  N       -126.2920 -176.9690  316.3770 N.3    65  VAL65      -0.1245
     48  CA      -127.0030 -177.9160  315.5190 C.3    65  VAL65       0.1561
     49  C       -126.2590 -178.0250  314.1680 C.2    65  VAL65       0.2260
     50  O       -126.0320 -177.0170  313.4900 O.2    65  VAL65      -0.2867
     51  CB      -128.5230 -177.5730  315.3990 C.3    65  VAL65       0.0252
     52  CG1     -129.2490 -178.4990  314.4150 C.3    65  VAL65       0.0019
     53  CG2     -129.1970 -177.6380  316.7700 C.3    65  VAL65       0.0019
     54  N       -126.5000 -179.7810  310.6090 N.3    67  ILE67      -0.1245
     55  CA      -127.4450 -180.3820  309.6740 C.3    67  ILE67       0.1561
     56  C       -126.6220 -181.0850  308.6380 C.2    67  ILE67       0.2260
     57  O       -125.7740 -180.4500  308.0190 O.2    67  ILE67      -0.2867
     58  CB      -128.4290 -179.3350  309.0670 C.3    67  ILE67       0.0252
     59  CG1     -129.1870 -178.5800  310.1750 C.3    67  ILE67       0.0019
     60  CG2     -129.4200 -180.0410  308.1470 C.3    67  ILE67       0.0019
     61  CD1     -130.0140 -177.2710  309.7050 C.3    67  ILE67       0.0001
     62  N       -131.2900 -185.8240  315.7310 N.3    99  VAL99      -0.1231
     63  CA      -132.6740 -185.5490  315.3120 C.3    99  VAL99       0.1692
     64  C       -132.8290 -185.6160  313.8090 C.2    99  VAL99       0.2592
     65  O       -131.8380 -185.6530  313.0770 O.2    99  VAL99      -0.2718
     66  CB      -133.2650 -184.2270  315.8900 C.3    99  VAL99       0.0266
     67  CG1     -133.3200 -184.2460  317.4140 C.3    99  VAL99       0.0020
     68  CG2     -132.5180 -182.9950  315.3690 C.3    99  VAL99       0.0020
     69  N       -134.0940 -185.6480  313.3520 N.am  100  LYS100     -0.1966
     70  CA      -134.4230 -185.6890  311.9480 C.3   100  LYS100      0.1728
     71  C       -135.5760 -184.7350  311.6510 C.2   100  LYS100      0.2616
     72  O       -136.4790 -184.5610  312.4700 O.2   100  LYS100     -0.2715
     73  CB      -134.7370 -187.1140  311.5000 C.3   100  LYS100      0.0311
     74  CG      -134.6610 -187.2990  309.9890 C.3   100  LYS100      0.0038
     75  CD      -135.1820 -188.6590  309.5220 C.3   100  LYS100      0.0206
     76  CE      -134.2060 -189.8030  309.7130 C.3   100  LYS100      0.1093
     77  NZ      -133.1700 -189.8390  308.6490 N.3   100  LYS100     -0.1314
     78  N       -135.4810 -184.0820  310.5020 N.am  101  ASP101     -0.1958
     79  CA      -136.4770 -183.1360  310.0410 C.3   101  ASP101      0.1825
     80  C       -137.4830 -183.9320  309.2350 C.2   101  ASP101      0.2464
     81  O       -137.1690 -184.4200  308.1650 O.2   101  ASP101     -0.2730
     82  CB      -135.8040 -182.0690  309.1700 C.3   101  ASP101      0.1450
     83  CG      -136.7950 -181.2290  308.3830 C.2   101  ASP101      0.3671
     84  OD1     -137.8770 -180.9170  308.9120 O.co2 101  ASP101     -0.2456
     85  OD2     -136.4770 -180.8630  307.2370 O.co2 101  ASP101     -0.2456
     86  N       -138.7010 -184.0630  309.7470 N.am  102  PRO102     -0.2727
     87  CA      -139.7450 -184.8230  309.0480 C.3   102  PRO102      0.1402
     88  C       -139.9710 -184.3730  307.6000 C.2   102  PRO102      0.2269
     89  O       -140.1350 -185.2120  306.7210 O.2   102  PRO102     -0.2865
     90  CB      -140.9960 -184.5540  309.8860 C.3   102  PRO102      0.0296
     91  CG      -140.7040 -183.2970  310.6300 C.3   102  PRO102      0.0237
     92  CD      -139.2330 -183.3340  310.9070 C.3   102  PRO102      0.0939
     93  N       -137.8880 -182.7880  305.3020 N.3   104  SER104     -0.1217
     94  CA      -136.8340 -183.1220  304.3470 C.3   104  SER104      0.1889
     95  C       -136.0980 -184.4430  304.5810 C.2   104  SER104      0.2288
     96  O       -135.2450 -184.8070  303.7790 O.2   104  SER104     -0.2866
     97  CB      -135.8080 -181.9890  304.2960 C.3   104  SER104      0.2089
     98  OG      -134.9610 -182.0270  305.4300 O.3   104  SER104     -0.2183
     99  N       -133.8300 -185.0600  306.4750 N.3   106  THR106     -0.1218
    100  CA      -132.4230 -184.7620  306.7290 C.3   106  THR106      0.1862
    101  C       -132.1250 -184.9430  308.2350 C.2   106  THR106      0.2287
    102  O       -132.8240 -184.3720  309.0760 O.2   106  THR106     -0.2866
    103  CB      -132.1220 -183.2960  306.3140 C.3   106  THR106      0.1770
    104  OG1     -132.5500 -183.0600  304.9710 O.3   106  THR106     -0.2211
    105  CG2     -130.6660 -182.9290  306.4410 C.3   106  THR106      0.0375
    106  N       -129.7130 -184.3730  311.7830 N.3   108  ALA108     -0.1245
    107  CA      -128.8610 -183.3580  312.3750 C.3   108  ALA108      0.1562
    108  C       -128.2920 -183.8890  313.6740 C.2   108  ALA108      0.2260
    109  O       -128.9390 -184.7080  314.3530 O.2   108  ALA108     -0.2867
    110  CB      -129.6420 -182.0650  312.6340 C.3   108  ALA108      0.0290
@<TRIPOS>BOND
     1    96    95    2
     2    97    94    1
     3    97    98    1
     4    94    95    1
     5    94    93    1
     6   104   103    1
     7   103   105    1
     8   103   100    1
     9    99   100    1
    10    89    88    2
    11   100   101    1
    12    85    83   ar
    13    88    87    1
    14    57    56    2
    15    60    58    1
    16    81    80    2
    17   101   102    2
    18    83    84   ar
    19    83    82    1
    20    56    55    1
    21    77    76    1
    22    87    86    1
    23    87    90    1
    24    58    55    1
    25    58    59    1
    26    82    79    1
    27    80    86   am
    28    80    79    1
    29    75    76    1
    30    75    74    1
    31    55    54    1
    32    61    59    1
    33    86    92    1
    34    90    91    1
    35    74    73    1
    36    79    78    1
    37    78    71   am
    38    91    92    1
    39    73    70    1
    40    71    70    1
    41    71    72    2
    42   106   107    1
    43    70    69    1
    44    45    44    1
    45   107   110    1
    46   107   108    1
    47    65    64    2
    48    69    64   am
    49    50    49    2
    50    44    43    1
    51    44    46    1
    52   108   109    2
    53    43    40    1
    54    64    63    1
    55    49    48    1
    56    52    51    1
    57     6     7    1
    58     6     5    1
    59     9     7   am
    60     7     8    2
    61    42    41    2
    62     5     2    1
    63    40    41    1
    64    40    39    1
    65    63    62    1
    66    63    66    1
    67    68    66    1
    68    51    48    1
    69    51    53    1
    70    48    47    1
    71    39    32   am
    72    66    67    1
    73     2     3    1
    74     2     1    1
    75     4     3    2
    76     3    10   am
    77    32    31    1
    78    32    33    2
    79    16    15   ar
    80    21    20    2
    81    10    11    1
    82    31    30    1
    83    31    34    1
    84    11    14    1
    85    11    12    1
    86    20    30   am
    87    20    19    1
    88    15    14    1
    89    15    17   ar
    90    22    19    1
    91    22    23    1
    92    34    35    1
    93    35    36    1
    94    25    23   ar
    95    25    27   ar
    96    19    18    1
    97    12    13    2
    98    23    24   ar
    99    36    37    2
   100    36    38   am
   101    27    28   ar
   102    24    26   ar
   103    28    26   ar
   104    28    29    1
