@<TRIPOS>MOLECULE
tmp/5oszA02.pdb
 102 99 0 0 0
SMALL
GASTEIGER

@<TRIPOS>ATOM
      1  N       -101.0500 -189.9490  300.1200 N.3   201  LEU201     -0.1231
      2  CA      -100.6680 -189.4830  298.7900 C.3   201  LEU201      0.1693
      3  C        -99.9850 -190.5410  297.9370 C.2   201  LEU201      0.2592
      4  O       -100.0230 -190.4450  296.7000 O.2   201  LEU201     -0.2718
      5  CB       -99.7980 -188.2240  298.9360 C.3   201  LEU201      0.0284
      6  CG      -100.4710 -187.1030  299.7790 C.3   201  LEU201      0.0019
      7  CD1      -99.4850 -186.0350  300.1880 C.3   201  LEU201      0.0001
      8  CD2     -101.6580 -186.5090  299.0740 C.3   201  LEU201      0.0001
      9  N        -99.4080 -191.5780  298.5900 N.am  202  VAL202     -0.1966
     10  CA       -98.7060 -192.6720  297.9300 C.3   202  VAL202      0.1727
     11  C        -99.5480 -193.9510  297.9370 C.2   202  VAL202      0.2616
     12  O        -99.0310 -195.0180  297.6240 O.2   202  VAL202     -0.2715
     13  CB       -97.2520 -192.9050  298.4400 C.3   202  VAL202      0.0290
     14  CG1      -96.3960 -191.6730  298.2460 C.3   202  VAL202      0.0023
     15  CG2      -97.2050 -193.4190  299.8850 C.3   202  VAL202      0.0023
     16  N       -100.8390 -193.8380  298.3250 N.am  203  ASP203     -0.1971
     17  CA      -101.7910 -194.9430  298.3670 C.3   203  ASP203      0.1709
     18  C       -101.3410 -196.0630  299.2870 C.2   203  ASP203      0.2293
     19  O       -101.4880 -197.2480  298.9540 O.2   203  ASP203     -0.2864
     20  CB      -102.1220 -195.4530  296.9410 C.3   203  ASP203      0.1436
     21  CG      -102.9770 -194.4540  296.1620 C.2   203  ASP203      0.3671
     22  OD1     -104.1370 -194.2250  296.5610 O.co2 203  ASP203     -0.2456
     23  OD2     -102.4660 -193.8710  295.1810 O.co2 203  ASP203     -0.2456
     24  N       -101.2670 -185.5380  293.5140 N.3   237  TYR237     -0.1241
     25  CA       -99.8980 -185.7900  293.0610 C.3   237  TYR237      0.1605
     26  C        -99.0130 -184.5840  293.4090 C.2   237  TYR237      0.2264
     27  O        -97.9250 -184.7350  293.9660 O.2   237  TYR237     -0.2867
     28  CB       -99.8760 -186.0980  291.5520 C.3   237  TYR237      0.0534
     29  CG      -100.0530 -187.5600  291.1780 C.ar  237  TYR237     -0.0201
     30  CD1     -100.9880 -188.3620  291.8270 C.ar  237  TYR237     -0.0009
     31  CD2      -99.3650 -188.1100  290.1040 C.ar  237  TYR237     -0.0009
     32  CE1     -101.1910 -189.6920  291.4490 C.ar  237  TYR237      0.0417
     33  CE2      -99.5660 -189.4330  289.7110 C.ar  237  TYR237      0.0417
     34  CZ      -100.4870 -190.2190  290.3780 C.ar  237  TYR237      0.1957
     35  OH      -100.6820 -191.5190  289.9620 O.3   237  TYR237     -0.2866
     36  N        -97.9140 -184.0550  297.0920 N.3   240  LEU240     -0.1245
     37  CA       -96.6610 -184.7160  297.4670 C.3   240  LEU240      0.1561
     38  C        -95.4320 -183.9660  296.9470 C.2   240  LEU240      0.2260
     39  O        -94.4000 -183.9580  297.6090 O.2   240  LEU240     -0.2867
     40  CB       -96.6720 -186.1640  296.9670 C.3   240  LEU240      0.0270
     41  CG       -95.5620 -187.0890  297.5120 C.3   240  LEU240      0.0019
     42  CD1      -95.6370 -187.2340  299.0480 C.3   240  LEU240      0.0001
     43  CD2      -95.6120 -188.4470  296.8260 C.3   240  LEU240      0.0001
     44  N        -95.2630 -198.8900  295.6090 N.3   262  GLU262     -0.1231
     45  CA       -95.1730 -198.6180  294.1840 C.3   262  GLU262      0.1699
     46  C        -95.8050 -197.2540  293.9110 C.2   262  GLU262      0.2592
     47  O        -96.9490 -197.0000  294.2980 O.2   262  GLU262     -0.2718
     48  CB       -95.8540 -199.7070  293.3300 C.3   262  GLU262      0.0402
     49  CG       -95.0790 -201.0020  293.2020 C.3   262  GLU262      0.1161
     50  CD       -93.7660 -200.9730  292.4440 C.2   262  GLU262      0.3649
     51  OE1      -93.5820 -200.0890  291.5750 O.co2 262  GLU262     -0.2457
     52  OE2      -92.9370 -201.8790  292.6840 O.co2 262  GLU262     -0.2457
     53  N        -95.0470 -196.3730  293.2750 N.am  263  LEU263     -0.1966
     54  CA       -95.5420 -195.0610  292.8750 C.3   263  LEU263      0.1728
     55  C        -96.0050 -195.1570  291.4210 C.2   263  LEU263      0.2616
     56  O        -95.7030 -196.1410  290.7510 O.2   263  LEU263     -0.2715
     57  CB       -94.3960 -194.0310  292.9460 C.3   263  LEU263      0.0311
     58  CG       -93.9220 -193.5420  294.3220 C.3   263  LEU263      0.0022
     59  CD1      -92.8350 -192.4750  294.1330 C.3   263  LEU263      0.0001
     60  CD2      -95.0960 -192.9640  295.1470 C.3   263  LEU263      0.0001
     61  N        -96.6540 -194.1050  290.9110 N.am  264  ASP264     -0.1958
     62  CA       -97.0240 -194.0030  289.5030 C.3   264  ASP264      0.1825
     63  C        -95.7200 -194.1780  288.6630 C.2   264  ASP264      0.2464
     64  O        -94.6820 -193.6410  289.0600 O.2   264  ASP264     -0.2730
     65  CB       -97.6420 -192.6280  289.2410 C.3   264  ASP264      0.1450
     66  CG       -98.1360 -192.4430  287.8170 C.2   264  ASP264      0.3671
     67  OD1      -97.2850 -192.3090  286.9090 O.co2 264  ASP264     -0.2456
     68  OD2      -99.3720 -192.4320  287.6150 O.co2 264  ASP264     -0.2456
     69  N        -95.7230 -194.9420  287.5370 N.am  265  PRO265     -0.2727
     70  CA       -94.4550 -195.1750  286.7990 C.3   265  PRO265      0.1402
     71  C        -93.7660 -193.9270  286.2130 C.2   265  PRO265      0.2269
     72  O        -92.5850 -193.9960  285.8760 O.2   265  PRO265     -0.2865
     73  CB       -94.8500 -196.1860  285.7170 C.3   265  PRO265      0.0296
     74  CG       -96.1430 -196.8150  286.2300 C.3   265  PRO265      0.0237
     75  CD       -96.8410 -195.6920  286.9290 C.3   265  PRO265      0.0939
     76  N        -93.1820 -191.3070  288.0480 N.3   267  PHE267     -0.1241
     77  CA       -92.7230 -190.6920  289.3140 C.3   267  PHE267      0.1605
     78  C        -91.4810 -189.7640  289.2050 C.2   267  PHE267      0.2264
     79  O        -91.4380 -188.7680  289.9140 O.2   267  PHE267     -0.2867
     80  CB       -92.4910 -191.7550  290.4130 C.3   267  PHE267      0.0534
     81  CG       -91.2690 -192.6320  290.2310 C.ar  267  PHE267     -0.0203
     82  CD1      -90.0280 -192.2420  290.7320 C.ar  267  PHE267     -0.0042
     83  CD2      -91.3630 -193.8610  289.5820 C.ar  267  PHE267     -0.0042
     84  CE1      -88.8920 -193.0320  290.5340 C.ar  267  PHE267     -0.0003
     85  CE2      -90.2310 -194.6680  289.4110 C.ar  267  PHE267     -0.0003
     86  CZ       -89.0020 -194.2490  289.8930 C.ar  267  PHE267     -0.0000
     87  N        -92.5920 -186.4080  287.6330 N.3   270  ILE270     -0.1231
     88  CA       -93.5340 -185.6590  288.4660 C.3   270  ILE270      0.1692
     89  C        -92.7990 -185.1300  289.7100 C.2   270  ILE270      0.2591
     90  O        -92.8620 -183.9370  289.9690 O.2   270  ILE270     -0.2718
     91  CB       -94.8140 -186.5100  288.8140 C.3   270  ILE270      0.0266
     92  CG1      -95.5260 -187.0250  287.5290 C.3   270  ILE270      0.0019
     93  CG2      -95.7950 -185.7350  289.7300 C.3   270  ILE270      0.0020
     94  CD1      -96.4440 -188.3020  287.7100 C.3   270  ILE270      0.0001
     95  N        -92.0770 -186.0130  290.4380 N.am  271  LEU271     -0.1980
     96  CA       -91.3480 -185.6850  291.6680 C.3   271  LEU271      0.1596
     97  C        -89.9690 -185.1110  291.4380 C.2   271  LEU271      0.2287
     98  O        -89.5740 -184.1870  292.1340 O.2   271  LEU271     -0.2864
     99  CB       -91.2460 -186.9080  292.6160 C.3   271  LEU271      0.0297
    100  CG       -92.4730 -187.2890  293.4230 C.3   271  LEU271      0.0022
    101  CD1      -92.2410 -188.6280  294.1410 C.3   271  LEU271      0.0001
    102  CD2      -92.8380 -186.1990  294.4410 C.3   271  LEU271      0.0001
@<TRIPOS>BOND
     1    73    74    1
     2    73    70    1
     3    72    71    2
     4    71    70    1
     5    74    75    1
     6    70    69    1
     7    67    66   ar
     8    75    69    1
     9    92    94    1
    10    92    91    1
    11    69    63   am
    12    68    66   ar
    13    87    88    1
    14    66    65    1
    15    76    77    1
    16    88    91    1
    17    88    89    1
    18    63    64    2
    19    63    62    1
    20    91    93    1
    21    78    77    1
    22    78    79    2
    23    65    62    1
    24    77    80    1
    25    85    83   ar
    26    85    86   ar
    27    62    61    1
    28    83    81   ar
    29    89    90    2
    30    89    95   am
    31    33    31   ar
    32    33    34   ar
    33    86    84   ar
    34    35    34    1
    35    31    29   ar
    36    81    80    1
    37    81    82   ar
    38    34    32   ar
    39    95    96    1
    40    84    82   ar
    41    56    55    2
    42    61    55   am
    43    29    28    1
    44    29    30   ar
    45    55    54    1
    46    97    96    1
    47    97    98    2
    48    32    30   ar
    49    28    25    1
    50    51    50   ar
    51    96    99    1
    52    50    52   ar
    53    50    49    1
    54    99   100    1
    55    54    57    1
    56    54    53    1
    57    57    58    1
    58    25    26    1
    59    25    24    1
    60    49    48    1
    61    53    46   am
    62    48    45    1
    63    26    27    2
    64   100   101    1
    65   100   102    1
    66    46    45    1
    67    46    47    2
    68    59    58    1
    69    45    44    1
    70    58    60    1
    71    23    21   ar
    72    21    22   ar
    73    21    20    1
    74     4     3    2
    75    43    41    1
    76    20    17    1
    77    38    37    1
    78    38    39    2
    79    40    37    1
    80    40    41    1
    81    36    37    1
    82    41    42    1
    83    12    11    2
    84    10    11    1
    85    10    13    1
    86    10     9    1
    87     3     9   am
    88     3     2    1
    89    11    16   am
    90    14    13    1
    91    16    17    1
    92    17    18    1
    93    13    15    1
    94     2     5    1
    95     2     1    1
    96     5     6    1
    97    19    18    2
    98     8     6    1
    99     6     7    1
