@<TRIPOS>MOLECULE
tmp/5ot6A00.pdb
 161 151 0 0 0
SMALL
GASTEIGER

@<TRIPOS>ATOM
      1  N          7.4030  124.6470  361.1780 N.3    44  LEU44      -0.1231
      2  CA         6.8840  125.8640  360.5490 C.3    44  LEU44       0.1693
      3  C          7.6870  126.2430  359.3030 C.2    44  LEU44       0.2592
      4  O          7.2070  127.0160  358.4710 O.2    44  LEU44      -0.2718
      5  CB         6.8740  127.0330  361.5420 C.3    44  LEU44       0.0284
      6  CG         5.8050  127.0000  362.6460 C.3    44  LEU44       0.0019
      7  CD1        6.1500  127.9560  363.7410 C.3    44  LEU44       0.0001
      8  CD2        4.4230  127.3410  362.0970 C.3    44  LEU44       0.0001
      9  N          8.9020  125.7070  359.2040 N.am   45  GLY45      -0.1957
     10  CA         9.8170  125.9650  358.1020 C.3    45  GLY45       0.1869
     11  C         11.2510  125.5220  358.3440 C.2    45  GLY45       0.2309
     12  O         11.6040  125.0430  359.4300 O.2    45  GLY45      -0.2863
     13  N         12.6100  125.7810  362.2840 N.3    52  VAL52      -0.1245
     14  CA        11.6380  126.4330  363.1720 C.3    52  VAL52       0.1561
     15  C         10.4050  125.5390  363.4120 C.2    52  VAL52       0.2260
     16  O          9.8580  124.9570  362.4700 O.2    52  VAL52      -0.2867
     17  CB        11.2760  127.8490  362.6890 C.3    52  VAL52       0.0252
     18  CG1       10.4270  128.5950  363.7110 C.3    52  VAL52       0.0019
     19  CG2       12.5390  128.6450  362.3610 C.3    52  VAL52       0.0019
     20  N          0.8800  132.7660  362.1390 N.3   117  ASN117     -0.1225
     21  CA         1.0030  133.1660  360.7430 C.3   117  ASN117      0.1785
     22  C         -0.1990  132.8300  359.8400 C.2   117  ASN117      0.2597
     23  O         -0.5320  131.6550  359.6600 O.2   117  ASN117     -0.2718
     24  CB         2.2720  132.5800  360.1520 C.3   117  ASN117      0.1169
     25  CG         3.4540  133.4720  360.3740 C.2   117  ASN117      0.2627
     26  OD1        3.6400  134.4860  359.6820 O.2   117  ASN117     -0.2716
     27  ND2        4.2600  133.1090  361.3510 N.am  117  ASN117     -0.0877
     28  N         -0.8300  133.8720  359.2670 N.am  118  THR118     -0.1953
     29  CA        -1.9210  133.7210  358.3010 C.3   118  THR118      0.1897
     30  C         -1.2750  133.1920  357.0000 C.2   118  THR118      0.2313
     31  O         -0.1230  133.5460  356.7180 O.2   118  THR118     -0.2863
     32  CB        -2.5650  135.0930  358.0180 C.3   118  THR118      0.1794
     33  OG1       -2.9190  135.7310  359.2380 O.3   118  THR118     -0.2208
     34  CG2       -3.7760  135.0090  357.0860 C.3   118  THR118      0.0378
     35  N          0.0330  133.1890  353.6250 N.3   120  PHE120     -0.1241
     36  CA         0.5500  134.2860  352.7950 C.3   120  PHE120      0.1605
     37  C         -0.1250  134.3690  351.4110 C.2   120  PHE120      0.2264
     38  O         -0.5520  135.4580  351.0130 O.2   120  PHE120     -0.2867
     39  CB         2.0980  134.2180  352.6880 C.3   120  PHE120      0.0534
     40  CG         2.7580  135.0680  351.6180 C.ar  120  PHE120     -0.0203
     41  CD1        2.5580  136.4470  351.5740 C.ar  120  PHE120     -0.0042
     42  CD2        3.6150  134.4960  350.6830 C.ar  120  PHE120     -0.0042
     43  CE1        3.1680  137.2300  350.5870 C.ar  120  PHE120     -0.0003
     44  CE2        4.2310  135.2820  349.7010 C.ar  120  PHE120     -0.0003
     45  CZ         4.0060  136.6430  349.6630 C.ar  120  PHE120     -0.0000
     46  N         -3.4680  135.6540  351.9800 N.3   123  LEU123     -0.1245
     47  CA        -3.2820  137.0190  352.4890 C.3   123  LEU123      0.1561
     48  C         -3.0850  138.0200  351.3330 C.2   123  LEU123      0.2260
     49  O         -3.8470  138.9810  351.2210 O.2   123  LEU123     -0.2867
     50  CB        -2.0680  137.0250  353.4560 C.3   123  LEU123      0.0270
     51  CG        -1.8500  138.2040  354.4040 C.3   123  LEU123      0.0019
     52  CD1       -3.0930  138.5180  355.1930 C.3   123  LEU123      0.0001
     53  CD2       -0.7190  137.9080  355.3650 C.3   123  LEU123      0.0001
     54  N         -5.3200  141.5110  350.5810 N.3   127  LEU127     -0.1245
     55  CA        -4.7580  142.7580  351.1240 C.3   127  LEU127      0.1561
     56  C         -5.1970  143.9860  350.3180 C.2   127  LEU127      0.2260
     57  O         -5.3400  143.9370  349.0970 O.2   127  LEU127     -0.2867
     58  CB        -3.2180  142.7260  351.3300 C.3   127  LEU127      0.0270
     59  CG        -2.6550  141.7460  352.4010 C.3   127  LEU127      0.0019
     60  CD1       -1.1430  141.7130  352.3840 C.3   127  LEU127      0.0001
     61  CD2       -3.1470  142.0520  353.8210 C.3   127  LEU127      0.0001
     62  N         -1.5910  147.4120  353.3140 N.3   132  ILE132     -0.1245
     63  CA        -0.1860  147.5610  352.9460 C.3   132  ILE132      0.1561
     64  C          0.3980  148.7050  353.7830 C.2   132  ILE132      0.2260
     65  O          1.4220  148.5120  354.4190 O.2   132  ILE132     -0.2867
     66  CB         0.0330  147.7070  351.4200 C.3   132  ILE132      0.0252
     67  CG1       -0.4560  146.4290  350.6540 C.3   132  ILE132      0.0019
     68  CG2        1.5020  148.0320  351.1000 C.3   132  ILE132      0.0019
     69  CD1       -0.3860  146.5170  349.1480 C.3   132  ILE132      0.0001
     70  N          0.6470  147.5660  357.5870 N.3   135  TYR135     -0.1227
     71  CA         1.7430  146.6490  357.9030 C.3   135  TYR135      0.1736
     72  C          3.1270  147.2730  357.6310 C.2   135  TYR135      0.2595
     73  O          4.0510  147.0070  358.3800 O.2   135  TYR135     -0.2718
     74  CB         1.5510  145.2950  357.2140 C.3   135  TYR135      0.0548
     75  CG         0.4320  144.5000  357.8500 C.ar  135  TYR135     -0.0200
     76  CD1        0.4720  144.1560  359.2010 C.ar  135  TYR135     -0.0009
     77  CD2       -0.6710  144.0900  357.1030 C.ar  135  TYR135     -0.0009
     78  CE1       -0.5670  143.4340  359.7990 C.ar  135  TYR135      0.0417
     79  CE2       -1.7270  143.3830  357.6950 C.ar  135  TYR135      0.0417
     80  CZ        -1.6650  143.0500  359.0410 C.ar  135  TYR135      0.1957
     81  OH        -2.6860  142.3350  359.6310 O.3   135  TYR135     -0.2866
     82  N          3.2330  148.1410  356.6310 N.am  136  MET136     -0.1979
     83  CA         4.5060  148.8380  356.3560 C.3   136  MET136      0.1605
     84  C          4.8760  149.6990  357.5910 C.2   136  MET136      0.2287
     85  O          6.0290  149.7030  358.0160 O.2   136  MET136     -0.2864
     86  CB         4.3910  149.6850  355.0860 C.3   136  MET136      0.0413
     87  CG         4.5350  148.8780  353.8240 C.3   136  MET136      0.0598
     88  SD         6.2090  148.2290  353.5550 S.3   136  MET136     -0.1393
     89  CE         7.0680  149.7970  353.4830 C.3   136  MET136      0.0692
     90  N          6.3320  147.5590  360.4620 N.3   139  ILE139     -0.1245
     91  CA         7.7260  147.1200  360.2720 C.3   139  ILE139      0.1561
     92  C          8.6400  148.3100  360.6280 C.2   139  ILE139      0.2260
     93  O          9.7170  148.1170  361.1750 O.2   139  ILE139     -0.2867
     94  CB         7.9490  146.6870  358.7650 C.3   139  ILE139      0.0252
     95  CG1        7.1270  145.3710  358.4430 C.3   139  ILE139      0.0019
     96  CG2        9.4300  146.4210  358.4970 C.3   139  ILE139      0.0019
     97  CD1        6.9780  145.0210  356.8920 C.3   139  ILE139      0.0001
     98  N         10.0890  139.2580  353.1460 N.3   158  PRO158     -0.2102
     99  CA         8.7770  138.7220  353.6000 C.3   158  PRO158      0.1504
    100  C          8.8750  137.5100  354.5160 C.2   158  PRO158      0.2575
    101  O          8.1250  137.4400  355.4760 O.2   158  PRO158     -0.2718
    102  CB         8.0530  138.3790  352.2840 C.3   158  PRO158      0.0282
    103  CG         8.6400  139.3250  351.3030 C.3   158  PRO158      0.0208
    104  CD        10.1050  139.4000  351.6750 C.3   158  PRO158      0.0893
    105  N          9.8220  136.6210  354.2480 N.am  159  HIS159     -0.1976
    106  CA        10.0150  135.4330  355.0650 C.3   159  HIS159      0.1656
    107  C         10.4290  135.7790  356.4940 C.2   159  HIS159      0.2291
    108  O         10.3650  134.9430  357.3780 O.2   159  HIS159     -0.2864
    109  CB        11.0630  134.5170  354.4340 C.3   159  HIS159      0.0771
    110  CG        11.2790  133.2390  355.1830 C.ar  159  HIS159      0.0820
    111  ND1       10.6270  132.0690  354.8610 N.ar  159  HIS159     -0.2267
    112  CD2       12.0730  132.9490  356.2400 C.ar  159  HIS159      0.1154
    113  CE1       11.0120  131.1120  355.6850 C.ar  159  HIS159      0.1986
    114  NE2       11.8880  131.6200  356.5320 N.ar  159  HIS159     -0.2212
    115  N          9.0810  138.4020  358.1940 N.3   161  VAL161     -0.1231
    116  CA         8.0040  139.1960  358.7760 C.3   161  VAL161      0.1692
    117  C          6.7610  138.3400  358.9990 C.2   161  VAL161      0.2592
    118  O          6.0790  137.9800  358.0500 O.2   161  VAL161     -0.2718
    119  CB         7.6280  140.3790  357.8720 C.3   161  VAL161      0.0266
    120  CG1        6.4420  141.1310  358.4530 C.3   161  VAL161      0.0020
    121  CG2        8.8200  141.3020  357.6810 C.3   161  VAL161      0.0020
    122  N          6.4620  138.0430  360.2590 N.am  162  MET162     -0.1965
    123  CA         5.3110  137.1970  360.6350 C.3   162  MET162      0.1736
    124  C          4.1090  138.0510  360.8720 C.2   162  MET162      0.2616
    125  O          4.1670  138.9860  361.6650 O.2   162  MET162     -0.2715
    126  CB         5.5890  136.3180  361.8560 C.3   162  MET162      0.0427
    127  CG         6.7580  135.3710  361.6400 C.3   162  MET162      0.0599
    128  SD         6.8820  133.8870  362.7300 S.3   162  MET162     -0.1393
    129  CE         7.3080  134.5170  364.2190 C.3   162  MET162      0.0692
    130  N          3.0280  137.7680  360.1410 N.am  163  ILE163     -0.1977
    131  CA         1.7610  138.4700  360.2810 C.3   163  ILE163      0.1596
    132  C          0.6180  137.4960  360.6960 C.2   163  ILE163      0.2287
    133  O          0.4300  136.4460  360.0710 O.2   163  ILE163     -0.2864
    134  CB         1.3750  139.2700  359.0210 C.3   163  ILE163      0.0276
    135  CG1        2.4470  140.3570  358.6580 C.3   163  ILE163      0.0022
    136  CG2       -0.0300  139.8910  359.1640 C.3   163  ILE163      0.0022
    137  CD1        2.0560  141.2650  357.4760 C.3   163  ILE163      0.0001
    138  N         11.2850  138.9760  362.5540 N.3   173  ILE173     -0.1245
    139  CA        11.9930  137.8050  363.0690 C.3   173  ILE173      0.1561
    140  C         13.3250  137.5140  362.3940 C.2   173  ILE173      0.2260
    141  O         13.7510  138.2330  361.4950 O.2   173  ILE173     -0.2867
    142  CB        11.1230  136.5380  362.9700 C.3   173  ILE173      0.0252
    143  CG1       10.9580  136.1190  361.5080 C.3   173  ILE173      0.0019
    144  CG2        9.7730  136.7720  363.6200 C.3   173  ILE173      0.0019
    145  CD1       10.2100  134.8180  361.3190 C.3   173  ILE173      0.0001
    146  N         10.4050  145.2020  349.3070 N.3   220  MET220     -0.1245
    147  CA         9.1730  144.5650  349.8110 C.3   220  MET220      0.1570
    148  C          7.9660  145.4010  349.4180 C.2   220  MET220      0.2261
    149  O          6.9810  144.8460  348.9370 O.2   220  MET220     -0.2867
    150  CB         9.2010  144.4340  351.3290 C.3   220  MET220      0.0387
    151  CG        10.1250  143.3310  351.8280 C.3   220  MET220      0.0595
    152  SD         9.9120  143.1210  353.6140 S.3   220  MET220     -0.1393
    153  CE         8.2570  142.6770  353.6810 C.3   220  MET220      0.0692
    154  N          4.7820  144.4380  346.7560 N.3   224  MET224     -0.1245
    155  CA         3.4200  144.4630  347.2850 C.3   224  MET224      0.1570
    156  C          2.4780  145.3550  346.5070 C.2   224  MET224      0.2261
    157  O          1.3960  144.9000  346.1220 O.2   224  MET224     -0.2867
    158  CB         3.3920  144.8240  348.7790 C.3   224  MET224      0.0387
    159  CG         3.8760  143.7120  349.6890 C.3   224  MET224      0.0595
    160  SD         2.9680  142.1420  349.6000 S.3   224  MET224     -0.1393
    161  CE         1.2740  142.6850  349.8380 C.3   224  MET224      0.0692
@<TRIPOS>BOND
     1   157   156    2
     2   156   155    1
     3   154   155    1
     4   155   158    1
     5   158   159    1
     6   149   148    2
     7    57    56    2
     8    69    67    1
     9   146   147    1
    10   148   147    1
    11   160   159    1
    12   160   161    1
    13    45    44   ar
    14    45    43   ar
    15    44    42   ar
    16   147   150    1
    17    56    55    1
    18    54    55    1
    19    43    41   ar
    20    67    66    1
    21    42    40   ar
    22    38    37    2
    23    68    66    1
    24    55    58    1
    25    49    48    2
    26   103   104    1
    27   103   102    1
    28   150   151    1
    29    58    59    1
    30    48    47    1
    31    37    36    1
    32    66    63    1
    33    41    40   ar
    34    40    39    1
    35   104    98    1
    36   151   152    1
    37    46    47    1
    38   102    99    1
    39    60    59    1
    40    59    61    1
    41    47    50    1
    42    39    36    1
    43    36    35    1
    44    63    62    1
    45    63    64    1
    46    98    99    1
    47    50    51    1
    48    89    88    1
    49    88    87    1
    50    99   100    1
    51   152   153    1
    52    64    65    2
    53    87    86    1
    54   105   100   am
    55   105   106    1
    56    51    52    1
    57    51    53    1
    58   109   106    1
    59   109   110    1
    60   100   101    2
    61   111   110   ar
    62   111   113   ar
    63   106   107    1
    64    86    83    1
    65   110   112   ar
    66   113   114   ar
    67   112   114   ar
    68    83    82    1
    69    83    84    1
    70   107   108    2
    71    82    72   am
    72    31    30    2
    73    97    95    1
    74    30    29    1
    75    34    32    1
    76    77    79   ar
    77    77    75   ar
    78    74    75    1
    79    74    71    1
    80   137   135    1
    81    70    71    1
    82    84    85    2
    83    72    71    1
    84    72    73    2
    85   121   119    1
    86    79    80   ar
    87    75    76   ar
    88   119   120    1
    89   119   116    1
    90    32    29    1
    91    32    33    1
    92   118   117    2
    93    10    11    1
    94    10     9    1
    95   115   116    1
    96    29    28    1
    97    11    12    2
    98    95    94    1
    99     4     3    2
   100    96    94    1
   101   135   134    1
   102    94    91    1
   103   116   117    1
   104   117   122   am
   105   134   136    1
   106   134   131    1
   107    80    81    1
   108    80    78   ar
   109    76    78   ar
   110     9     3   am
   111    28    22   am
   112     3     2    1
   113    23    22    2
   114    26    25    2
   115    22    21    1
   116   133   132    2
   117   130   131    1
   118   130   124   am
   119    24    25    1
   120    24    21    1
   121   122   123    1
   122    91    90    1
   123    91    92    1
   124   131   132    1
   125    25    27   am
   126     2     1    1
   127     2     5    1
   128    92    93    2
   129   123   124    1
   130   123   126    1
   131    21    20    1
   132   124   125    2
   133   145   143    1
   134   141   140    2
   135   143   142    1
   136     5     6    1
   137   127   126    1
   138   127   128    1
   139     8     6    1
   140    13    14    1
   141    19    17    1
   142   140   139    1
   143    16    15    2
   144   138   139    1
   145     6     7    1
   146    17    14    1
   147    17    18    1
   148   128   129    1
   149   142   139    1
   150   142   144    1
   151    14    15    1
