@<TRIPOS>MOLECULE
tmp/5ot9A00.pdb
 151 144 0 0 0
SMALL
GASTEIGER

@<TRIPOS>ATOM
      1  N         22.5960  -12.4070  -10.2180 N.3     9  GLU9       -0.1245
      2  CA        22.5040  -11.1770  -11.0070 C.3     9  GLU9        0.1567
      3  C         23.7800  -10.9100  -11.8330 C.2     9  GLU9        0.2260
      4  O         23.6800  -10.6080  -13.0240 O.2     9  GLU9       -0.2867
      5  CB        22.1580   -9.9950  -10.0920 C.3     9  GLU9        0.0388
      6  CG        21.6410   -8.7680  -10.8150 C.3     9  GLU9        0.1160
      7  CD        21.4500   -7.5640   -9.9170 C.2     9  GLU9        0.3649
      8  OE1       21.6010   -7.7130   -8.6810 O.co2   9  GLU9       -0.2457
      9  OE2       21.1630   -6.4670  -10.4510 O.co2   9  GLU9       -0.2457
     10  N         26.1430   -7.1620   -8.5900 N.3    12  TYR12      -0.1241
     11  CA        25.8900   -6.7370   -7.2140 C.3    12  TYR12       0.1605
     12  C         27.0830   -7.0970   -6.3330 C.2    12  TYR12       0.2264
     13  O         27.0130   -8.0470   -5.5570 O.2    12  TYR12      -0.2867
     14  CB        24.5730   -7.3360   -6.6660 C.3    12  TYR12       0.0534
     15  CG        23.8930   -6.4260   -5.6640 C.ar   12  TYR12      -0.0201
     16  CD1       23.1720   -5.3130   -6.0830 C.ar   12  TYR12      -0.0009
     17  CD2       23.9880   -6.6640   -4.2950 C.ar   12  TYR12      -0.0009
     18  CE1       22.5790   -4.4460   -5.1660 C.ar   12  TYR12       0.0417
     19  CE2       23.3870   -5.8090   -3.3690 C.ar   12  TYR12       0.0417
     20  CZ        22.6880   -4.6960   -3.8110 C.ar   12  TYR12       0.1957
     21  OH        22.0750   -3.8210   -2.9410 O.3    12  TYR12      -0.2866
     22  N         28.4640   -9.4640   -3.4020 N.3    15  TYR15      -0.1241
     23  CA        27.6270  -10.6700   -3.3530 C.3    15  TYR15       0.1605
     24  C         27.8110  -11.5220   -4.6050 C.2    15  TYR15       0.2264
     25  O         27.9920  -12.7400   -4.5100 O.2    15  TYR15      -0.2867
     26  CB        26.1540  -10.2810   -3.2700 C.3    15  TYR15       0.0534
     27  CG        25.6410   -9.9590   -1.8930 C.ar   15  TYR15      -0.0201
     28  CD1       25.0930  -10.9530   -1.0830 C.ar   15  TYR15      -0.0009
     29  CD2       25.5580   -8.6410   -1.4530 C.ar   15  TYR15      -0.0009
     30  CE1       24.5080  -10.6470    0.1420 C.ar   15  TYR15       0.0417
     31  CE2       24.9940   -8.3280   -0.2210 C.ar   15  TYR15       0.0417
     32  CZ        24.4730   -9.3350    0.5740 C.ar   15  TYR15       0.1957
     33  OH        23.8900   -9.0320    1.7730 O.3    15  TYR15      -0.2866
     34  N         17.9830   -9.0070  -12.9910 N.3    50  TRP50      -0.1241
     35  CA        17.0930   -8.8520  -11.8370 C.3    50  TRP50       0.1605
     36  C         15.6060   -8.8010  -12.2080 C.2    50  TRP50       0.2264
     37  O         14.7990   -9.4320  -11.5210 O.2    50  TRP50      -0.2867
     38  CB        17.5160   -7.6330  -10.9990 C.3    50  TRP50       0.0550
     39  CG        16.8880   -7.5620   -9.6370 C.ar   50  TRP50       0.0003
     40  CD1       15.9540   -6.6610   -9.2130 C.ar   50  TRP50       0.0946
     41  CD2       17.1820   -8.3980   -8.5040 C.ar   50  TRP50       0.0152
     42  NE1       15.6420   -6.8880   -7.8890 N.ar   50  TRP50      -0.2442
     43  CE2       16.3690   -7.9560   -7.4340 C.ar   50  TRP50       0.0810
     44  CE3       18.0530   -9.4820   -8.2890 C.ar   50  TRP50       0.0012
     45  CZ2       16.3910   -8.5700   -6.1730 C.ar   50  TRP50       0.0191
     46  CZ3       18.0690  -10.0910   -7.0440 C.ar   50  TRP50       0.0001
     47  CH2       17.2610   -9.6270   -5.9970 C.ar   50  TRP50       0.0015
     48  N         21.1940  -14.3620   -5.1230 N.3    67  ALA67      -0.1231
     49  CA        21.5160  -13.0610   -5.6880 C.3    67  ALA67       0.1694
     50  C         21.2210  -11.9060   -4.7320 C.2    67  ALA67       0.2592
     51  O         20.5330  -10.9610   -5.1220 O.2    67  ALA67      -0.2718
     52  CB        20.7480  -12.8710   -6.9980 C.3    67  ALA67       0.0304
     53  N         21.7550  -11.9640   -3.4880 N.am   68  ALA68      -0.1966
     54  CA        21.5520  -10.9430   -2.4480 C.3    68  ALA68       0.1728
     55  C         20.0550  -10.6540   -2.2400 C.2    68  ALA68       0.2616
     56  O         19.6600   -9.5040   -2.0280 O.2    68  ALA68      -0.2715
     57  CB        22.2990   -9.6610   -2.8140 C.3    68  ALA68       0.0334
     58  N         19.2160  -11.6980   -2.3270 N.am   69  MET69      -0.1963
     59  CA        17.7670  -11.5380   -2.2280 C.3    69  MET69       0.1736
     60  C         17.2270  -11.5670   -0.8100 C.2    69  MET69       0.2617
     61  O         17.3110  -12.5830   -0.1170 O.2    69  MET69      -0.2715
     62  CB        17.0410  -12.5380   -3.1270 C.3    69  MET69       0.0427
     63  CG        15.5800  -12.2230   -3.3300 C.3    69  MET69       0.0599
     64  SD        14.8080  -13.3940   -4.4650 S.3    69  MET69      -0.1393
     65  CE        15.2140  -12.6150   -6.0000 C.3    69  MET69       0.0692
     66  N         16.6570  -10.4360   -0.4100 N.am   70  GLY70      -0.1955
     67  CA        16.0160  -10.2810    0.8780 C.3    70  GLY70       0.1869
     68  C         14.7570  -11.1200    0.9480 C.2    70  GLY70       0.2309
     69  O         13.9900  -11.1660   -0.0130 O.2    70  GLY70      -0.2863
     70  N          7.7780  -11.0930   -1.8090 N.3    75  ARG75      -0.1245
     71  CA         8.4640  -12.1620   -2.5450 C.3    75  ARG75       0.1563
     72  C          7.9810  -13.5460   -2.0850 C.2    75  ARG75       0.2260
     73  O          7.7560  -14.4150   -2.9360 O.2    75  ARG75      -0.2867
     74  CB         9.9810  -12.0300   -2.4200 C.3    75  ARG75       0.0307
     75  CG        10.5490  -10.8930   -3.2700 C.3    75  ARG75       0.0489
     76  CD        12.0190  -10.7080   -3.0290 C.3    75  ARG75       0.2205
     77  NE        12.5140   -9.5460   -3.7730 N.pl3  75  ARG75      -0.0865
     78  CZ        13.5350   -8.7970   -3.3920 C.cat  75  ARG75       0.5346
     79  NH1       13.8980   -7.7490   -4.1140 N.pl3  75  ARG75       0.1354
     80  NH2       14.1820   -9.0680   -2.2680 N.pl3  75  ARG75       0.1354
     81  N         21.3260   -8.3820    7.4960 N.3    88  THR88      -0.1218
     82  CA        21.8170   -7.0350    7.2350 C.3    88  THR88       0.1862
     83  C         20.7780   -5.9370    7.4010 C.2    88  THR88       0.2287
     84  O         19.7170   -5.9980    6.7870 O.2    88  THR88      -0.2866
     85  CB        22.5990   -6.9480    5.8770 C.3    88  THR88       0.1770
     86  OG1       23.0540   -5.5980    5.6730 O.3    88  THR88      -0.2211
     87  CG2       21.7640   -7.4430    4.6580 C.3    88  THR88       0.0375
     88  N         19.4400   -1.9230    6.7290 N.3    90  MET90      -0.1245
     89  CA        19.4230   -1.0240    5.5780 C.3    90  MET90       0.1570
     90  C         19.7610    0.3640    6.0490 C.2    90  MET90       0.2261
     91  O         19.3450    0.7560    7.1310 O.2    90  MET90      -0.2867
     92  CB        18.0300   -1.0230    4.9120 C.3    90  MET90       0.0387
     93  CG        17.5310   -2.3920    4.5600 C.3    90  MET90       0.0595
     94  SD        18.2680   -3.0170    3.0610 S.3    90  MET90      -0.1393
     95  CE        18.0930   -4.7170    3.3370 C.3    90  MET90       0.0692
     96  N         17.7650    1.0310   -7.2750 N.3   138  GLN138     -0.1245
     97  CA        17.6700    0.0210   -8.3220 C.3   138  GLN138      0.1566
     98  C         16.1990   -0.4230   -8.3800 C.2   138  GLN138      0.2260
     99  O         15.5670   -0.5930   -7.3400 O.2   138  GLN138     -0.2867
    100  CB        18.5910   -1.1670   -8.0180 C.3   138  GLN138      0.0367
    101  CG        18.6070   -2.2490   -9.1100 C.3   138  GLN138      0.0905
    102  CD        19.3390   -3.5110   -8.7220 C.2   138  GLN138      0.2608
    103  OE1       19.9940   -3.5920   -7.6780 O.2   138  GLN138     -0.2717
    104  NE2       19.2500   -4.5250   -9.5720 N.am  138  GLN138     -0.0878
    105  N         13.7320   -3.5990   -6.2580 N.3   141  THR141     -0.1203
    106  CA        14.3880   -3.8910   -4.9790 C.3   141  THR141      0.1994
    107  C         13.5110   -3.4990   -3.8050 C.2   141  THR141      0.2619
    108  O         12.5520   -2.7540   -3.9870 O.2   141  THR141     -0.2717
    109  CB        15.7570   -3.2070   -4.8900 C.3   141  THR141      0.1784
    110  OG1       15.5710   -1.7970   -4.9920 O.3   141  THR141     -0.2211
    111  CG2       16.7270   -3.7020   -5.9370 C.3   141  THR141      0.0376
    112  N         13.8560   -3.9840   -2.5940 N.am  142  SER142     -0.1937
    113  CA        13.1950   -3.6630   -1.3250 C.3   142  SER142      0.2055
    114  C         13.4150   -2.1640   -1.0210 C.2   142  SER142      0.2643
    115  O         12.6230   -1.5640   -0.2930 O.2   142  SER142     -0.2714
    116  CB        13.7750   -4.5140   -0.1950 C.3   142  SER142      0.2130
    117  OG        15.1880   -4.4080   -0.1220 O.3   142  SER142     -0.2179
    118  N         14.4560   -1.5620   -1.6380 N.am  143  HIS143     -0.1973
    119  CA        14.8270   -0.1470   -1.5300 C.3   143  HIS143      0.1656
    120  C         13.7580    0.7160   -2.1880 C.2   143  HIS143      0.2291
    121  O         13.3320    1.7150   -1.6080 O.2   143  HIS143     -0.2864
    122  CB        16.2090    0.1210   -2.1790 C.3   143  HIS143      0.0771
    123  CG        17.2600   -0.9110   -1.8810 C.ar  143  HIS143      0.0820
    124  ND1       18.2630   -1.1910   -2.7900 N.ar  143  HIS143     -0.2267
    125  CD2       17.4320   -1.6940   -0.7850 C.ar  143  HIS143      0.1154
    126  CE1       19.0090   -2.1220   -2.2260 C.ar  143  HIS143      0.1986
    127  NE2       18.5300   -2.4770   -1.0300 N.ar  143  HIS143     -0.2212
    128  N         21.5480   -1.9840    1.6410 N.3   180  SER180     -0.1217
    129  CA        21.9380   -2.6030    2.8950 C.3   180  SER180      0.1889
    130  C         23.3610   -2.2220    3.2520 C.2   180  SER180      0.2288
    131  O         24.1520   -1.8670    2.3630 O.2   180  SER180     -0.2866
    132  CB        21.8460   -4.1190    2.7910 C.3   180  SER180      0.2089
    133  OG        22.8280   -4.6110    1.8980 O.3   180  SER180     -0.2183
    134  N         26.1410   -4.1010    1.3770 N.3   183  PHE183     -0.1241
    135  CA        26.5430   -3.5640    0.0730 C.3   183  PHE183      0.1605
    136  C         27.3620   -2.2620    0.2750 C.2   183  PHE183      0.2264
    137  O         28.4090   -2.0860   -0.3510 O.2   183  PHE183     -0.2867
    138  CB        25.3050   -3.3050   -0.8310 C.3   183  PHE183      0.0534
    139  CG        25.6470   -2.5850   -2.1150 C.ar  183  PHE183     -0.0203
    140  CD1       26.1640   -3.2820   -3.2060 C.ar  183  PHE183     -0.0042
    141  CD2       25.5100   -1.2020   -2.2150 C.ar  183  PHE183     -0.0042
    142  CE1       26.5440   -2.6070   -4.3740 C.ar  183  PHE183     -0.0003
    143  CE2       25.9070   -0.5250   -3.3740 C.ar  183  PHE183     -0.0003
    144  CZ        26.4220   -1.2330   -4.4450 C.ar  183  PHE183     -0.0000
    145  N         18.8700  -12.3710    4.0520 N.3   212  VAL212     -0.1245
    146  CA        19.0890  -12.7840    2.6720 C.3   212  VAL212      0.1561
    147  C         19.0480  -14.3170    2.6320 C.2   212  VAL212      0.2260
    148  O         19.7530  -14.9770    3.3930 O.2   212  VAL212     -0.2867
    149  CB        20.4270  -12.1930    2.1230 C.3   212  VAL212      0.0252
    150  CG1       20.7970  -12.7780    0.7700 C.3   212  VAL212      0.0019
    151  CG2       20.3520  -10.6790    2.0250 C.3   212  VAL212      0.0019
@<TRIPOS>BOND
     1     4     3    2
     2    34    35    1
     3    36    35    1
     4    36    37    2
     5    35    38    1
     6     3     2    1
     7     2     1    1
     8     2     5    1
     9    38    39    1
    10     6     5    1
    11     6     7    1
    12     9     7   ar
    13     7     8   ar
    14    39    40   ar
    15    39    41   ar
    16   104   102   am
    17    40    42   ar
    18   101   102    1
    19   101   100    1
    20   102   103    2
    21    10    11    1
    22    41    44   ar
    23    41    43   ar
    24    98    97    1
    25    98    99    2
    26    97   100    1
    27    97    96    1
    28    44    46   ar
    29    42    43   ar
    30    43    45   ar
    31    11    14    1
    32    11    12    1
    33    46    47   ar
    34    52    49    1
    35    14    15    1
    36    12    13    2
    37   105   106    1
    38    45    47   ar
    39    16    15   ar
    40    16    18   ar
    41    65    64    1
    42   111   109    1
    43    49    48    1
    44    49    50    1
    45    15    17   ar
    46    18    20   ar
    47    51    50    2
    48   110   109    1
    49   106   109    1
    50   106   107    1
    51    50    53   am
    52    24    25    2
    53    24    23    1
    54    64    63    1
    55   144   142   ar
    56   144   143   ar
    57   142   140   ar
    58    17    19   ar
    59    79    78    1
    60   108   107    2
    61    20    19   ar
    62    20    21    1
    63   107   112   am
    64    77    78    2
    65    77    76    1
    66    53    54    1
    67    22    23    1
    68    78    80    1
    69   143   141   ar
    70    23    26    1
    71    63    62    1
    72    26    27    1
    73    75    76    1
    74    75    74    1
    75   140   139   ar
    76    62    59    1
    77    73    72    2
    78    57    54    1
    79   124   126   ar
    80   124   123   ar
    81   112   113    1
    82    71    74    1
    83    71    72    1
    84    71    70    1
    85    54    55    1
    86    58    55   am
    87    58    59    1
    88    55    56    2
    89    59    60    1
    90   126   127   ar
    91   141   139   ar
    92   120   121    2
    93   120   119    1
    94   122   123    1
    95   122   119    1
    96   139   138    1
    97    27    29   ar
    98    27    28   ar
    99   123   125   ar
   100   118   119    1
   101   118   114   am
   102    29    31   ar
   103   113   114    1
   104   113   116    1
   105    28    30   ar
   106   127   125   ar
   107   114   115    2
   108   138   135    1
   109    60    66   am
   110    60    61    2
   111    66    67    1
   112   137   136    2
   113    31    32   ar
   114   116   117    1
   115    69    68    2
   116   135   136    1
   117   135   134    1
   118    30    32   ar
   119    32    33    1
   120   150   149    1
   121    67    68    1
   122   128   129    1
   123   133   132    1
   124   151   149    1
   125   149   146    1
   126   131   130    2
   127   147   146    1
   128   147   148    2
   129   146   145    1
   130   132   129    1
   131   129   130    1
   132    94    95    1
   133    94    93    1
   134    93    92    1
   135    87    85    1
   136    92    89    1
   137    89    90    1
   138    89    88    1
   139    86    85    1
   140    85    82    1
   141    90    91    2
   142    84    83    2
   143    82    83    1
   144    82    81    1
