@<TRIPOS>MOLECULE
tmp/5otbA01.pdb
 81 75 0 0 0
SMALL
GASTEIGER

@<TRIPOS>ATOM
      1  N         54.4230   37.9180   52.4920 N.3   195  LEU195     -0.1245
      2  CA        54.2060   38.8660   53.5460 C.3   195  LEU195      0.1561
      3  C         55.4430   39.0000   54.4450 C.2   195  LEU195      0.2260
      4  O         55.8620   40.1390   54.7380 O.2   195  LEU195     -0.2867
      5  CB        52.9220   38.5350   54.3710 C.3   195  LEU195      0.0270
      6  CG        52.5030   39.5450   55.4750 C.3   195  LEU195      0.0019
      7  CD1       52.7570   41.0040   55.0610 C.3   195  LEU195      0.0001
      8  CD2       51.1020   39.3820   56.1540 C.3   195  LEU195      0.0001
      9  N         57.5710   42.4930   54.9210 N.3   199  SER199     -0.1217
     10  CA        57.7530   43.0030   56.2770 C.3   199  SER199      0.1889
     11  C         59.1790   43.3140   56.6720 C.2   199  SER199      0.2288
     12  O         59.4340   44.3870   57.2640 O.2   199  SER199     -0.2866
     13  CB        57.2500   41.9860   57.2520 C.3   199  SER199      0.2089
     14  OG        55.9290   41.6850   56.9090 O.3   199  SER199     -0.2183
     15  N         59.2810   44.3610   63.4980 N.3   207  ALA207     -0.1231
     16  CA        57.9170   44.4590   63.1680 C.3   207  ALA207      0.1694
     17  C         57.4180   43.0440   62.9990 C.2   207  ALA207      0.2591
     18  O         56.2900   42.7050   63.4150 O.2   207  ALA207     -0.2718
     19  CB        57.7910   45.2120   61.8730 C.3   207  ALA207      0.0304
     20  N         58.2680   42.2240   62.3890 N.am  208  LEU208     -0.1980
     21  CA        58.0070   40.8030   62.1800 C.3   208  LEU208      0.1596
     22  C         58.0890   40.0430   63.4980 C.2   208  LEU208      0.2287
     23  O         57.2710   39.1100   63.7530 O.2   208  LEU208     -0.2864
     24  CB        59.0280   40.2250   61.1760 C.3   208  LEU208      0.0297
     25  CG        58.7560   38.9060   60.4470 C.3   208  LEU208      0.0022
     26  CD1       58.1090   39.2160   59.1110 C.3   208  LEU208      0.0001
     27  CD2       60.0550   38.1360   60.1920 C.3   208  LEU208      0.0001
     28  N         57.1060   41.1790   66.3770 N.3   210  ALA210     -0.1231
     29  CA        55.8000   41.3100   67.0030 C.3   210  ALA210      0.1694
     30  C         54.8600   40.2600   66.4910 C.2   210  ALA210      0.2592
     31  O         54.1820   39.6210   67.2910 O.2   210  ALA210     -0.2718
     32  CB        55.2170   42.6820   66.7910 C.3   210  ALA210      0.0304
     33  N         54.8010   40.0600   65.1890 N.am  211  TRP211     -0.1976
     34  CA        53.8470   39.0980   64.6320 C.3   211  TRP211      0.1640
     35  C         54.1030   37.7150   65.1910 C.2   211  TRP211      0.2290
     36  O         53.1940   37.0810   65.6700 O.2   211  TRP211     -0.2864
     37  CB        53.9690   39.0290   63.1120 C.3   211  TRP211      0.0576
     38  CG        52.6760   38.7070   62.3330 C.ar  211  TRP211      0.0006
     39  CD1       51.8800   39.6130   61.6270 C.ar  211  TRP211      0.0946
     40  CD2       52.0320   37.4160   62.1770 C.ar  211  TRP211      0.0152
     41  NE1       50.8090   38.9580   61.0500 N.ar  211  TRP211     -0.2442
     42  CE2       50.8660   37.6190   61.3610 C.ar  211  TRP211      0.0810
     43  CE3       52.3240   36.1240   62.6300 C.ar  211  TRP211      0.0012
     44  CZ2       49.9990   36.5780   60.9980 C.ar  211  TRP211      0.0191
     45  CZ3       51.4550   35.0800   62.2650 C.ar  211  TRP211      0.0001
     46  CH2       50.2960   35.3250   61.4590 C.ar  211  TRP211      0.0015
     47  N         46.7930   40.4750   63.6470 N.3   341  SER341     -0.1217
     48  CA        46.7660   41.9060   63.3320 C.3   341  SER341      0.1889
     49  C         45.9410   42.7480   64.2840 C.2   341  SER341      0.2288
     50  O         46.1920   43.9580   64.4690 O.2   341  SER341     -0.2866
     51  CB        46.2200   42.1330   61.9260 C.3   341  SER341      0.2089
     52  OG        45.1030   41.3160   61.7080 O.3   341  SER341     -0.2183
     53  N         48.1790   43.1440   67.7230 N.3   344  LEU344     -0.1245
     54  CA        49.0620   44.2540   67.4430 C.3   344  LEU344      0.1561
     55  C         48.3090   45.5930   67.4680 C.2   344  LEU344      0.2260
     56  O         48.7840   46.5630   68.0980 O.2   344  LEU344     -0.2867
     57  CB        49.7880   44.0670   66.1290 C.3   344  LEU344      0.0270
     58  CG        50.5230   42.7250   66.0240 C.3   344  LEU344      0.0019
     59  CD1       51.4660   42.7270   64.8550 C.3   344  LEU344      0.0001
     60  CD2       51.3780   42.3340   67.2100 C.3   344  LEU344      0.0001
     61  N         45.1760   40.1270   55.0740 N.3   451  SER451     -0.1217
     62  CA        46.5520   40.5430   55.1240 C.3   451  SER451      0.1889
     63  C         47.4680   39.9880   53.9850 C.2   451  SER451      0.2288
     64  O         48.3730   40.6960   53.4920 O.2   451  SER451     -0.2866
     65  CB        47.0870   40.1270   56.4890 C.3   451  SER451      0.2089
     66  OG        46.2750   40.7370   57.5160 O.3   451  SER451     -0.2183
     67  N         51.9330   48.2330   58.5350 N.3   478  LEU478     -0.1231
     68  CA        51.2230   46.9720   58.3180 C.3   478  LEU478      0.1693
     69  C         50.0120   46.8910   59.2040 C.2   478  LEU478      0.2591
     70  O         48.8900   46.6320   58.7740 O.2   478  LEU478     -0.2718
     71  CB        52.1180   45.8070   58.6940 C.3   478  LEU478      0.0284
     72  CG        53.0060   45.4000   57.5650 C.3   478  LEU478      0.0019
     73  CD1       54.2240   44.6110   58.0430 C.3   478  LEU478      0.0001
     74  CD2       52.2360   44.7250   56.4500 C.3   478  LEU478      0.0001
     75  N         50.2450   47.1470   60.4720 N.am  479  VAL479     -0.1980
     76  CA        49.1840   47.0010   61.4310 C.3   479  VAL479      0.1595
     77  C         47.9320   47.8430   61.1020 C.2   479  VAL479      0.2287
     78  O         46.8160   47.5050   61.5060 O.2   479  VAL479     -0.2864
     79  CB        49.7600   47.1580   62.8340 C.3   479  VAL479      0.0276
     80  CG1       50.4070   48.5300   62.9870 C.3   479  VAL479      0.0022
     81  CG2       48.6940   46.8350   63.8620 C.3   479  VAL479      0.0022
@<TRIPOS>BOND
     1     1     2    1
     2    64    63    2
     3     2     5    1
     4     2     3    1
     5    63    62    1
     6     5     6    1
     7     3     4    2
     8     9    10    1
     9     7     6    1
    10    61    62    1
    11    62    65    1
    12     6     8    1
    13    10    11    1
    14    10    13    1
    15    74    72    1
    16    65    66    1
    17    11    12    2
    18    14    13    1
    19    72    73    1
    20    72    71    1
    21    68    67    1
    22    68    71    1
    23    68    69    1
    24    70    69    2
    25    26    25    1
    26    69    75   am
    27    27    25    1
    28    25    24    1
    29    75    76    1
    30    44    42   ar
    31    44    46   ar
    32    41    42   ar
    33    41    39   ar
    34    77    76    1
    35    77    78    2
    36    24    21    1
    37    42    40   ar
    38    76    79    1
    39    46    45   ar
    40    39    38   ar
    41    52    51    1
    42    19    16    1
    43    51    48    1
    44    40    38   ar
    45    40    43   ar
    46    21    20    1
    47    21    22    1
    48    45    43   ar
    49    38    37    1
    50    20    17   am
    51    79    80    1
    52    79    81    1
    53    17    16    1
    54    17    18    2
    55    37    34    1
    56    16    15    1
    57    48    47    1
    58    48    49    1
    59    22    23    2
    60    49    50    2
    61    34    33    1
    62    34    35    1
    63    59    58    1
    64    33    30   am
    65    35    36    2
    66    58    57    1
    67    58    60    1
    68    57    54    1
    69    28    29    1
    70    30    29    1
    71    30    31    2
    72    32    29    1
    73    54    55    1
    74    54    53    1
    75    55    56    2
