@<TRIPOS>MOLECULE
tmp/5otbB00.pdb
 146 135 0 0 0
SMALL
GASTEIGER

@<TRIPOS>ATOM
      1  N          8.9320   12.9580   12.4820 N.3   384  LEU384     -0.1231
      2  CA         9.8830   12.7570   13.5670 C.3   384  LEU384      0.1693
      3  C         10.9750   13.8240   13.6150 C.2   384  LEU384      0.2591
      4  O         11.4220   14.2600   14.7060 O.2   384  LEU384     -0.2718
      5  CB        10.4060   11.3300   13.6790 C.3   384  LEU384      0.0284
      6  CG        11.1700   10.6750   12.5470 C.3   384  LEU384      0.0019
      7  CD1       12.6970   10.8120   12.6580 C.3   384  LEU384      0.0001
      8  CD2       10.7760    9.2070   12.5440 C.3   384  LEU384      0.0001
      9  N         11.3510   14.3550   12.4650 N.am  385  ILE385     -0.1980
     10  CA        12.3460   15.4270   12.5660 C.3   385  ILE385      0.1595
     11  C         11.8060   16.6210   13.2830 C.2   385  ILE385      0.2287
     12  O         12.4760   17.1060   14.2250 O.2   385  ILE385     -0.2864
     13  CB        12.9500   15.8490   11.2390 C.3   385  ILE385      0.0276
     14  CG1       13.7890   14.7170   10.6310 C.3   385  ILE385      0.0022
     15  CG2       13.8500   17.0630   11.4360 C.3   385  ILE385      0.0022
     16  CD1       14.2020   13.6990   11.6690 C.3   385  ILE385      0.0001
     17  N         11.1990   16.0040   17.1440 N.3   388  ASN388     -0.1225
     18  CA        12.4210   16.0980   17.8900 C.3   388  ASN388      0.1785
     19  C         13.0430   17.5170   17.8570 C.2   388  ASN388      0.2597
     20  O         13.7170   17.8810   18.8310 O.2   388  ASN388     -0.2718
     21  CB        13.4720   15.1400   17.3730 C.3   388  ASN388      0.1169
     22  CG        13.1470   13.6630   17.5910 C.2   388  ASN388      0.2627
     23  OD1       12.5570   13.2030   18.5950 O.2   388  ASN388     -0.2716
     24  ND2       13.5920   12.8950   16.6360 N.am  388  ASN388     -0.0877
     25  N         12.8970   18.3330   16.7930 N.am  389  CYS389     -0.1970
     26  CA        13.4930   19.7370   16.8660 C.3   389  CYS389      0.1712
     27  C         12.7440   20.6790   17.8020 C.2   389  CYS389      0.2296
     28  O         13.3400   21.5150   18.4240 O.2   389  CYS389     -0.2864
     29  CB        13.5770   20.4400   15.5180 C.3   389  CYS389      0.0983
     30  SG        14.8750   19.8250   14.4930 S.3   389  CYS389     -0.0798
     31  N         17.7460   18.0740   25.9190 N.3   400  PHE400     -0.1241
     32  CA        17.4670   17.2140   24.7810 C.3   400  PHE400      0.1605
     33  C         18.2350   15.9130   24.9010 C.2   400  PHE400      0.2264
     34  O         17.6190   14.8380   24.8040 O.2   400  PHE400     -0.2867
     35  CB        17.8550   17.9250   23.4930 C.3   400  PHE400      0.0534
     36  CG        17.3980   17.2290   22.2410 C.ar  400  PHE400     -0.0203
     37  CD1       16.1340   16.6350   22.1610 C.ar  400  PHE400     -0.0042
     38  CD2       18.2220   17.2030   21.1150 C.ar  400  PHE400     -0.0042
     39  CE1       15.7070   16.0210   20.9790 C.ar  400  PHE400     -0.0003
     40  CE2       17.8080   16.5840   19.9390 C.ar  400  PHE400     -0.0003
     41  CZ        16.5520   15.9970   19.8750 C.ar  400  PHE400     -0.0000
     42  N         17.2180   11.9810   25.3390 N.3   404  LEU404     -0.1245
     43  CA        17.5120   10.8500   24.5080 C.3   404  LEU404      0.1561
     44  C         18.1110    9.7470   25.3220 C.2   404  LEU404      0.2260
     45  O         18.0930    8.5500   24.9390 O.2   404  LEU404     -0.2867
     46  CB        18.3390   11.2470   23.3030 C.3   404  LEU404      0.0270
     47  CG        17.8110   12.3380   22.3870 C.3   404  LEU404      0.0019
     48  CD1       19.0000   12.8980   21.6580 C.3   404  LEU404      0.0001
     49  CD2       16.8600   11.7940   21.3550 C.3   404  LEU404      0.0001
     50  N         15.2130    7.6980   26.5150 N.3   407  ARG407     -0.1231
     51  CA        14.7670    6.8580   25.3570 C.3   407  ARG407      0.1694
     52  C         15.7590    5.7300   25.0050 C.2   407  ARG407      0.2592
     53  O         15.4230    4.5530   25.0090 O.2   407  ARG407     -0.2718
     54  CB        14.4730    7.7330   24.0990 C.3   407  ARG407      0.0321
     55  CG        13.0100    8.1520   23.9220 C.3   407  ARG407      0.0489
     56  CD        12.6770    9.4760   23.1810 C.3   407  ARG407      0.2205
     57  NE        13.2450    9.5900   21.8240 N.pl3 407  ARG407     -0.0865
     58  CZ        13.0880   10.6350   20.9950 C.cat 407  ARG407      0.5346
     59  NH1       12.3570   11.6950   21.3480 N.pl3 407  ARG407      0.1354
     60  NH2       13.6760   10.6280   19.7900 N.pl3 407  ARG407      0.1354
     61  N         16.9960    6.0610   24.6840 N.am  408  TYR408     -0.1976
     62  CA        17.8700    4.9620   24.2470 C.3   408  TYR408      0.1639
     63  C         18.2750    4.0470   25.3940 C.2   408  TYR408      0.2290
     64  O         18.8440    3.0030   25.1810 O.2   408  TYR408     -0.2864
     65  CB        19.0660    5.3910   23.3860 C.3   408  TYR408      0.0560
     66  CG        18.7410    5.5700   21.9080 C.ar  408  TYR408     -0.0198
     67  CD1       17.9820    6.6540   21.4880 C.ar  408  TYR408     -0.0009
     68  CD2       19.2000    4.6290   20.9050 C.ar  408  TYR408     -0.0009
     69  CE1       17.6830    6.8110   20.1390 C.ar  408  TYR408      0.0417
     70  CE2       18.8920    4.7740   19.5510 C.ar  408  TYR408      0.0417
     71  CZ        18.1470    5.8740   19.1700 C.ar  408  TYR408      0.1957
     72  OH        17.7800    6.0840   17.8280 O.3   408  TYR408     -0.2866
     73  N         15.4960    1.9330   25.2550 N.3   411  LYS411     -0.1245
     74  CA        15.5960    1.0860   24.0320 C.3   411  LYS411      0.1561
     75  C         16.5060   -0.2060   24.1680 C.2   411  LYS411      0.2260
     76  O         16.0210   -1.3510   24.0380 O.2   411  LYS411     -0.2867
     77  CB        15.8500    1.9220   22.7920 C.3   411  LYS411      0.0271
     78  CG        14.5500    2.4000   22.2680 C.3   411  LYS411      0.0035
     79  CD        14.7880    3.6120   21.3970 C.3   411  LYS411      0.0206
     80  CE        13.4430    4.2600   21.1560 C.3   411  LYS411      0.1093
     81  NZ        13.5850    5.1470   19.9870 N.3   411  LYS411     -0.1314
     82  N         23.4700   12.0880   19.2300 N.3   427  LEU427     -0.1245
     83  CA        22.1240   12.2160   18.8220 C.3   427  LEU427      0.1561
     84  C         21.5250   13.5970   19.2370 C.2   427  LEU427      0.2260
     85  O         20.9340   14.2600   18.4340 O.2   427  LEU427     -0.2867
     86  CB        21.3530   11.0210   19.3560 C.3   427  LEU427      0.0270
     87  CG        21.5280    9.7220   18.5460 C.3   427  LEU427      0.0019
     88  CD1       20.7910    8.6000   19.3060 C.3   427  LEU427      0.0001
     89  CD2       21.0610    9.8640   17.0830 C.3   427  LEU427      0.0001
     90  N         22.4190   16.7530   17.1850 N.3   430  VAL430     -0.1231
     91  CA        21.9610   16.7830   15.8270 C.3   430  VAL430      0.1692
     92  C         21.0090   17.9360   15.7050 C.2   430  VAL430      0.2592
     93  O         20.9810   18.6520   14.6810 O.2   430  VAL430     -0.2718
     94  CB        21.2570   15.4850   15.4080 C.3   430  VAL430      0.0266
     95  CG1       20.6410   15.6990   14.0070 C.3   430  VAL430      0.0020
     96  CG2       22.2460   14.2850   15.3880 C.3   430  VAL430      0.0020
     97  N         20.2060   18.1040   16.7430 N.am  431  GLY431     -0.1957
     98  CA        19.1960   19.1450   16.7200 C.3   431  GLY431      0.1869
     99  C         19.8990   20.4980   16.7320 C.2   431  GLY431      0.2309
    100  O         19.4010   21.4420   16.1230 O.2   431  GLY431     -0.2863
    101  N         18.5300   22.0300   13.2890 N.3   435  CYS435     -0.1235
    102  CA        17.1770   22.4440   13.5090 C.3   435  CYS435      0.1677
    103  C         17.0130   23.8830   13.0990 C.2   435  CYS435      0.2270
    104  O         15.8890   24.3450   12.9000 O.2   435  CYS435     -0.2867
    105  CB        16.7530   22.1830   14.9430 C.3   435  CYS435      0.0956
    106  SG        16.5210   20.4410   15.4250 S.3   435  CYS435     -0.0801
    107  N         19.4340   16.1140    9.0270 N.3   446  THR446     -0.1218
    108  CA        19.0850   15.3070   10.1640 C.3   446  THR446      0.1862
    109  C         19.3030   13.8330    9.8920 C.2   446  THR446      0.2287
    110  O         19.8440   13.1520   10.7810 O.2   446  THR446     -0.2866
    111  CB        17.6830   15.5940   10.6190 C.3   446  THR446      0.1770
    112  OG1       17.7190   16.9260   11.1090 O.3   446  THR446     -0.2211
    113  CG2       17.2930   14.6980   11.7230 C.3   446  THR446      0.0375
    114  N         22.0730   10.9560   11.5290 N.3   450  LEU450     -0.1245
    115  CA        21.5000    9.7540   12.1430 C.3   450  LEU450      0.1561
    116  C         22.1650    8.5150   11.5550 C.2   450  LEU450      0.2260
    117  O         22.4870    7.6030   12.2860 O.2   450  LEU450     -0.2867
    118  CB        19.9400    9.6840   12.0260 C.3   450  LEU450      0.0270
    119  CG        19.1750   10.8830   12.6380 C.3   450  LEU450      0.0019
    120  CD1       17.6980   10.6420   12.9610 C.3   450  LEU450      0.0001
    121  CD2       19.8130   11.3040   13.9370 C.3   450  LEU450      0.0001
    122  N         24.2140    6.0690   14.4970 N.3   454  LEU454     -0.1245
    123  CA        23.6890    4.7120   14.6300 C.3   454  LEU454      0.1561
    124  C         24.6900    3.7670   14.0570 C.2   454  LEU454      0.2260
    125  O         25.0190    2.7410   14.6600 O.2   454  LEU454     -0.2867
    126  CB        22.3780    4.6050   13.8430 C.3   454  LEU454      0.0270
    127  CG        21.1740    5.3400   14.5140 C.3   454  LEU454      0.0019
    128  CD1       19.8700    5.0110   13.8190 C.3   454  LEU454      0.0001
    129  CD2       21.0110    4.9720   15.9950 C.3   454  LEU454      0.0001
    130  N         17.6180    3.5610   10.3600 N.3   482  ARG482     -0.1245
    131  CA        17.0890    4.6930   11.0680 C.3   482  ARG482      0.1563
    132  C         15.7370    4.3800   11.7410 C.2   482  ARG482      0.2260
    133  O         15.6290    4.5400   12.9280 O.2   482  ARG482     -0.2867
    134  CB        17.0310    5.9360   10.1860 C.3   482  ARG482      0.0307
    135  CG        17.2220    7.1690   11.0170 C.3   482  ARG482      0.0489
    136  CD        15.9370    7.5820   11.6850 C.3   482  ARG482      0.2205
    137  NE        14.9420    7.8650   10.6720 N.pl3 482  ARG482     -0.0865
    138  CZ        13.6580    7.8060   10.9140 C.cat 482  ARG482      0.5346
    139  NH1       13.2500    7.4890   12.1230 N.pl3 482  ARG482      0.1354
    140  NH2       12.7990    8.0380    9.9570 N.pl3 482  ARG482      0.1354
    141  N         14.3880    3.5370   15.6870 N.3   486  SER486     -0.1217
    142  CA        13.3160    4.4950   16.0060 C.3   486  SER486      0.1889
    143  C         12.1260    3.7690   16.4650 C.2   486  SER486      0.2288
    144  O         11.4820    4.2370   17.3430 O.2   486  SER486     -0.2866
    145  CB        12.9640    5.4110   14.8350 C.3   486  SER486      0.2089
    146  OG        14.0420    6.3190   14.6520 O.3   486  SER486     -0.2183
@<TRIPOS>BOND
     1   107   108    1
     2   109   108    1
     3   109   110    2
     4   140   138    1
     5   108   111    1
     6   134   135    1
     7   134   131    1
     8   130   131    1
     9   111   112    1
    10   111   113    1
    11    14    13    1
    12    14    16    1
    13   137   138    2
    14   137   136    1
    15   138   139    1
    16   135   136    1
    17   131   132    1
    18    13    15    1
    19    13    10    1
    20   114   115    1
    21   116   115    1
    22   116   117    2
    23   132   133    2
    24   118   115    1
    25   118   119    1
    26     9    10    1
    27     9     3   am
    28     1     2    1
    29     8     6    1
    30     6     7    1
    31     6     5    1
    32    10    11    1
    33   119   120    1
    34   119   121    1
    35   104   103    2
    36   103   102    1
    37    11    12    2
    38   101   102    1
    39   102   105    1
    40     2     3    1
    41     2     5    1
    42     3     4    2
    43   128   127    1
    44   126   127    1
    45   126   123    1
    46    95    94    1
    47   124   123    1
    48   124   125    2
    49    30   106    1
    50    30    29    1
    51   122   123    1
    52   127   129    1
    53   146   145    1
    54    93    92    2
    55   145   142    1
    56   105   106    1
    57    96    94    1
    58    94    91    1
    59    29    26    1
    60   141   142    1
    61    92    91    1
    62    92    97   am
    63    91    90    1
    64   142   143    1
    65   100    99    2
    66   143   144    2
    67    24    22   am
    68    98    99    1
    69    98    97    1
    70    25    26    1
    71    25    19   am
    72    26    27    1
    73    89    87    1
    74    17    18    1
    75    21    22    1
    76    21    18    1
    77    22    23    2
    78    27    28    2
    79    72    71    1
    80    19    18    1
    81    19    20    2
    82    85    84    2
    83    87    88    1
    84    87    86    1
    85    83    82    1
    86    83    84    1
    87    83    86    1
    88    71    70   ar
    89    71    69   ar
    90    70    68   ar
    91    60    58    1
    92    41    40   ar
    93    41    39   ar
    94    40    38   ar
    95    81    80    1
    96    69    67   ar
    97    68    66   ar
    98    39    37   ar
    99    58    59    1
   100    58    57    2
   101    38    36   ar
   102    80    79    1
   103    49    47    1
   104    79    78    1
   105    67    66   ar
   106    48    47    1
   107    57    56    1
   108    66    65    1
   109    37    36   ar
   110    36    35    1
   111    78    77    1
   112    47    46    1
   113    77    74    1
   114    56    55    1
   115    46    43    1
   116    65    62    1
   117    35    32    1
   118    55    54    1
   119    74    75    1
   120    74    73    1
   121    76    75    2
   122    54    51    1
   123    62    61    1
   124    62    63    1
   125    43    44    1
   126    43    42    1
   127    61    52   am
   128    32    33    1
   129    32    31    1
   130    34    33    2
   131    45    44    2
   132    52    53    2
   133    52    51    1
   134    64    63    2
   135    51    50    1
