@<TRIPOS>MOLECULE
tmp/5otbD00.pdb
 124 116 0 0 0
SMALL
GASTEIGER

@<TRIPOS>ATOM
      1  N        106.7590   63.3140   49.3250 N.3   384  LEU384     -0.1231
      2  CA       106.3330   63.3710   50.7270 C.3   384  LEU384      0.1693
      3  C        105.6940   62.0420   51.1810 C.2   384  LEU384      0.2591
      4  O        106.1100   61.4290   52.1480 O.2   384  LEU384     -0.2718
      5  CB       105.3590   64.5450   50.9190 C.3   384  LEU384      0.0284
      6  CG       104.8900   64.9620   52.3070 C.3   384  LEU384      0.0019
      7  CD1      105.3920   66.3830   52.5160 C.3   384  LEU384      0.0001
      8  CD2      103.3680   64.8460   52.5180 C.3   384  LEU384      0.0001
      9  N        104.6760   61.6060   50.4640 N.am  385  ILE385     -0.1980
     10  CA       103.9160   60.3970   50.8040 C.3   385  ILE385      0.1595
     11  C        104.8440   59.2010   50.8240 C.2   385  ILE385      0.2287
     12  O        104.9320   58.4880   51.8680 O.2   385  ILE385     -0.2864
     13  CB       102.8240   60.1250   49.7500 C.3   385  ILE385      0.0276
     14  CG1      101.9760   61.3690   49.5100 C.3   385  ILE385      0.0022
     15  CG2      102.0020   58.9010   50.1110 C.3   385  ILE385      0.0022
     16  CD1      100.9560   61.2010   48.3970 C.3   385  ILE385      0.0001
     17  N        106.8550   59.0970   53.8970 N.3   388  ASN388     -0.1225
     18  CA       106.0860   58.9950   55.0900 C.3   388  ASN388      0.1785
     19  C        105.6470   57.5530   55.2290 C.2   388  ASN388      0.2597
     20  O        105.6370   57.0000   56.3540 O.2   388  ASN388     -0.2718
     21  CB       104.9120   59.9900   55.0210 C.3   388  ASN388      0.1169
     22  CG       105.3010   61.3760   55.5140 C.2   388  ASN388      0.2627
     23  OD1      106.4310   61.6140   55.9620 O.2   388  ASN388     -0.2716
     24  ND2      104.3700   62.3070   55.4180 N.am  388  ASN388     -0.0877
     25  N        105.3830   56.9000   54.0920 N.am  389  CYS389     -0.1970
     26  CA       105.0260   55.4770   54.1200 C.3   389  CYS389      0.1712
     27  C        106.2690   54.5810   54.3790 C.2   389  CYS389      0.2296
     28  O        106.1550   53.3530   54.6250 O.2   389  CYS389     -0.2864
     29  CB       104.3090   55.0470   52.8330 C.3   389  CYS389      0.0983
     30  SG       102.5840   55.5710   52.6310 S.3   389  CYS389     -0.0798
     31  N        105.3380   55.8600   64.3980 N.3   400  PHE400     -0.1241
     32  CA       105.1360   56.8280   63.3620 C.3   400  PHE400      0.1605
     33  C        104.4640   58.0800   63.9500 C.2   400  PHE400      0.2264
     34  O        104.7740   59.2670   63.5670 O.2   400  PHE400     -0.2867
     35  CB       104.3070   56.2420   62.2300 C.3   400  PHE400      0.0534
     36  CG       104.0180   57.2380   61.0860 C.ar  400  PHE400     -0.0203
     37  CD1      105.0540   58.0500   60.5190 C.ar  400  PHE400     -0.0042
     38  CD2      102.7100   57.3390   60.5470 C.ar  400  PHE400     -0.0042
     39  CE1      104.7770   58.9730   59.4930 C.ar  400  PHE400     -0.0003
     40  CE2      102.4580   58.2500   59.4620 C.ar  400  PHE400     -0.0003
     41  CZ       103.5120   59.0440   58.9210 C.ar  400  PHE400     -0.0000
     42  N        105.7000   62.1100   64.4910 N.3   404  LEU404     -0.1245
     43  CA       104.9650   63.3370   64.1590 C.3   404  LEU404      0.1561
     44  C        104.7420   64.2900   65.3380 C.2   404  LEU404      0.2260
     45  O        104.9100   65.4970   65.2080 O.2   404  LEU404     -0.2867
     46  CB       103.6840   63.0610   63.3580 C.3   404  LEU404      0.0270
     47  CG       103.8190   62.1960   62.0800 C.3   404  LEU404      0.0019
     48  CD1      102.5840   61.3270   61.8680 C.3   404  LEU404      0.0001
     49  CD2      104.0600   63.0580   60.8520 C.3   404  LEU404      0.0001
     50  N        108.0260   66.1670   65.4340 N.3   407  ARG407     -0.1231
     51  CA       108.1120   67.0750   64.3050 C.3   407  ARG407      0.1694
     52  C        107.0620   68.1570   64.3520 C.2   407  ARG407      0.2592
     53  O        107.3930   69.3230   64.1020 O.2   407  ARG407     -0.2718
     54  CB       107.9850   66.2700   62.9860 C.3   407  ARG407      0.0321
     55  CG       107.7350   67.1300   61.7620 C.3   407  ARG407      0.0489
     56  CD       108.1890   66.4360   60.5030 C.3   407  ARG407      0.2205
     57  NE       107.1690   65.5340   60.0000 N.pl3 407  ARG407     -0.0865
     58  CZ       107.4090   64.3050   59.4940 C.cat 407  ARG407      0.5346
     59  NH1      108.6410   63.8220   59.4900 N.pl3 407  ARG407      0.1354
     60  NH2      106.4110   63.5760   59.0420 N.pl3 407  ARG407      0.1354
     61  N        105.7940   67.7990   64.6220 N.am  408  TYR408     -0.1976
     62  CA       104.7690   68.8480   64.6820 C.3   408  TYR408      0.1639
     63  C        104.9400   69.7650   65.8810 C.2   408  TYR408      0.2290
     64  O        104.8780   70.9790   65.7220 O.2   408  TYR408     -0.2864
     65  CB       103.3370   68.3290   64.5220 C.3   408  TYR408      0.0560
     66  CG       102.8240   68.5530   63.1250 C.ar  408  TYR408     -0.0198
     67  CD1      101.7670   69.4480   62.8750 C.ar  408  TYR408     -0.0009
     68  CD2      103.4300   67.8890   62.0100 C.ar  408  TYR408     -0.0009
     69  CE1      101.3150   69.6700   61.5670 C.ar  408  TYR408      0.0417
     70  CE2      103.0020   68.1120   60.7030 C.ar  408  TYR408      0.0417
     71  CZ       101.9330   69.0080   60.4870 C.ar  408  TYR408      0.1957
     72  OH       101.4670   69.2570   59.2080 O.3   408  TYR408     -0.2866
     73  N         97.1340   62.2080   62.1940 N.3   427  LEU427     -0.1245
     74  CA        98.1510   62.2060   61.1390 C.3   427  LEU427      0.1561
     75  C         98.8320   60.8200   60.9780 C.2   427  LEU427      0.2260
     76  O         99.0380   60.3590   59.8770 O.2   427  LEU427     -0.2867
     77  CB        99.1840   63.2990   61.4390 C.3   427  LEU427      0.0270
     78  CG        98.8210   64.7230   61.1710 C.3   427  LEU427      0.0019
     79  CD1      100.1060   65.5370   61.2520 C.3   427  LEU427      0.0001
     80  CD2       98.3150   64.8360   59.7630 C.3   427  LEU427      0.0001
     81  N         96.8250   58.2320   59.1770 N.3   430  VAL430     -0.1231
     82  CA        96.8120   58.3030   57.7240 C.3   430  VAL430      0.1692
     83  C         97.6300   57.1630   57.1380 C.2   430  VAL430      0.2592
     84  O         97.1200   56.4270   56.2770 O.2   430  VAL430     -0.2718
     85  CB        97.1410   59.6970   57.1340 C.3   430  VAL430      0.0266
     86  CG1       96.9530   59.7010   55.6390 C.3   430  VAL430      0.0020
     87  CG2       96.1870   60.7450   57.6850 C.3   430  VAL430      0.0020
     88  N         98.8530   56.9700   57.6470 N.am  431  GLY431     -0.1957
     89  CA        99.6960   55.8380   57.2360 C.3   431  GLY431      0.1869
     90  C         99.0480   54.4440   57.1830 C.2   431  GLY431      0.2309
     91  O         99.1880   53.7030   56.1900 O.2   431  GLY431     -0.2863
     92  N         96.2850   54.3830   54.3720 N.3   434  CYS434     -0.1221
     93  CA        96.6000   54.7770   52.9640 C.3   434  CYS434      0.1808
     94  C         97.8120   54.0460   52.3720 C.2   434  CYS434      0.2601
     95  O         97.8080   53.6490   51.1800 O.2   434  CYS434     -0.2717
     96  CB        96.8070   56.2920   52.7940 C.3   434  CYS434      0.0970
     97  SG        95.3470   57.3480   53.1460 S.3   434  CYS434     -0.0800
     98  N         98.8210   53.8630   53.2160 N.am  435  CYS435     -0.1970
     99  CA       100.0830   53.3480   52.7920 C.3   435  CYS435      0.1712
    100  C        100.0420   51.9400   52.1690 C.2   435  CYS435      0.2296
    101  O        101.0000   51.5580   51.5570 O.2   435  CYS435     -0.2864
    102  CB       101.0600   53.3570   53.9470 C.3   435  CYS435      0.0983
    103  SG       101.7370   54.9760   54.3470 S.3   435  CYS435     -0.0798
    104  N         95.9940   59.8750   50.9940 N.3   446  THR446     -0.1218
    105  CA        96.8450   60.7440   51.7950 C.3   446  THR446      0.1862
    106  C         96.4120   62.1360   51.7990 C.2   446  THR446      0.2287
    107  O         96.2330   62.7230   52.8430 O.2   446  THR446     -0.2866
    108  CB        98.3720   60.7450   51.3980 C.3   446  THR446      0.1770
    109  OG1       98.9030   59.4060   51.3550 O.3   446  THR446     -0.2211
    110  CG2       99.2170   61.5400   52.4240 C.3   446  THR446      0.0375
    111  N         94.8720   64.6290   55.1610 N.3   450  LEU450     -0.1245
    112  CA        95.6580   65.8230   55.5480 C.3   450  LEU450      0.1561
    113  C         94.7330   67.0070   55.5100 C.2   450  LEU450      0.2260
    114  O         94.6170   67.7110   56.4590 O.2   450  LEU450     -0.2867
    115  CB        96.9470   66.0300   54.7100 C.3   450  LEU450      0.0270
    116  CG        97.9670   64.8810   54.9490 C.3   450  LEU450      0.0019
    117  CD1       99.4210   65.1360   54.4660 C.3   450  LEU450      0.0001
    118  CD2       98.0040   64.3360   56.3890 C.3   450  LEU450      0.0001
    119  N        103.5900   71.5730   55.9400 N.3   486  SER486     -0.1217
    120  CA       104.7770   70.7890   55.5770 C.3   486  SER486      0.1889
    121  C        105.9880   71.6130   55.1820 C.2   486  SER486      0.2288
    122  O        106.9360   71.0510   54.6830 O.2   486  SER486     -0.2866
    123  CB       104.4680   69.8520   54.4240 C.3   486  SER486      0.2089
    124  OG       103.9440   68.6240   54.9080 O.3   486  SER486     -0.2183
@<TRIPOS>BOND
     1    16    14    1
     2     1     2    1
     3    14    13    1
     4    13    15    1
     5    13    10    1
     6     9    10    1
     7     9     3   am
     8     2     5    1
     9     2     3    1
    10    10    11    1
    11    11    12    2
    12     5     6    1
    13   104   105    1
    14    95    94    2
    15     3     4    2
    16   109   108    1
    17   108   105    1
    18   108   110    1
    19   101   100    2
    20   105   106    1
    21   106   107    2
    22   100    99    1
    23     6     7    1
    24     6     8    1
    25    94    93    1
    26    94    98   am
    27    30    29    1
    28    30   103    1
    29    99    98    1
    30    99   102    1
    31    96    93    1
    32    96    97    1
    33    29    26    1
    34    93    92    1
    35    17    18    1
    36   102   103    1
    37    25    26    1
    38    25    19   am
    39    26    27    1
    40    27    28    2
    41   123   124    1
    42   123   120    1
    43   117   116    1
    44   122   121    2
    45   115   116    1
    46   115   112    1
    47   116   118    1
    48    21    18    1
    49    21    22    1
    50    18    19    1
    51   111   112    1
    52   121   120    1
    53    19    20    2
    54    24    22   am
    55   113   112    1
    56   113   114    2
    57    22    23    2
    58   120   119    1
    59    86    85    1
    60    91    90    2
    61    84    83    2
    62    85    87    1
    63    85    82    1
    64    83    88   am
    65    83    82    1
    66    90    89    1
    67    89    88    1
    68    82    81    1
    69    41    40   ar
    70    41    39   ar
    71    60    58    1
    72    72    71    1
    73    40    38   ar
    74    59    58    1
    75    39    37   ar
    76    58    57    2
    77    80    78    1
    78    76    75    2
    79    57    56    1
    80    71    70   ar
    81    71    69   ar
    82    56    55    1
    83    37    36   ar
    84    38    36   ar
    85    70    68   ar
    86    49    47    1
    87    75    74    1
    88    36    35    1
    89    74    77    1
    90    74    73    1
    91    78    79    1
    92    78    77    1
    93    69    67   ar
    94    55    54    1
    95    48    47    1
    96    68    66   ar
    97    47    46    1
    98    35    32    1
    99    67    66   ar
   100    54    51    1
   101    66    65    1
   102    46    43    1
   103    32    33    1
   104    32    31    1
   105    34    33    2
   106    53    52    2
   107    43    42    1
   108    43    44    1
   109    51    52    1
   110    51    50    1
   111    52    61   am
   112    65    62    1
   113    61    62    1
   114    62    63    1
   115    45    44    2
   116    64    63    2
