@<TRIPOS>MOLECULE
tmp/5otbC02.pdb
 118 110 0 0 0
SMALL
GASTEIGER

@<TRIPOS>ATOM
      1  N        108.1320   23.1960   96.5810 N.3   384  LEU384     -0.1231
      2  CA       107.1200   23.5680   95.5940 C.3   384  LEU384      0.1693
      3  C        107.1370   25.0790   95.3310 C.2   384  LEU384      0.2591
      4  O        107.3270   25.5020   94.1930 O.2   384  LEU384     -0.2718
      5  CB       105.7040   23.0340   95.9270 C.3   384  LEU384      0.0284
      6  CG       104.7330   23.1670   94.7240 C.3   384  LEU384      0.0019
      7  CD1      105.1380   22.2730   93.5360 C.3   384  LEU384      0.0001
      8  CD2      103.2330   23.0740   95.0760 C.3   384  LEU384      0.0001
      9  N        106.9760   25.8690   96.3850 N.am  385  ILE385     -0.1980
     10  CA       107.0870   27.3130   96.2850 C.3   385  ILE385      0.1595
     11  C        108.3230   27.7460   95.4770 C.2   385  ILE385      0.2287
     12  O        108.2190   28.6670   94.6510 O.2   385  ILE385     -0.2864
     13  CB       107.1010   27.9510   97.6780 C.3   385  ILE385      0.0276
     14  CG1      105.6730   28.1000   98.2620 C.3   385  ILE385      0.0022
     15  CG2      107.7490   29.3330   97.6250 C.3   385  ILE385      0.0022
     16  CD1      104.7460   26.8840   98.2040 C.3   385  ILE385      0.0001
     17  N        108.4670   27.0480   91.3440 N.3   388  ASN388     -0.1225
     18  CA       107.4790   27.8890   90.7540 C.3   388  ASN388      0.1785
     19  C        107.8250   29.3960   90.8450 C.2   388  ASN388      0.2597
     20  O        107.6990   30.1300   89.8570 O.2   388  ASN388     -0.2718
     21  CB       106.1710   27.6360   91.4810 C.3   388  ASN388      0.1169
     22  CG       105.5300   26.2530   91.1960 C.2   388  ASN388      0.2627
     23  OD1      105.7120   25.6150   90.1470 O.2   388  ASN388     -0.2716
     24  ND2      104.6950   25.8340   92.1380 N.am  388  ASN388     -0.0877
     25  N        108.2540   29.8850   92.0130 N.am  389  CYS389     -0.1970
     26  CA       108.6650   31.3050   92.0990 C.3   389  CYS389      0.1712
     27  C        109.7290   31.6560   91.1250 C.2   389  CYS389      0.2296
     28  O        109.7470   32.7740   90.6860 O.2   389  CYS389     -0.2864
     29  CB       109.1510   31.7160   93.4730 C.3   389  CYS389      0.0983
     30  SG       107.7710   32.2240   94.4900 S.3   389  CYS389     -0.0798
     31  N        103.9980   32.8390   83.1200 N.3   400  PHE400     -0.1241
     32  CA       103.7180   31.9060   84.1730 C.3   400  PHE400      0.1605
     33  C        102.3280   31.3180   84.0020 C.2   400  PHE400      0.2264
     34  O        102.1560   30.0960   84.0550 O.2   400  PHE400     -0.2867
     35  CB       103.8670   32.5780   85.5200 C.3   400  PHE400      0.0534
     36  CG       103.8400   31.6250   86.6940 C.ar  400  PHE400     -0.0203
     37  CD1      104.3440   30.3190   86.5930 C.ar  400  PHE400     -0.0042
     38  CD2      103.3800   32.0630   87.9560 C.ar  400  PHE400     -0.0042
     39  CE1      104.3530   29.4770   87.7030 C.ar  400  PHE400     -0.0003
     40  CE2      103.3960   31.2170   89.0490 C.ar  400  PHE400     -0.0003
     41  CZ       103.8680   29.9310   88.9200 C.ar  400  PHE400     -0.0000
     42  N        101.0310   27.3880   83.8400 N.3   404  LEU404     -0.1245
     43  CA       100.0630   26.6480   84.6620 C.3   404  LEU404      0.1561
     44  C         98.8740   26.2210   83.8260 C.2   404  LEU404      0.2260
     45  O         98.0940   25.3480   84.2520 O.2   404  LEU404     -0.2867
     46  CB        99.5960   27.4870   85.8540 C.3   404  LEU404      0.0270
     47  CG       100.7490   27.9710   86.7350 C.3   404  LEU404      0.0019
     48  CD1      100.2390   29.0540   87.6550 C.3   404  LEU404      0.0001
     49  CD2      101.3640   26.8370   87.5580 C.3   404  LEU404      0.0001
     50  N         99.8310   22.9530   82.4300 N.3   407  ARG407     -0.1231
     51  CA        99.7750   21.9770   83.5170 C.3   407  ARG407      0.1694
     52  C         98.4050   21.6080   83.9880 C.2   407  ARG407      0.2592
     53  O         98.1040   20.4420   84.1830 O.2   407  ARG407     -0.2718
     54  CB       100.5940   22.4510   84.7270 C.3   407  ARG407      0.0321
     55  CG       101.8580   21.6250   84.9210 C.3   407  ARG407      0.0489
     56  CD       103.1320   22.4800   85.0610 C.3   407  ARG407      0.2205
     57  NE       103.2180   23.3340   86.2640 N.pl3 407  ARG407     -0.0865
     58  CZ       104.3360   23.9990   86.6460 C.cat 407  ARG407      0.5346
     59  NH1      105.4770   23.9080   85.9470 N.pl3 407  ARG407      0.1354
     60  NH2      104.3320   24.7620   87.7470 N.pl3 407  ARG407      0.1354
     61  N         97.5760   22.6060   84.2300 N.am  408  TYR408     -0.1976
     62  CA        96.3270   22.3120   84.8790 C.3   408  TYR408      0.1639
     63  C         95.3420   21.7110   83.8750 C.2   408  TYR408      0.2290
     64  O         94.4480   20.9390   84.2250 O.2   408  TYR408     -0.2864
     65  CB        95.8070   23.5340   85.6680 C.3   408  TYR408      0.0560
     66  CG        96.0060   23.3960   87.1960 C.ar  408  TYR408     -0.0198
     67  CD1       97.2290   23.6900   87.8070 C.ar  408  TYR408     -0.0009
     68  CD2       94.9540   22.9190   88.0090 C.ar  408  TYR408     -0.0009
     69  CE1       97.3740   23.5190   89.1790 C.ar  408  TYR408      0.0417
     70  CE2       95.0890   22.7440   89.3780 C.ar  408  TYR408      0.0417
     71  CZ        96.2870   23.0500   89.9610 C.ar  408  TYR408      0.1957
     72  OH        96.3990   22.8390   91.3140 O.3   408  TYR408     -0.2866
     73  N         96.0980   31.3210   89.8940 N.3   427  LEU427     -0.1245
     74  CA        97.3120   30.6210   90.2590 C.3   427  LEU427      0.1561
     75  C         98.4850   31.4770   89.9400 C.2   427  LEU427      0.2260
     76  O         99.3300   31.6620   90.7610 O.2   427  LEU427     -0.2867
     77  CB        97.3590   29.2520   89.6150 C.3   427  LEU427      0.0270
     78  CG        96.3680   28.3780   90.4030 C.3   427  LEU427      0.0019
     79  CD1       96.5710   26.9350   89.9810 C.3   427  LEU427      0.0001
     80  CD2       96.5610   28.5120   91.9260 C.3   427  LEU427      0.0001
     81  N         99.2770   34.8530   92.1900 N.3   430  VAL430     -0.1231
     82  CA        99.9130   34.4500   93.4380 C.3   430  VAL430      0.1692
     83  C        101.4210   34.5960   93.4190 C.2   430  VAL430      0.2592
     84  O        102.0040   34.9420   94.4420 O.2   430  VAL430     -0.2718
     85  CB        99.4610   33.0450   93.8610 C.3   430  VAL430      0.0266
     86  CG1      100.3820   32.4580   94.9430 C.3   430  VAL430      0.0020
     87  CG2       98.0250   33.1570   94.3700 C.3   430  VAL430      0.0020
     88  N        102.0400   34.3240   92.2750 N.am  431  GLY431     -0.1957
     89  CA       103.4570   34.6210   92.0710 C.3   431  GLY431      0.1869
     90  C        103.7840   36.0840   92.3720 C.2   431  GLY431      0.2309
     91  O        104.7360   36.3910   93.0990 O.2   431  GLY431     -0.2863
     92  N        105.8350   35.9550   95.6790 N.3   435  CYS435     -0.1235
     93  CA       107.2800   35.7220   95.4950 C.3   435  CYS435      0.1677
     94  C        108.1270   36.9520   95.8560 C.2   435  CYS435      0.2270
     95  O        109.3390   36.8910   95.8490 O.2   435  CYS435     -0.2867
     96  CB       107.6620   35.2120   94.0860 C.3   435  CYS435      0.0956
     97  SG       106.8370   33.7160   93.4650 S.3   435  CYS435     -0.0801
     98  N        101.8470   32.0540   99.7130 N.3   446  THR446     -0.1218
     99  CA       101.5520   31.0550   98.6740 C.3   446  THR446      0.1862
    100  C        100.5500   29.9360   99.0310 C.2   446  THR446      0.2287
    101  O         99.7160   29.5480   98.2120 O.2   446  THR446     -0.2866
    102  CB       102.8300   30.5590   98.0080 C.3   446  THR446      0.1770
    103  OG1      103.5490   31.7070   97.5920 O.3   446  THR446     -0.2211
    104  CG2      102.5470   29.7010   96.7600 C.3   446  THR446      0.0375
    105  N         96.3170   29.7140   97.7040 N.3   450  LEU450     -0.1245
    106  CA        96.0900   28.4350   97.0610 C.3   450  LEU450      0.1561
    107  C         94.9300   27.6410   97.7060 C.2   450  LEU450      0.2260
    108  O         94.3700   26.7120   97.1150 O.2   450  LEU450     -0.2867
    109  CB        97.3690   27.6300   97.1620 C.3   450  LEU450      0.0270
    110  CG        98.2560   27.5280   95.9290 C.3   450  LEU450      0.0019
    111  CD1       99.4560   26.7280   96.3820 C.3   450  LEU450      0.0001
    112  CD2       97.4800   26.7270   94.8890 C.3   450  LEU450      0.0001
    113  N         98.1810   19.0960   93.5580 N.3   486  SER486     -0.1217
    114  CA        99.5230   19.1180   93.1080 C.3   486  SER486      0.1889
    115  C         99.9390   17.7580   92.6200 C.2   486  SER486      0.2288
    116  O        100.7520   17.6740   91.7350 O.2   486  SER486     -0.2866
    117  CB       100.4440   19.6140   94.2280 C.3   486  SER486      0.2089
    118  OG       100.5940   21.0420   94.1750 O.3   486  SER486     -0.2183
@<TRIPOS>BOND
     1    50    51    1
     2    31    32    1
     3    51    52    1
     4    51    54    1
     5    44    45    2
     6    44    43    1
     7    42    43    1
     8    63    64    2
     9    63    62    1
    10    52    53    2
    11    52    61   am
    12    33    34    2
    13    33    32    1
    14    32    35    1
    15    61    62    1
    16    43    46    1
    17    54    55    1
    18    62    65    1
    19    55    56    1
    20    56    57    1
    21    35    36    1
    22    65    66    1
    23    46    47    1
    24    59    58    1
    25    57    58    2
    26    37    36   ar
    27    37    39   ar
    28    58    60    1
    29    36    38   ar
    30    47    49    1
    31    47    48    1
    32    66    67   ar
    33    66    68   ar
    34    39    41   ar
    35    67    69   ar
    36    38    40   ar
    37    68    70   ar
    38    41    40   ar
    39    69    71   ar
    40    70    71   ar
    41    77    74    1
    42    77    78    1
    43    20    19    2
    44    73    74    1
    45    75    74    1
    46    75    76    2
    47    71    72    1
    48    79    78    1
    49    23    22    2
    50    78    80    1
    51    28    27    2
    52    18    19    1
    53    18    17    1
    54    18    21    1
    55    19    25   am
    56    27    26    1
    57    22    21    1
    58    22    24   am
    59   116   115    2
    60    25    26    1
    61    89    88    1
    62    89    90    1
    63    26    29    1
    64    81    82    1
    65    88    83   am
    66    90    91    2
    67   115   114    1
    68   114   113    1
    69   114   117    1
    70    83    82    1
    71    83    84    2
    72    82    85    1
    73    97    96    1
    74    97    30    1
    75    29    30    1
    76     7     6    1
    77    85    87    1
    78    85    86    1
    79    96    93    1
    80   118   117    1
    81     4     3    2
    82    12    11    2
    83     6     8    1
    84     6     5    1
    85   112   110    1
    86     3     2    1
    87     3     9   am
    88    11    10    1
    89    93    92    1
    90    93    94    1
    91     2     5    1
    92     2     1    1
    93    95    94    2
    94   110   111    1
    95   110   109    1
    96    10     9    1
    97    10    13    1
    98   104   102    1
    99   106   109    1
   100   106   105    1
   101   106   107    1
   102   108   107    2
   103   103   102    1
   104    15    13    1
   105    13    14    1
   106   102    99    1
   107    16    14    1
   108   101   100    2
   109    99   100    1
   110    99    98    1
