@<TRIPOS>MOLECULE
tmp/5otbD02.pdb
 90 84 0 0 0
SMALL
GASTEIGER

@<TRIPOS>ATOM
      1  N         84.7830   65.9060   57.1280 N.3   192  ARG192     -0.1245
      2  CA        84.6330   66.3260   55.7290 C.3   192  ARG192      0.1563
      3  C         83.7080   67.4460   55.6910 C.2   192  ARG192      0.2260
      4  O         84.0280   68.4950   55.1080 O.2   192  ARG192     -0.2867
      5  CB        83.9960   65.2530   54.9130 C.3   192  ARG192      0.0307
      6  CG        84.3400   65.3540   53.4630 C.3   192  ARG192      0.0489
      7  CD        83.5830   64.2810   52.7020 C.3   192  ARG192      0.2205
      8  NE        83.3040   63.0520   53.4540 N.pl3 192  ARG192     -0.0865
      9  CZ        84.1870   62.0640   53.5650 C.cat 192  ARG192      0.5346
     10  NH1       85.3710   62.1710   52.9610 N.pl3 192  ARG192      0.1354
     11  NH2       83.8920   60.9820   54.2930 N.pl3 192  ARG192      0.1354
     12  N         84.9500   70.5850   56.9030 N.3   195  LEU195     -0.1231
     13  CA        85.8680   71.2540   55.9530 C.3   195  LEU195      0.1693
     14  C         85.0980   72.1390   54.9550 C.2   195  LEU195      0.2591
     15  O         85.4380   73.2950   54.7420 O.2   195  LEU195     -0.2718
     16  CB        86.7260   70.2360   55.2100 C.3   195  LEU195      0.0284
     17  CG        87.5090   70.8200   53.9950 C.3   195  LEU195      0.0019
     18  CD1       88.3980   72.0010   54.4220 C.3   195  LEU195      0.0001
     19  CD2       88.3020   69.7660   53.2220 C.3   195  LEU195      0.0001
     20  N         84.0260   71.5710   54.4070 N.am  196  ARG196     -0.1980
     21  CA        83.0840   72.2580   53.5570 C.3   196  ARG196      0.1597
     22  C         82.6150   73.4890   54.2740 C.2   196  ARG196      0.2287
     23  O         82.6480   74.6150   53.6920 O.2   196  ARG196     -0.2864
     24  CB        81.9070   71.3620   53.1190 C.3   196  ARG196      0.0334
     25  CG        82.2780   70.1170   52.3070 C.3   196  ARG196      0.0492
     26  CD        81.0290   69.4530   51.7390 C.3   196  ARG196      0.2205
     27  NE        81.2370   68.1370   51.1550 N.pl3 196  ARG196     -0.0865
     28  CZ        80.8650   66.9960   51.7340 C.cat 196  ARG196      0.5346
     29  NH1       80.2610   67.0300   52.9090 N.pl3 196  ARG196      0.1354
     30  NH2       81.1030   65.8240   51.1840 N.pl3 196  ARG196      0.1354
     31  N         84.5640   76.6910   47.2990 N.3   208  LEU208     -0.1245
     32  CA        83.9200   75.3680   47.4440 C.3   208  LEU208      0.1561
     33  C         83.5380   74.7660   46.0830 C.2   208  LEU208      0.2260
     34  O         83.5410   73.5460   45.9000 O.2   208  LEU208     -0.2867
     35  CB        82.7190   75.4560   48.3570 C.3   208  LEU208      0.0270
     36  CG        82.0610   74.1400   48.7350 C.3   208  LEU208      0.0019
     37  CD1       82.9330   73.1700   49.5320 C.3   208  LEU208      0.0001
     38  CD2       80.7900   74.4330   49.5000 C.3   208  LEU208      0.0001
     39  N         86.6320   72.7500   44.1550 N.3   211  TRP211     -0.1227
     40  CA        86.8420   71.4800   44.7620 C.3   211  TRP211      0.1737
     41  C         85.7610   70.4810   44.3690 C.2   211  TRP211      0.2596
     42  O         86.0480   69.3300   44.0820 O.2   211  TRP211     -0.2718
     43  CB        86.8280   71.6480   46.2950 C.3   211  TRP211      0.0564
     44  CG        88.0220   72.4500   46.8660 C.ar  211  TRP211      0.0003
     45  CD1       88.1760   73.8220   46.8650 C.ar  211  TRP211      0.0946
     46  CD2       89.2140   71.9170   47.5140 C.ar  211  TRP211      0.0152
     47  NE1       89.3890   74.1680   47.4590 N.ar  211  TRP211     -0.2442
     48  CE2       90.0360   73.0300   47.8720 C.ar  211  TRP211      0.0810
     49  CE3       89.6650   70.6110   47.8250 C.ar  211  TRP211      0.0012
     50  CZ2       91.2860   72.8750   48.4930 C.ar  211  TRP211      0.0191
     51  CZ3       90.9220   70.4630   48.4650 C.ar  211  TRP211      0.0001
     52  CH2       91.7080   71.5810   48.7780 C.ar  211  TRP211      0.0015
     53  N         84.5040   70.8710   44.4310 N.am  212  SER212     -0.1952
     54  CA        83.4880   69.9680   43.9800 C.3   212  SER212      0.1924
     55  C         83.5540   69.7030   42.5080 C.2   212  SER212      0.2314
     56  O         83.2520   68.6380   42.0850 O.2   212  SER212     -0.2863
     57  CB        82.1920   70.6690   44.2130 C.3   212  SER212      0.2116
     58  OG        82.0640   70.8470   45.6070 O.3   212  SER212     -0.2180
     59  N         86.1670   67.3100   42.1280 N.3   215  ARG215     -0.1245
     60  CA        85.8170   66.0310   42.7950 C.3   215  ARG215      0.1563
     61  C         84.9770   65.2290   41.8250 C.2   215  ARG215      0.2260
     62  O         85.1870   63.9970   41.6320 O.2   215  ARG215     -0.2867
     63  CB        85.1010   66.2680   44.1370 C.3   215  ARG215      0.0307
     64  CG        84.6910   65.0520   44.9980 C.3   215  ARG215      0.0489
     65  CD        83.5070   65.4270   45.9360 C.3   215  ARG215      0.2205
     66  NE        82.5430   64.3370   46.1850 N.pl3 215  ARG215     -0.0865
     67  CZ        82.3540   63.7160   47.3460 C.cat 215  ARG215      0.5346
     68  NH1       83.0420   64.0350   48.4600 N.pl3 215  ARG215      0.1354
     69  NH2       81.4610   62.7420   47.3920 N.pl3 215  ARG215      0.1354
     70  N         92.8180   65.6250   44.4760 N.3   340  VAL340     -0.1245
     71  CA        91.9010   66.7010   44.1330 C.3   340  VAL340      0.1561
     72  C         92.5710   67.9940   44.4470 C.2   340  VAL340      0.2260
     73  O         92.3480   69.0040   43.7710 O.2   340  VAL340     -0.2867
     74  CB        90.6090   66.6640   45.0440 C.3   340  VAL340      0.0252
     75  CG1       89.9720   68.0590   45.1800 C.3   340  VAL340      0.0019
     76  CG2       89.5430   65.6680   44.5360 C.3   340  VAL340      0.0019
     77  N         93.6780   63.6650   50.8810 N.3   448  ASP448     -0.1239
     78  CA        92.2950   63.9440   51.3650 C.3   448  ASP448      0.1674
     79  C         92.2830   64.0810   52.8940 C.2   448  ASP448      0.2266
     80  O         91.6180   64.9660   53.4190 O.2   448  ASP448     -0.2867
     81  CB        91.2940   62.8710   50.9280 C.3   448  ASP448      0.1410
     82  CG        90.7240   63.1040   49.5300 C.2   448  ASP448      0.3668
     83  OD1       89.7860   62.3630   49.1580 O.co2 448  ASP448     -0.2456
     84  OD2       91.1890   64.0100   48.7690 O.co2 448  ASP448     -0.2456
     85  N         93.9830   67.1580   54.4470 N.3   451  SER451     -0.1217
     86  CA        93.0740   68.2990   54.3630 C.3   451  SER451      0.1889
     87  C         92.1730   68.2310   55.5390 C.2   451  SER451      0.2288
     88  O         92.0260   69.2200   56.2210 O.2   451  SER451     -0.2866
     89  CB        92.2980   68.3210   53.0350 C.3   451  SER451      0.2089
     90  OG        93.2610   68.2540   51.9110 O.3   451  SER451     -0.2183
@<TRIPOS>BOND
     1    62    61    2
     2    61    60    1
     3    56    55    2
     4    59    60    1
     5    55    54    1
     6    60    63    1
     7    73    72    2
     8    54    57    1
     9    54    53    1
    10    42    41    2
    11    71    72    1
    12    71    70    1
    13    71    74    1
    14    63    64    1
    15    39    40    1
    16    57    58    1
    17    41    53   am
    18    41    40    1
    19    76    74    1
    20    40    43    1
    21    64    65    1
    22    74    75    1
    23    34    33    2
    24    65    66    1
    25    33    32    1
    26    66    67    2
    27    43    44    1
    28    45    44   ar
    29    45    47   ar
    30    44    46   ar
    31    31    32    1
    32    67    69    1
    33    67    68    1
    34    32    35    1
    35    47    48   ar
    36    46    49   ar
    37    46    48   ar
    38    49    51   ar
    39    48    50   ar
    40    35    36    1
    41    51    52   ar
    42    50    52   ar
    43    36    38    1
    44    36    37    1
    45    84    82   ar
    46    83    82   ar
    47    82    81    1
    48    77    78    1
    49    81    78    1
    50    27    28    2
    51    27    26    1
    52    30    28    1
    53    78    79    1
    54    28    29    1
    55    26    25    1
    56    90    89    1
    57    25    24    1
    58     7     8    1
    59     7     6    1
    60    79    80    2
    61    10     9    1
    62    89    86    1
    63    24    21    1
    64    19    17    1
    65     8     9    2
    66     6     5    1
    67    21    22    1
    68    21    20    1
    69     9    11    1
    70    23    22    2
    71    17    18    1
    72    17    16    1
    73    86    85    1
    74    86    87    1
    75    20    14   am
    76    15    14    2
    77     5     2    1
    78    14    13    1
    79     4     3    2
    80    16    13    1
    81    87    88    2
    82     3     2    1
    83     2     1    1
    84    13    12    1
