@<TRIPOS>MOLECULE
tmp/5otcA00.pdb
 140 133 0 0 0
SMALL
GASTEIGER

@<TRIPOS>ATOM
      1  N        -34.8910  -19.5160  -10.7260 N.3     9  GLU9       -0.1245
      2  CA       -35.9830  -18.9850  -11.5300 C.3     9  GLU9        0.1567
      3  C        -35.5840  -17.7480  -12.3550 C.2     9  GLU9        0.2260
      4  O        -35.9070  -17.6870  -13.5460 O.2     9  GLU9       -0.2867
      5  CB       -37.2130  -18.7280  -10.6560 C.3     9  GLU9        0.0388
      6  CG       -38.4760  -18.4280  -11.4400 C.3     9  GLU9        0.1160
      7  CD       -39.6700  -18.1160  -10.5680 C.2     9  GLU9        0.3649
      8  OE1      -39.5240  -18.1290   -9.3200 O.co2   9  GLU9       -0.2457
      9  OE2      -40.7590  -17.8740  -11.1390 O.co2   9  GLU9       -0.2457
     10  N        -37.7350  -13.8360   -9.2180 N.3    12  TYR12      -0.1241
     11  CA       -38.2840  -13.8720   -7.8620 C.3    12  TYR12       0.1605
     12  C        -37.3760  -13.0840   -6.8980 C.2    12  TYR12       0.2264
     13  O        -36.7380  -13.6750   -6.0250 O.2    12  TYR12      -0.2867
     14  CB       -38.5060  -15.3340   -7.3980 C.3    12  TYR12       0.0534
     15  CG       -39.5690  -15.4650   -6.3300 C.ar   12  TYR12      -0.0201
     16  CD1      -40.9210  -15.4700   -6.6610 C.ar   12  TYR12      -0.0009
     17  CD2      -39.2280  -15.5850   -4.9860 C.ar   12  TYR12      -0.0009
     18  CE1      -41.9090  -15.5950   -5.6820 C.ar   12  TYR12       0.0417
     19  CE2      -40.2080  -15.7020   -3.9960 C.ar   12  TYR12       0.0417
     20  CZ       -41.5490  -15.7150   -4.3530 C.ar   12  TYR12       0.1957
     21  OH       -42.5370  -15.7990   -3.4070 O.3    12  TYR12      -0.2866
     22  N        -34.5450  -13.0850   -3.9700 N.3    15  TYR15      -0.1241
     23  CA       -33.9270  -14.4100   -3.9110 C.3    15  TYR15       0.1605
     24  C        -33.0880  -14.6690   -5.1530 C.2    15  TYR15       0.2264
     25  O        -31.9430  -15.1100   -5.0440 O.2    15  TYR15      -0.2867
     26  CB       -35.0030  -15.4860   -3.8670 C.3    15  TYR15       0.0534
     27  CG       -35.5820  -15.7730   -2.5090 C.ar   15  TYR15      -0.0201
     28  CD1      -35.0130  -16.7360   -1.6810 C.ar   15  TYR15      -0.0009
     29  CD2      -36.7610  -15.1690   -2.0930 C.ar   15  TYR15      -0.0009
     30  CE1      -35.6070  -17.0960   -0.4780 C.ar   15  TYR15       0.0417
     31  CE2      -37.3640  -15.5230   -0.8920 C.ar   15  TYR15       0.0417
     32  CZ       -36.7790  -16.4890   -0.0850 C.ar   15  TYR15       0.1957
     33  OH       -37.3640  -16.8800    1.0920 O.3    15  TYR15      -0.2866
     34  N        -40.2420  -21.7090  -13.4720 N.3    50  TRP50      -0.1241
     35  CA       -40.7840  -22.4140  -12.3160 C.3    50  TRP50       0.1605
     36  C        -41.5460  -23.6900  -12.6950 C.2    50  TRP50       0.2264
     37  O        -41.4010  -24.6950  -12.0080 O.2    50  TRP50      -0.2867
     38  CB       -41.6510  -21.4660  -11.4730 C.3    50  TRP50       0.0550
     39  CG       -42.0020  -22.0140  -10.1260 C.ar   50  TRP50       0.0003
     40  CD1      -43.2150  -22.5000   -9.7310 C.ar   50  TRP50       0.0946
     41  CD2      -41.1090  -22.2000   -9.0110 C.ar   50  TRP50       0.0152
     42  NE1      -43.1430  -22.9510   -8.4310 N.ar   50  TRP50      -0.2442
     43  CE2      -41.8590  -22.7990   -7.9710 C.ar   50  TRP50       0.0810
     44  CE3      -39.7430  -21.9270   -8.7940 C.ar   50  TRP50       0.0012
     45  CZ2      -41.3030  -23.1050   -6.7260 C.ar   50  TRP50       0.0191
     46  CZ3      -39.1960  -22.2240   -7.5530 C.ar   50  TRP50       0.0001
     47  CH2      -39.9810  -22.7690   -6.5220 C.ar   50  TRP50       0.0015
     48  N        -33.9470  -21.7740   -5.6330 N.3    67  ALA67      -0.1231
     49  CA       -34.9540  -20.8650   -6.1710 C.3    67  ALA67       0.1694
     50  C        -36.0880  -20.6040   -5.1970 C.2    67  ALA67       0.2592
     51  O        -37.2530  -20.8240   -5.5430 O.2    67  ALA67      -0.2718
     52  CB       -35.4910  -21.3990   -7.5040 C.3    67  ALA67       0.0304
     53  N        -35.7630  -20.0750   -3.9800 N.am   68  ALA68      -0.1966
     54  CA       -36.7420  -19.7580   -2.9190 C.3    68  ALA68       0.1728
     55  C        -37.6960  -20.9520   -2.6930 C.2    68  ALA68       0.2616
     56  O        -38.8640  -20.7510   -2.3860 O.2    68  ALA68      -0.2715
     57  CB       -37.5490  -18.5200   -3.3090 C.3    68  ALA68       0.0334
     58  N        -37.2140  -22.1880   -2.8940 N.am   69  MET69      -0.1963
     59  CA       -38.0980  -23.3600   -2.8240 C.3    69  MET69       0.1736
     60  C        -38.3440  -23.8890   -1.4320 C.2    69  MET69       0.2617
     61  O        -37.4370  -24.4230   -0.7820 O.2    69  MET69      -0.2715
     62  CB       -37.6020  -24.4710   -3.7400 C.3    69  MET69       0.0427
     63  CG       -38.5880  -25.5970   -3.8950 C.3    69  MET69       0.0599
     64  SD       -38.0290  -26.7920   -5.1100 S.3    69  MET69      -0.1393
     65  CE       -38.5290  -25.9730   -6.5780 C.3    69  MET69       0.0692
     66  N        -39.5990  -23.7620   -1.0050 N.am   70  GLY70      -0.1955
     67  CA       -40.0640  -24.3090    0.2640 C.3    70  GLY70       0.1869
     68  C        -39.9700  -25.8230    0.2990 C.2    70  GLY70       0.2309
     69  O        -40.2950  -26.4820   -0.6880 O.2    70  GLY70      -0.2863
     70  N        -43.4430  -31.8430   -2.4640 N.3    75  ARG75      -0.1245
     71  CA       -42.1780  -31.7970   -3.1990 C.3    75  ARG75       0.1563
     72  C        -41.2100  -32.8840   -2.7450 C.2    75  ARG75       0.2260
     73  O        -40.4800  -33.4150   -3.5740 O.2    75  ARG75      -0.2867
     74  CB       -41.5480  -30.4120   -3.0870 C.3    75  ARG75       0.0307
     75  CG       -42.3280  -29.3760   -3.8590 C.3    75  ARG75       0.0489
     76  CD       -41.6910  -28.0390   -3.6960 C.3    75  ARG75       0.2205
     77  NE       -42.4600  -27.0190   -4.4110 N.pl3  75  ARG75      -0.0865
     78  CZ       -42.6050  -25.7790   -3.9860 C.cat  75  ARG75       0.5346
     79  NH1      -43.3310  -24.9130   -4.6820 N.pl3  75  ARG75       0.1354
     80  NH2      -42.0670  -25.4030   -2.8380 N.pl3  75  ARG75       0.1354
     81  N        -39.1230  -18.7530    6.7690 N.3    88  THR88      -0.1218
     82  CA       -40.0160  -17.6240    6.5290 C.3    88  THR88       0.1862
     83  C        -41.5010  -17.9600    6.7100 C.2    88  THR88       0.2287
     84  O        -42.0050  -18.8600    6.0480 O.2    88  THR88      -0.2866
     85  CB       -39.7520  -16.9490    5.1330 C.3    88  THR88       0.1770
     86  OG1      -40.6500  -15.8350    4.9620 O.3    88  THR88      -0.2211
     87  CG2      -39.8470  -17.9440    3.9430 C.3    88  THR88       0.0375
     88  N        -45.5900  -17.0420    5.9910 N.3    90  MET90      -0.1245
     89  CA       -46.3780  -16.6280    4.8410 C.3    90  MET90       0.1570
     90  C        -47.4130  -15.6560    5.3160 C.2    90  MET90       0.2261
     91  O        -47.9860  -15.8610    6.3860 O.2    90  MET90      -0.2867
     92  CB       -47.0780  -17.8470    4.2050 C.3    90  MET90       0.0387
     93  CG       -46.1260  -18.9550    3.8020 C.3    90  MET90       0.0595
     94  SD       -45.1840  -18.5390    2.3280 S.3    90  MET90      -0.1393
     95  CE       -44.1480  -19.9330    2.2360 C.3    90  MET90       0.0692
     96  N        -48.9130  -16.9830   -7.8720 N.3   138  GLN138     -0.1245
     97  CA       -48.0870  -17.5920   -8.9100 C.3   138  GLN138      0.1566
     98  C        -48.4520  -19.0980   -8.9380 C.2   138  GLN138      0.2260
     99  O        -48.6560  -19.6960   -7.8890 O.2   138  GLN138     -0.2867
    100  CB       -46.5890  -17.3910   -8.6280 C.3   138  GLN138      0.0367
    101  CG       -45.7060  -17.9170   -9.7670 C.3   138  GLN138      0.0905
    102  CD       -44.2440  -18.0000   -9.4360 C.2   138  GLN138      0.2608
    103  OE1      -43.7970  -17.6520   -8.3410 O.2   138  GLN138     -0.2717
    104  NE2      -43.4590  -18.4640  -10.3900 N.am  138  GLN138     -0.0878
    105  N        -46.9320  -22.8930   -6.8620 N.3   141  THR141     -0.1203
    106  CA       -46.3760  -22.4670   -5.5840 C.3   141  THR141      0.1994
    107  C        -47.1410  -23.0240   -4.3960 C.2   141  THR141      0.2619
    108  O        -48.2660  -23.4560   -4.5500 O.2   141  THR141     -0.2717
    109  CB       -46.3060  -20.9240   -5.4910 C.3   141  THR141      0.1784
    110  OG1      -47.6370  -20.3960   -5.5560 O.3   141  THR141     -0.2211
    111  CG2      -45.4120  -20.3110   -6.5510 C.3   141  THR141      0.0376
    112  N        -46.5370  -22.9470   -3.1910 N.am  142  SER142     -0.1937
    113  CA       -47.1650  -23.3410   -1.9220 C.3   142  SER142      0.2055
    114  C        -48.3450  -22.3630   -1.6400 C.2   142  SER142      0.2643
    115  O        -49.2840  -22.7240   -0.9290 O.2   142  SER142     -0.2714
    116  CB       -46.1420  -23.2560   -0.7920 C.3   142  SER142      0.2130
    117  OG       -45.5430  -21.9670   -0.7630 O.3   142  SER142     -0.2179
    118  N        -48.2860  -21.1470   -2.2250 N.am  143  HIS143     -0.1973
    119  CA       -49.3130  -20.1000   -2.1090 C.3   143  HIS143      0.1656
    120  C        -50.5900  -20.5530   -2.8170 C.2   143  HIS143      0.2291
    121  O        -51.6730  -20.4350   -2.2530 O.2   143  HIS143     -0.2864
    122  CB       -48.8140  -18.7420   -2.6580 C.3   143  HIS143      0.0771
    123  CG       -47.3770  -18.4250   -2.3430 C.ar  143  HIS143      0.0820
    124  ND1      -46.5540  -17.8320   -3.2800 N.ar  143  HIS143     -0.2267
    125  CD2      -46.6660  -18.6240   -1.2080 C.ar  143  HIS143      0.1154
    126  CE1      -45.3850  -17.6840   -2.6950 C.ar  143  HIS143      0.1986
    127  NE2      -45.4020  -18.1490   -1.4530 N.ar  143  HIS143     -0.2212
    128  N        -44.4460  -15.3160    0.9150 N.3   180  SER180     -0.1217
    129  CA       -43.7250  -15.2840    2.1740 C.3   180  SER180      0.1889
    130  C        -43.3890  -13.8440    2.5520 C.2   180  SER180      0.2288
    131  O        -43.3170  -12.9740    1.6830 O.2   180  SER180     -0.2866
    132  CB       -42.4420  -16.1020    2.0880 C.3   180  SER180      0.2089
    133  OG       -41.4830  -15.4930    1.2410 O.3   180  SER180     -0.2183
    134  N        -36.9460  -22.8670    3.4490 N.3   212  VAL212     -0.1245
    135  CA       -36.4340  -22.8860    2.0860 C.3   212  VAL212      0.1561
    136  C        -35.1410  -23.7290    2.0760 C.2   212  VAL212      0.2260
    137  O        -34.2530  -23.5140    2.8960 O.2   212  VAL212     -0.2867
    138  CB       -36.2410  -21.4230    1.5500 C.3   212  VAL212      0.0252
    139  CG1      -35.4900  -21.3960    0.2280 C.3   212  VAL212      0.0019
    140  CG2      -37.5800  -20.7140    1.3920 C.3   212  VAL212      0.0019
@<TRIPOS>BOND
     1     4     3    2
     2    34    35    1
     3    36    35    1
     4    36    37    2
     5     3     2    1
     6    35    38    1
     7     2     1    1
     8     2     5    1
     9    38    39    1
    10     6     5    1
    11     6     7    1
    12     9     7   ar
    13     7     8   ar
    14   104   102   am
    15    39    40   ar
    16    39    41   ar
    17   101   102    1
    18   101   100    1
    19    40    42   ar
    20   102   103    2
    21    10    11    1
    22    41    44   ar
    23    41    43   ar
    24    98    97    1
    25    98    99    2
    26    97   100    1
    27    97    96    1
    28    44    46   ar
    29    42    43   ar
    30    43    45   ar
    31    11    14    1
    32    11    12    1
    33    46    47   ar
    34    52    49    1
    35    14    15    1
    36    12    13    2
    37   105   106    1
    38    45    47   ar
    39    16    15   ar
    40    16    18   ar
    41    65    64    1
    42   111   109    1
    43    15    17   ar
    44    49    48    1
    45    49    50    1
    46    18    20   ar
    47   106   109    1
    48   106   107    1
    49   110   109    1
    50    51    50    2
    51    50    53   am
    52    24    25    2
    53    24    23    1
    54    64    63    1
    55    17    19   ar
    56    79    78    1
    57   108   107    2
    58    77    78    2
    59    77    76    1
    60   107   112   am
    61    20    19   ar
    62    20    21    1
    63    78    80    1
    64    53    54    1
    65    22    23    1
    66    23    26    1
    67    63    62    1
    68    26    27    1
    69    75    76    1
    70    75    74    1
    71    62    59    1
    72    73    72    2
    73    57    54    1
    74   124   126   ar
    75   124   123   ar
    76    71    74    1
    77    71    72    1
    78    71    70    1
    79   112   113    1
    80    54    55    1
    81    58    59    1
    82    58    55   am
    83    59    60    1
    84   120   121    2
    85   120   119    1
    86   126   127   ar
    87    55    56    2
    88   122   123    1
    89   122   119    1
    90    27    29   ar
    91    27    28   ar
    92   123   125   ar
    93   118   119    1
    94   118   114   am
    95    29    31   ar
    96   113   114    1
    97   113   116    1
    98    28    30   ar
    99   114   115    2
   100   127   125   ar
   101    60    66   am
   102    60    61    2
   103    66    67    1
   104    31    32   ar
   105   116   117    1
   106    69    68    2
   107    30    32   ar
   108    32    33    1
   109   139   138    1
   110    67    68    1
   111   128   129    1
   112   133   132    1
   113   140   138    1
   114   138   135    1
   115   131   130    2
   116   136   135    1
   117   136   137    2
   118   135   134    1
   119   132   129    1
   120   129   130    1
   121    95    94    1
   122    94    93    1
   123    93    92    1
   124    87    85    1
   125    92    89    1
   126    89    90    1
   127    89    88    1
   128    86    85    1
   129    85    82    1
   130    90    91    2
   131    84    83    2
   132    82    83    1
   133    82    81    1
