@<TRIPOS>MOLECULE
tmp/5otdB00.pdb
 204 195 0 0 0
SMALL
GASTEIGER

@<TRIPOS>ATOM
      1  N          8.0810  126.1590  363.5880 N.3    44  LEU44      -0.1231
      2  CA         7.5150  127.3380  362.9190 C.3    44  LEU44       0.1693
      3  C          8.3280  127.7290  361.6770 C.2    44  LEU44       0.2592
      4  O          7.7490  128.0970  360.6590 O.2    44  LEU44      -0.2718
      5  CB         7.3900  128.5400  363.8790 C.3    44  LEU44       0.0284
      6  CG         6.4750  128.3860  365.1040 C.3    44  LEU44       0.0019
      7  CD1        6.7170  129.4960  366.1130 C.3    44  LEU44       0.0001
      8  CD2        5.0020  128.3790  364.7130 C.3    44  LEU44       0.0001
      9  N          9.6500  127.6220  361.7780 N.am   45  GLY45      -0.1957
     10  CA        10.5880  127.9390  360.7070 C.3    45  GLY45       0.1869
     11  C         11.9780  127.3860  360.9500 C.2    45  GLY45       0.2309
     12  O         12.3210  127.0110  362.0740 O.2    45  GLY45      -0.2863
     13  N         13.1610  127.5940  364.8640 N.3    52  VAL52      -0.1245
     14  CA        12.1750  128.2720  365.7080 C.3    52  VAL52       0.1561
     15  C         10.9650  127.3410  365.9330 C.2    52  VAL52       0.2260
     16  O         10.4540  126.7530  364.9770 O.2    52  VAL52      -0.2867
     17  CB        11.7690  129.6450  365.0940 C.3    52  VAL52       0.0252
     18  CG1       10.7340  130.3620  365.9580 C.3    52  VAL52       0.0019
     19  CG2       12.9960  130.5390  364.8840 C.3    52  VAL52       0.0019
     20  N          1.3240  135.0180  364.5450 N.3   117  ASN117     -0.1225
     21  CA         1.5900  135.4140  363.1620 C.3   117  ASN117      0.1785
     22  C          0.4600  135.1090  362.1500 C.2   117  ASN117      0.2597
     23  O          0.1560  133.9370  361.9070 O.2   117  ASN117     -0.2718
     24  CB         2.8820  134.7450  362.7070 C.3   117  ASN117      0.1169
     25  CG         3.5570  135.4500  361.5670 C.2   117  ASN117      0.2627
     26  OD1        4.4560  136.2610  361.7720 O.2   117  ASN117     -0.2716
     27  ND2        3.1300  135.1830  360.3350 N.am  117  ASN117     -0.0877
     28  N         -0.1140  136.1600  361.5190 N.am  118  THR118     -0.1953
     29  CA        -1.1470  135.9970  360.4820 C.3   118  THR118      0.1897
     30  C         -0.4380  135.6520  359.1700 C.2   118  THR118      0.2313
     31  O          0.6290  136.2180  358.8950 O.2   118  THR118     -0.2863
     32  CB        -1.9670  137.3030  360.2930 C.3   118  THR118      0.1794
     33  OG1       -2.3470  137.8110  361.5580 O.3   118  THR118     -0.2208
     34  CG2       -3.2270  137.1070  359.4340 C.3   118  THR118      0.0378
     35  N          0.3880  136.1790  355.7330 N.3   120  PHE120     -0.1241
     36  CA         0.4560  137.3770  354.9070 C.3   120  PHE120      0.1605
     37  C          0.0000  137.1770  353.4530 C.2   120  PHE120      0.2264
     38  O         -0.4840  138.1330  352.8480 O.2   120  PHE120     -0.2867
     39  CB         1.8780  137.9720  354.9660 C.3   120  PHE120      0.0534
     40  CG         3.0060  137.0010  354.6780 C.ar  120  PHE120     -0.0203
     41  CD1        3.5990  136.2720  355.7050 C.ar  120  PHE120     -0.0042
     42  CD2        3.4900  136.8320  353.3850 C.ar  120  PHE120     -0.0042
     43  CE1        4.6420  135.3780  355.4400 C.ar  120  PHE120     -0.0003
     44  CE2        4.5390  135.9460  353.1210 C.ar  120  PHE120     -0.0003
     45  CZ         5.1070  135.2230  354.1500 C.ar  120  PHE120     -0.0000
     46  N         -3.4290  138.3080  353.1370 N.3   123  LEU123     -0.1231
     47  CA        -3.4640  139.6550  353.7020 C.3   123  LEU123      0.1693
     48  C         -3.1070  140.7880  352.7090 C.2   123  LEU123      0.2592
     49  O         -3.8100  141.7990  352.7210 O.2   123  LEU123     -0.2718
     50  CB        -2.5660  139.7140  354.9660 C.3   123  LEU123      0.0284
     51  CG        -2.3560  141.0670  355.6800 C.3   123  LEU123      0.0019
     52  CD1       -3.6550  141.6040  356.2730 C.3   123  LEU123      0.0001
     53  CD2       -1.2900  140.9530  356.7590 C.3   123  LEU123      0.0001
     54  N         -2.0420  140.6470  351.8680 N.am  124  TYR124     -0.1976
     55  CA        -1.6540  141.7400  350.9510 C.3   124  TYR124      0.1639
     56  C         -2.6910  142.0300  349.8440 C.2   124  TYR124      0.2290
     57  O         -2.6910  143.1360  349.2940 O.2   124  TYR124     -0.2864
     58  CB        -0.2310  141.6040  350.3610 C.3   124  TYR124      0.0560
     59  CG         0.1410  140.2820  349.7280 C.ar  124  TYR124     -0.0198
     60  CD1       -0.3230  139.9370  348.4610 C.ar  124  TYR124     -0.0009
     61  CD2        1.0870  139.4500  350.3190 C.ar  124  TYR124     -0.0009
     62  CE1        0.0630  138.7450  347.8470 C.ar  124  TYR124      0.0417
     63  CE2        1.4930  138.2620  349.7110 C.ar  124  TYR124      0.0417
     64  CZ         0.9730  137.9090  348.4760 C.ar  124  TYR124      0.1957
     65  OH         1.3620  136.7310  347.8790 O.3   124  TYR124     -0.2866
     66  N         -5.0400  144.4630  351.9370 N.3   127  LEU127     -0.1245
     67  CA        -4.3980  145.6180  352.5870 C.3   127  LEU127      0.1561
     68  C         -4.8240  146.9580  351.9910 C.2   127  LEU127      0.2260
     69  O         -5.0120  147.0670  350.7750 O.2   127  LEU127     -0.2867
     70  CB        -2.8580  145.5060  352.5610 C.3   127  LEU127      0.0270
     71  CG        -2.2020  144.5600  353.5730 C.3   127  LEU127      0.0019
     72  CD1       -0.7530  144.3430  353.2410 C.3   127  LEU127      0.0001
     73  CD2       -2.3000  145.0830  354.9970 C.3   127  LEU127      0.0001
     74  N         -0.9080  150.0740  355.5320 N.3   132  ILE132     -0.1245
     75  CA         0.5350  150.2230  355.2430 C.3   132  ILE132      0.1561
     76  C          1.1430  151.3530  356.0870 C.2   132  ILE132      0.2260
     77  O          2.1790  151.1410  356.7270 O.2   132  ILE132     -0.2867
     78  CB         0.7890  150.3920  353.7130 C.3   132  ILE132      0.0252
     79  CG1        0.2220  149.1580  352.9440 C.3   132  ILE132      0.0019
     80  CG2        2.3090  150.6090  353.4110 C.3   132  ILE132      0.0019
     81  CD1        0.1420  149.3190  351.4600 C.3   132  ILE132      0.0001
     82  N          1.2990  150.1140  359.8860 N.3   135  TYR135     -0.1227
     83  CA         2.3680  149.1590  360.1960 C.3   135  TYR135      0.1736
     84  C          3.7820  149.7220  359.9480 C.2   135  TYR135      0.2595
     85  O          4.7100  149.3780  360.7090 O.2   135  TYR135     -0.2718
     86  CB         2.1520  147.8180  359.4830 C.3   135  TYR135      0.0548
     87  CG         1.0110  147.0140  360.0710 C.ar  135  TYR135     -0.0200
     88  CD1        1.0500  146.5730  361.3920 C.ar  135  TYR135     -0.0009
     89  CD2       -0.0980  146.6790  359.3020 C.ar  135  TYR135     -0.0009
     90  CE1       -0.0110  145.8500  361.9470 C.ar  135  TYR135      0.0417
     91  CE2       -1.1590  145.9430  359.8380 C.ar  135  TYR135      0.0417
     92  CZ        -1.1070  145.5290  361.1610 C.ar  135  TYR135      0.1957
     93  OH        -2.1310  144.7830  361.6990 O.3   135  TYR135     -0.2866
     94  N          3.9370  150.6270  358.9530 N.am  136  MET136     -0.1979
     95  CA         5.2440  151.2900  358.7290 C.3   136  MET136      0.1605
     96  C          5.6240  152.1280  359.9860 C.2   136  MET136      0.2287
     97  O          6.7800  152.1010  360.4400 O.2   136  MET136     -0.2864
     98  CB         5.1980  152.2060  357.4970 C.3   136  MET136      0.0413
     99  CG         5.3440  151.4630  356.1550 C.3   136  MET136      0.0598
    100  SD         7.0170  150.7920  355.8790 S.3   136  MET136     -0.1393
    101  CE         7.8880  152.1820  355.9250 C.3   136  MET136      0.0692
    102  N          6.9510  149.9050  362.7690 N.3   139  ILE139     -0.1245
    103  CA         8.3490  149.4860  362.5180 C.3   139  ILE139      0.1561
    104  C          9.2860  150.6350  362.9260 C.2   139  ILE139      0.2260
    105  O         10.3270  150.3930  363.5590 O.2   139  ILE139     -0.2867
    106  CB         8.6110  149.0420  361.0450 C.3   139  ILE139      0.0252
    107  CG1        7.7430  147.8050  360.6560 C.3   139  ILE139      0.0019
    108  CG2       10.1310  148.7180  360.8280 C.3   139  ILE139      0.0019
    109  CD1        7.6920  147.5470  359.1200 C.3   139  ILE139      0.0001
    110  N         10.8970  141.6060  355.3520 N.3   158  PRO158     -0.2102
    111  CA         9.5670  141.1080  355.7750 C.3   158  PRO158      0.1504
    112  C          9.6090  139.8260  356.6130 C.2   158  PRO158      0.2576
    113  O          8.7950  139.6990  357.5300 O.2   158  PRO158     -0.2718
    114  CB         8.8200  140.9190  354.4490 C.3   158  PRO158      0.0282
    115  CG         9.4910  141.8870  353.5070 C.3   158  PRO158      0.0208
    116  CD        10.9510  141.7820  353.8870 C.3   158  PRO158      0.0893
    117  N         10.5660  138.8970  356.3310 N.am  159  HIS159     -0.1962
    118  CA        10.6950  137.6480  357.0850 C.3   159  HIS159      0.1787
    119  C         10.9610  137.9210  358.5800 C.2   159  HIS159      0.2620
    120  O         10.5990  137.1030  359.4180 O.2   159  HIS159     -0.2715
    121  CB        11.8110  136.7510  356.4940 C.3   159  HIS159      0.0785
    122  CG        11.9230  135.3970  357.1460 C.ar  159  HIS159      0.0821
    123  ND1       10.9510  134.4260  356.9670 N.ar  159  HIS159     -0.2267
    124  CD2       12.8910  134.8980  357.9550 C.ar  159  HIS159      0.1154
    125  CE1       11.3620  133.3690  357.6530 C.ar  159  HIS159      0.1986
    126  NE2       12.5240  133.6030  358.2630 N.ar  159  HIS159     -0.2212
    127  N         11.6040  139.0780  358.9070 N.am  160  ASN160     -0.1958
    128  CA        11.9310  139.4360  360.3080 C.3   160  ASN160      0.1819
    129  C         10.9360  140.4050  360.9680 C.2   160  ASN160      0.2621
    130  O         11.2280  140.9720  362.0390 O.2   160  ASN160     -0.2715
    131  CB        13.3680  139.9490  360.4220 C.3   160  ASN160      0.1195
    132  CG        14.3770  138.8450  360.1660 C.2   160  ASN160      0.2630
    133  OD1       14.0660  137.6590  360.3150 O.2   160  ASN160     -0.2716
    134  ND2       15.5930  139.1930  359.7700 N.am  160  ASN160     -0.0877
    135  N          9.7280  140.5300  360.3920 N.am  161  VAL161     -0.1963
    136  CA         8.6780  141.3590  360.9780 C.3   161  VAL161      0.1727
    137  C          7.4250  140.4820  361.1470 C.2   161  VAL161      0.2616
    138  O          6.8440  140.0840  360.1390 O.2   161  VAL161     -0.2715
    139  CB         8.3650  142.6540  360.1960 C.3   161  VAL161      0.0290
    140  CG1        7.2360  143.4300  360.8810 C.3   161  VAL161      0.0023
    141  CG2        9.6190  143.5410  360.0380 C.3   161  VAL161      0.0023
    142  N          7.0470  140.1610  362.4020 N.am  162  MET162     -0.1963
    143  CA         5.8530  139.3350  362.6800 C.3   162  MET162      0.1736
    144  C          4.6450  140.2320  362.9610 C.2   162  MET162      0.2616
    145  O          4.7570  141.2010  363.7240 O.2   162  MET162     -0.2715
    146  CB         6.1140  138.3820  363.8530 C.3   162  MET162      0.0427
    147  CG         7.0420  137.2370  363.5090 C.3   162  MET162      0.0599
    148  SD         7.3010  136.1830  364.9390 S.3   162  MET162     -0.1393
    149  CE         7.8020  134.7870  364.1640 C.3   162  MET162      0.0692
    150  N          3.4950  139.9270  362.3330 N.am  163  ILE163     -0.1977
    151  CA         2.2670  140.7050  362.5100 C.3   163  ILE163      0.1596
    152  C          1.0800  139.8130  362.9130 C.2   163  ILE163      0.2287
    153  O          0.7890  138.8310  362.2300 O.2   163  ILE163     -0.2864
    154  CB         1.9200  141.5470  361.2450 C.3   163  ILE163      0.0276
    155  CG1        3.0260  142.6000  360.9120 C.3   163  ILE163      0.0022
    156  CG2        0.5260  142.2180  361.3640 C.3   163  ILE163      0.0022
    157  CD1        2.8630  143.3280  359.5580 C.3   163  ILE163      0.0001
    158  N         11.9170  140.9160  364.9200 N.3   173  ILE173     -0.1245
    159  CA        12.5860  139.6930  365.3970 C.3   173  ILE173      0.1561
    160  C         13.9750  139.4710  364.7760 C.2   173  ILE173      0.2260
    161  O         14.4150  140.2380  363.9040 O.2   173  ILE173     -0.2867
    162  CB        11.6580  138.4350  365.2060 C.3   173  ILE173      0.0252
    163  CG1       11.5210  138.0340  363.7020 C.3   173  ILE173      0.0019
    164  CG2       10.2700  138.6690  365.8250 C.3   173  ILE173      0.0019
    165  CD1       11.0400  136.5680  363.4310 C.3   173  ILE173      0.0001
    166  N         11.3680  147.6110  351.6100 N.3   220  MET220     -0.1230
    167  CA        10.0990  146.9890  352.0100 C.3   220  MET220      0.1702
    168  C          8.9030  147.8680  351.5720 C.2   220  MET220      0.2592
    169  O          7.9490  147.3460  350.9800 O.2   220  MET220     -0.2718
    170  CB        10.0480  146.7470  353.5290 C.3   220  MET220      0.0401
    171  CG        11.0530  145.7170  354.0150 C.3   220  MET220      0.0596
    172  SD        10.9140  145.5070  355.8120 S.3   220  MET220     -0.1393
    173  CE         9.2730  144.9360  355.9830 C.3   220  MET220      0.0692
    174  N          8.9700  149.1970  351.8190 N.am  221  LEU221     -0.1980
    175  CA         7.8910  150.1190  351.4180 C.3   221  LEU221      0.1596
    176  C          7.6160  150.0690  349.8890 C.2   221  LEU221      0.2287
    177  O          6.4480  149.9590  349.4770 O.2   221  LEU221     -0.2864
    178  CB         8.1970  151.5570  351.8810 C.3   221  LEU221      0.0297
    179  CG         7.1160  152.6220  351.5200 C.3   221  LEU221      0.0022
    180  CD1        5.7830  152.3620  352.2610 C.3   221  LEU221      0.0001
    181  CD2        7.6050  154.0250  351.8270 C.3   221  LEU221      0.0001
    182  N          8.2260  147.6470  347.7090 N.3   223  SER223     -0.1202
    183  CA         7.6180  146.3710  347.3170 C.3   223  SER223      0.2020
    184  C          6.1360  146.2970  347.6750 C.2   223  SER223      0.2618
    185  O          5.3700  145.7290  346.9090 O.2   223  SER223     -0.2717
    186  CB         8.3870  145.1840  347.8960 C.3   223  SER223      0.2103
    187  OG         8.1360  144.9800  349.2750 O.3   223  SER223     -0.2182
    188  N          5.7370  146.9080  348.8080 N.am  224  MET224     -0.1979
    189  CA         4.3400  146.9290  349.2450 C.3   224  MET224      0.1605
    190  C          3.4730  147.8890  348.4280 C.2   224  MET224      0.2287
    191  O          2.4420  147.4650  347.8850 O.2   224  MET224     -0.2864
    192  CB         4.2850  147.2290  350.7520 C.3   224  MET224      0.0413
    193  CG         2.9440  146.9760  351.4150 C.3   224  MET224      0.0598
    194  SD         2.3400  145.2640  351.5630 S.3   224  MET224     -0.1393
    195  CE         3.5500  144.3480  350.7180 C.3   224  MET224      0.0692
    196  N          7.5610  142.2710  344.2150 N.3   229  GLU229     -0.1245
    197  CA         8.3200  141.5500  345.2260 C.3   229  GLU229      0.1567
    198  C          9.4350  140.6490  344.6620 C.2   229  GLU229      0.2260
    199  O          9.1340  139.6730  343.9750 O.2   229  GLU229     -0.2867
    200  CB         7.3370  140.7160  346.0670 C.3   229  GLU229      0.0388
    201  CG         7.7890  140.4880  347.4870 C.3   229  GLU229      0.1160
    202  CD         7.5300  139.1190  348.0840 C.2   229  GLU229      0.3649
    203  OE1        6.7200  138.3410  347.5270 O.co2 229  GLU229     -0.2457
    204  OE2        8.1090  138.8450  349.1580 O.co2 229  GLU229     -0.2457
@<TRIPOS>BOND
     1   199   198    2
     2   196   197    1
     3   198   197    1
     4   197   200    1
     5   200   201    1
     6   185   184    2
     7   183   184    1
     8   183   182    1
     9   183   186    1
    10   201   202    1
    11   203   202   ar
    12   184   188   am
    13    62    60   ar
    14    62    64   ar
    15    65    64    1
    16   191   190    2
    17   186   187    1
    18   202   204   ar
    19   190   189    1
    20    60    59   ar
    21    64    63   ar
    22   188   189    1
    23   189   192    1
    24    57    56    2
    25   177   176    2
    26    63    61   ar
    27    59    61   ar
    28    59    58    1
    29    56    55    1
    30   176   175    1
    31    58    55    1
    32   195   194    1
    33   192   193    1
    34    69    68    2
    35    55    54    1
    36   169   168    2
    37   193   194    1
    38   175   174    1
    39   175   178    1
    40    81    79    1
    41   179   181    1
    42   179   178    1
    43   179   180    1
    44   168   174   am
    45   168   167    1
    46   166   167    1
    47    54    48   am
    48    66    67    1
    49    68    67    1
    50   167   170    1
    51    70    67    1
    52    70    71    1
    53    48    49    2
    54    48    47    1
    55    38    37    2
    56    79    78    1
    57    44    42   ar
    58    44    45   ar
    59    46    47    1
    60    72    71    1
    61    42    40   ar
    62    80    78    1
    63    37    36    1
    64   115   116    1
    65   115   114    1
    66   170   171    1
    67    71    73    1
    68    47    50    1
    69    78    75    1
    70   116   110    1
    71   171   172    1
    72    45    43   ar
    73   114   111    1
    74    40    39    1
    75    40    41   ar
    76    36    39    1
    77    36    35    1
    78    50    51    1
    79    75    74    1
    80    75    76    1
    81   110   111    1
    82    43    41   ar
    83    51    52    1
    84    51    53    1
    85   111   112    1
    86   172   173    1
    87   100   101    1
    88   100    99    1
    89    76    77    2
    90    99    98    1
    91   117   112   am
    92   117   118    1
    93   121   118    1
    94   121   122    1
    95   112   113    2
    96   123   122   ar
    97   123   125   ar
    98   118   119    1
    99   122   124   ar
   100    98    95    1
   101   125   126   ar
   102   124   126   ar
   103   119   127   am
   104   119   120    2
   105    95    94    1
   106    95    96    1
   107    31    30    2
   108   127   128    1
   109    94    84   am
   110   109   107    1
   111    30    29    1
   112    89    91   ar
   113    89    87   ar
   114    34    32    1
   115    86    87    1
   116    86    83    1
   117   157   155    1
   118   134   132   am
   119    91    92   ar
   120    82    83    1
   121    84    83    1
   122    84    85    2
   123    96    97    2
   124   141   139    1
   125    87    88   ar
   126   138   137    2
   127   132   133    2
   128   132   131    1
   129   139   140    1
   130   139   136    1
   131    32    29    1
   132    32    33    1
   133   128   131    1
   134   128   129    1
   135    27    25   am
   136   135   129   am
   137   135   136    1
   138    29    28    1
   139   107   106    1
   140     4     3    2
   141    10    11    1
   142    10     9    1
   143   108   106    1
   144   155   154    1
   145    11    12    2
   146   129   130    2
   147   136   137    1
   148   106   103    1
   149   137   142   am
   150    92    93    1
   151    92    90   ar
   152   154   156    1
   153   154   151    1
   154    88    90   ar
   155    28    22   am
   156    25    26    2
   157    25    24    1
   158     3     9   am
   159     3     2    1
   160    23    22    2
   161    22    21    1
   162   153   152    2
   163   150   151    1
   164   150   144   am
   165   142   143    1
   166   151   152    1
   167   103   102    1
   168   103   104    1
   169   143   144    1
   170   143   146    1
   171    24    21    1
   172     2     1    1
   173     2     5    1
   174   104   105    2
   175   144   145    2
   176    21    20    1
   177   165   163    1
   178   147   146    1
   179   147   148    1
   180   163   162    1
   181     5     6    1
   182   161   160    2
   183   149   148    1
   184     8     6    1
   185   160   159    1
   186    13    14    1
   187    19    17    1
   188   158   159    1
   189    16    15    2
   190    17    14    1
   191    17    18    1
   192     6     7    1
   193   162   159    1
   194   162   164    1
   195    14    15    1
