@<TRIPOS>MOLECULE
tmp/5otdB01.pdb
 92 91 0 0 0
SMALL
GASTEIGER

@<TRIPOS>ATOM
      1  N         13.8310  143.1020  357.0160 N.3   157  LYS157     -0.1231
      2  CA        13.1820  142.4850  355.8480 C.3   157  LYS157      0.1678
      3  C         11.8210  141.9370  356.2990 C.2   157  LYS157      0.2434
      4  O         11.6200  141.7660  357.5140 O.2   157  LYS157     -0.2733
      5  CB        14.0590  141.3550  355.2390 C.3   157  LYS157      0.0284
      6  CG        14.4650  140.2690  356.1980 C.3   157  LYS157      0.0035
      7  CD        15.1960  139.1810  355.4520 C.3   157  LYS157      0.0206
      8  CE        15.6440  138.1120  356.4110 C.3   157  LYS157      0.1093
      9  NZ        16.2730  136.9770  355.6780 N.3   157  LYS157     -0.1314
     10  N         10.8970  141.6060  355.3520 N.am  158  PRO158     -0.2729
     11  CA         9.5670  141.1080  355.7750 C.3   158  PRO158      0.1401
     12  C          9.6090  139.8260  356.6130 C.2   158  PRO158      0.2269
     13  O          8.7950  139.6990  357.5300 O.2   158  PRO158     -0.2865
     14  CB         8.8200  140.9190  354.4490 C.3   158  PRO158      0.0296
     15  CG         9.4910  141.8870  353.5070 C.3   158  PRO158      0.0237
     16  CD        10.9510  141.7820  353.8870 C.3   158  PRO158      0.0939
     17  N         20.0510  140.6390  353.9020 N.3   193  SER193     -0.1217
     18  CA        19.7230  139.6920  352.8450 C.3   193  SER193      0.1889
     19  C         19.8010  140.4360  351.5030 C.2   193  SER193      0.2288
     20  O         19.4380  141.6100  351.4560 O.2   193  SER193     -0.2866
     21  CB        18.3550  139.0750  353.0900 C.3   193  SER193      0.2089
     22  OG        18.3610  138.4220  354.3510 O.3   193  SER193     -0.2183
     23  N         18.3290  141.2460  348.6150 N.3   195  TYR195     -0.1227
     24  CA        17.4290  142.2600  348.0690 C.3   195  TYR195      0.1736
     25  C         17.3450  143.5580  348.8990 C.2   195  TYR195      0.2595
     26  O         16.8930  144.5870  348.3730 O.2   195  TYR195     -0.2718
     27  CB        16.0110  141.6730  347.8650 C.3   195  TYR195      0.0548
     28  CG        15.9310  140.3360  347.1430 C.ar  195  TYR195     -0.0200
     29  CD1       16.6780  140.0920  345.9850 C.ar  195  TYR195     -0.0009
     30  CD2       15.0210  139.3600  347.5450 C.ar  195  TYR195     -0.0009
     31  CE1       16.5850  138.8730  345.3060 C.ar  195  TYR195      0.0417
     32  CE2       14.9030  138.1500  346.8600 C.ar  195  TYR195      0.0417
     33  CZ        15.6830  137.9120  345.7430 C.ar  195  TYR195      0.1957
     34  OH        15.5460  136.7100  345.0820 O.3   195  TYR195     -0.2866
     35  N         17.7650  143.4870  350.1830 N.am  196  PHE196     -0.1976
     36  CA        17.6510  144.5560  351.1790 C.3   196  PHE196      0.1639
     37  C         18.9920  145.2250  351.5100 C.2   196  PHE196      0.2290
     38  O         19.0270  146.1210  352.3590 O.2   196  PHE196     -0.2864
     39  CB        16.9410  144.0220  352.4490 C.3   196  PHE196      0.0560
     40  CG        15.6090  143.3890  352.1070 C.ar  196  PHE196     -0.0200
     41  CD1       14.4680  144.1780  351.9380 C.ar  196  PHE196     -0.0042
     42  CD2       15.5200  142.0210  351.8360 C.ar  196  PHE196     -0.0042
     43  CE1       13.2650  143.6130  351.5050 C.ar  196  PHE196     -0.0003
     44  CE2       14.3110  141.4540  351.4250 C.ar  196  PHE196     -0.0003
     45  CZ        13.2010  142.2520  351.2600 C.ar  196  PHE196     -0.0000
     46  N         13.1990  149.5910  350.8860 N.3   219  CYS219     -0.1221
     47  CA        13.0000  148.4430  349.9750 C.3   219  CYS219      0.1808
     48  C         11.6780  147.7670  350.3050 C.2   219  CYS219      0.2601
     49  O         10.9740  147.3670  349.3810 O.2   219  CYS219     -0.2717
     50  CB        14.1470  147.4470  350.0880 C.3   219  CYS219      0.0970
     51  SG        15.7430  148.0770  349.4990 S.3   219  CYS219     -0.0800
     52  N         11.3680  147.6110  351.6100 N.am  220  MET220     -0.1979
     53  CA        10.0990  146.9890  352.0100 C.3   220  MET220      0.1605
     54  C          8.9030  147.8680  351.5720 C.2   220  MET220      0.2287
     55  O          7.9490  147.3460  350.9800 O.2   220  MET220     -0.2864
     56  CB        10.0480  146.7470  353.5290 C.3   220  MET220      0.0413
     57  CG        11.0530  145.7170  354.0150 C.3   220  MET220      0.0598
     58  SD        10.9140  145.5070  355.8120 S.3   220  MET220     -0.1393
     59  CE         9.2730  144.9360  355.9830 C.3   220  MET220      0.0692
     60  N          8.2260  147.6470  347.7090 N.3   223  SER223     -0.1217
     61  CA         7.6180  146.3710  347.3170 C.3   223  SER223      0.1889
     62  C          6.1360  146.2970  347.6750 C.2   223  SER223      0.2288
     63  O          5.3700  145.7290  346.9090 O.2   223  SER223     -0.2866
     64  CB         8.3870  145.1840  347.8960 C.3   223  SER223      0.2089
     65  OG         8.1360  144.9800  349.2750 O.3   223  SER223     -0.2183
     66  N          7.5610  142.2710  344.2150 N.3   229  GLU229     -0.1231
     67  CA         8.3200  141.5500  345.2260 C.3   229  GLU229      0.1684
     68  C          9.4350  140.6490  344.6620 C.2   229  GLU229      0.2434
     69  O          9.1340  139.6730  343.9750 O.2   229  GLU229     -0.2733
     70  CB         7.3370  140.7160  346.0670 C.3   229  GLU229      0.0402
     71  CG         7.7890  140.4880  347.4870 C.3   229  GLU229      0.1161
     72  CD         7.5300  139.1190  348.0840 C.2   229  GLU229      0.3649
     73  OE1        6.7200  138.3410  347.5270 O.co2 229  GLU229     -0.2457
     74  OE2        8.1090  138.8450  349.1580 O.co2 229  GLU229     -0.2457
     75  N         10.7280  140.9040  344.9850 N.am  230  PRO230     -0.2718
     76  CA        11.2780  142.0820  345.6860 C.3   230  PRO230      0.1535
     77  C         11.3010  143.2830  344.7380 C.2   230  PRO230      0.2598
     78  O         11.1520  143.1150  343.5110 O.2   230  PRO230     -0.2715
     79  CB        12.7070  141.6340  346.0170 C.3   230  PRO230      0.0310
     80  CG        13.0900  140.7360  344.8680 C.3   230  PRO230      0.0237
     81  CD        11.8040  140.0350  344.4570 C.3   230  PRO230      0.0939
     82  N         11.5400  144.4940  345.2780 N.am  231  PHE231     -0.1974
     83  CA        11.6180  145.6690  344.4000 C.3   231  PHE231      0.1639
     84  C         12.9050  145.6820  343.5500 C.2   231  PHE231      0.2290
     85  O         12.8260  145.8900  342.3330 O.2   231  PHE231     -0.2864
     86  CB        11.4520  146.9770  345.1860 C.3   231  PHE231      0.0560
     87  CG        11.3330  148.1970  344.3170 C.ar  231  PHE231     -0.0200
     88  CD1       10.1500  148.4820  343.6420 C.ar  231  PHE231     -0.0042
     89  CD2       12.4020  149.0780  344.1790 C.ar  231  PHE231     -0.0042
     90  CE1       10.0570  149.6120  342.8020 C.ar  231  PHE231     -0.0003
     91  CE2       12.3030  150.2070  343.3470 C.ar  231  PHE231     -0.0003
     92  CZ        11.1390  150.4620  342.6620 C.ar  231  PHE231     -0.0000
@<TRIPOS>BOND
     1    85    84    2
     2    92    90   ar
     3    92    91   ar
     4    90    88   ar
     5    91    89   ar
     6    78    77    2
     7    84    83    1
     8    88    87   ar
     9    69    68    2
    10    89    87   ar
    11    66    67    1
    12    87    86    1
    13    83    86    1
    14    83    82    1
    15    81    80    1
    16    81    75    1
    17    68    75   am
    18    68    67    1
    19    77    82   am
    20    77    76    1
    21    80    79    1
    22    75    76    1
    23    34    33    1
    24    67    70    1
    25    31    33   ar
    26    31    29   ar
    27    76    79    1
    28    33    32   ar
    29    29    28   ar
    30    70    71    1
    31    32    30   ar
    32    63    62    2
    33    28    30   ar
    34    28    27    1
    35    61    62    1
    36    61    60    1
    37    61    64    1
    38    71    72    1
    39    73    72   ar
    40    27    24    1
    41    64    65    1
    42    24    23    1
    43    24    25    1
    44    72    74   ar
    45    26    25    2
    46    25    35   am
    47    49    48    2
    48    51    50    1
    49    47    50    1
    50    47    48    1
    51    47    46    1
    52    35    36    1
    53    48    52   am
    54    55    54    2
    55    36    37    1
    56    36    39    1
    57    45    44   ar
    58    45    43   ar
    59    44    42   ar
    60    20    19    2
    61    19    18    1
    62    43    41   ar
    63    37    38    2
    64    54    53    1
    65    52    53    1
    66    42    40   ar
    67    41    40   ar
    68    53    56    1
    69    40    39    1
    70    18    21    1
    71    18    17    1
    72    21    22    1
    73    15    16    1
    74    15    14    1
    75    56    57    1
    76    16    10    1
    77    57    58    1
    78    14    11    1
    79     5     2    1
    80     5     6    1
    81    10    11    1
    82    10     3   am
    83     7     6    1
    84     7     8    1
    85     9     8    1
    86    11    12    1
    87    58    59    1
    88     2     3    1
    89     2     1    1
    90     3     4    2
    91    12    13    2
