@<TRIPOS>MOLECULE
tmp/5otlB00.pdb
 202 192 0 0 0
SMALL
GASTEIGER

@<TRIPOS>ATOM
      1  N          7.8850  123.4090  358.5280 N.3    43  LEU43      -0.1231
      2  CA         7.3040  124.5800  357.8640 C.3    43  LEU43       0.1693
      3  C          8.0810  124.9490  356.6060 C.2    43  LEU43       0.2593
      4  O          7.4970  125.3920  355.6190 O.2    43  LEU43      -0.2718
      5  CB         7.2520  125.7950  358.8110 C.3    43  LEU43       0.0284
      6  CG         6.3480  125.6420  360.0310 C.3    43  LEU43       0.0019
      7  CD1        6.5900  126.7430  361.0200 C.3    43  LEU43       0.0001
      8  CD2        4.8780  125.6130  359.6280 C.3    43  LEU43       0.0001
      9  N          9.3930  124.7760  356.6660 N.am   44  GLY44      -0.1942
     10  CA        10.2870  125.0670  355.5510 C.3    44  GLY44       0.2014
     11  C         11.7210  124.7360  355.9010 C.2    44  GLY44       0.2639
     12  O         12.0320  124.4280  357.0490 O.2    44  GLY44      -0.2714
     13  N         12.5990  124.7670  354.8970 N.am   45  ARG45      -0.1963
     14  CA        14.0150  124.4410  355.0290 C.3    45  ARG45       0.1729
     15  C         14.8610  125.5250  354.3840 C.2    45  ARG45       0.2616
     16  O         14.5800  125.9430  353.2580 O.2    45  ARG45      -0.2715
     17  CB        14.3080  123.0840  354.3660 C.3    45  ARG45       0.0348
     18  CG        15.7000  122.5290  354.6470 C.3    45  ARG45       0.0492
     19  CD        15.9450  121.2250  353.9050 C.3    45  ARG45       0.2205
     20  NE        17.3000  120.7150  354.1320 N.pl3  45  ARG45      -0.0865
     21  CZ        17.7740  119.5790  353.6250 C.cat  45  ARG45       0.5346
     22  NH1       17.0080  118.8160  352.8530 N.pl3  45  ARG45       0.1354
     23  NH2       19.0170  119.1960  353.8870 N.pl3  45  ARG45       0.1354
     24  N         15.8840  125.9520  355.1110 N.am   46  GLY46      -0.1955
     25  CA        16.8750  126.9330  354.6970 C.3    46  GLY46       0.1869
     26  C         18.1600  126.2220  354.3210 C.2    46  GLY46       0.2309
     27  O         18.2710  124.9990  354.4930 O.2    46  GLY46      -0.2863
     28  N         12.9240  124.8060  359.8310 N.3    51  VAL51      -0.1245
     29  CA        11.9700  125.5090  360.6890 C.3    51  VAL51       0.1561
     30  C         10.7390  124.6260  360.8860 C.2    51  VAL51       0.2260
     31  O         10.1280  124.1930  359.9100 O.2    51  VAL51      -0.2867
     32  CB        11.6470  126.9000  360.1130 C.3    51  VAL51       0.0252
     33  CG1       10.5570  127.6130  360.8990 C.3    51  VAL51       0.0019
     34  CG2       12.9140  127.7640  360.0540 C.3    51  VAL51       0.0019
     35  N          1.3830  132.1480  359.7070 N.3   116  ASN116     -0.1225
     36  CA         1.7350  132.5120  358.3320 C.3   116  ASN116      0.1785
     37  C          0.6530  132.1640  357.2880 C.2   116  ASN116      0.2597
     38  O          0.3620  130.9800  357.0620 O.2   116  ASN116     -0.2718
     39  CB         3.0900  131.8990  357.9810 C.3   116  ASN116      0.1169
     40  CG         3.5900  132.1760  356.5890 C.2   116  ASN116      0.2627
     41  OD1        4.3420  133.1210  356.3570 O.2   116  ASN116     -0.2716
     42  ND2        3.2740  131.2970  355.6610 N.am  116  ASN116     -0.0877
     43  N          0.0300  133.2100  356.6890 N.am  117  THR117     -0.1953
     44  CA        -0.9840  133.0690  355.6440 C.3   117  THR117      0.1897
     45  C         -0.2340  132.7780  354.3440 C.2   117  THR117      0.2313
     46  O          0.8390  133.3600  354.1130 O.2   117  THR117     -0.2863
     47  CB        -1.8380  134.3690  355.5050 C.3   117  THR117      0.1794
     48  OG1       -2.3450  134.7530  356.7680 O.3   117  THR117     -0.2208
     49  CG2       -3.0450  134.1930  354.5630 C.3   117  THR117      0.0378
     50  N          0.2820  133.4960  350.8300 N.3   119  PHE119     -0.1241
     51  CA        -0.0600  134.6390  349.9980 C.3   119  PHE119      0.1605
     52  C         -0.0990  134.3200  348.5150 C.2   119  PHE119      0.2264
     53  O         -0.6270  135.1290  347.7570 O.2   119  PHE119     -0.2867
     54  CB         0.8570  135.8340  350.3040 C.3   119  PHE119      0.0534
     55  CG         0.2320  136.7300  351.3430 C.ar  119  PHE119     -0.0203
     56  CD1        0.3280  136.4250  352.6960 C.ar  119  PHE119     -0.0042
     57  CD2       -0.5340  137.8270  350.9670 C.ar  119  PHE119     -0.0042
     58  CE1       -0.2930  137.2250  353.6540 C.ar  119  PHE119     -0.0003
     59  CE2       -1.1490  138.6320  351.9300 C.ar  119  PHE119     -0.0003
     60  CZ        -1.0200  138.3290  353.2650 C.ar  119  PHE119     -0.0000
     61  N         -2.4510  136.9970  346.7510 N.3   123  TYR123     -0.1241
     62  CA        -1.6230  137.9240  345.9690 C.3   123  TYR123      0.1605
     63  C         -2.5570  138.7130  345.0370 C.2   123  TYR123      0.2264
     64  O         -2.3520  139.9070  344.8030 O.2   123  TYR123     -0.2867
     65  CB        -0.6340  137.0620  345.1540 C.3   123  TYR123      0.0534
     66  CG         0.3280  137.7590  344.2180 C.ar  123  TYR123     -0.0201
     67  CD1        1.5290  138.2830  344.6880 C.ar  123  TYR123     -0.0009
     68  CD2        0.1330  137.7240  342.8380 C.ar  123  TYR123     -0.0009
     69  CE1        2.4660  138.8440  343.8190 C.ar  123  TYR123      0.0417
     70  CE2        1.0620  138.2830  341.9590 C.ar  123  TYR123      0.0417
     71  CZ         2.2280  138.8420  342.4540 C.ar  123  TYR123      0.1957
     72  OH         3.1560  139.3730  341.5920 O.3   123  TYR123     -0.2866
     73  N         -5.0770  141.3760  347.1850 N.3   126  LEU126     -0.1245
     74  CA        -4.4500  142.5480  347.8010 C.3   126  LEU126      0.1561
     75  C         -4.8970  143.8500  347.1840 C.2   126  LEU126      0.2260
     76  O         -5.1760  143.9370  345.9730 O.2   126  LEU126     -0.2867
     77  CB        -2.9140  142.4740  347.8140 C.3   126  LEU126      0.0270
     78  CG        -2.2930  141.4540  348.7620 C.3   126  LEU126      0.0019
     79  CD1       -0.8950  141.1360  348.3630 C.3   126  LEU126      0.0001
     80  CD2       -2.3750  141.8860  350.2210 C.3   126  LEU126      0.0001
     81  N         -0.8890  146.9050  350.6220 N.3   131  ILE131     -0.1245
     82  CA         0.5570  147.0660  350.3370 C.3   131  ILE131      0.1561
     83  C          1.1160  148.2280  351.1550 C.2   131  ILE131      0.2260
     84  O          2.1620  148.0670  351.7660 O.2   131  ILE131     -0.2867
     85  CB         0.8180  147.2300  348.8260 C.3   131  ILE131      0.0252
     86  CG1        0.1310  146.0600  348.0810 C.3   131  ILE131      0.0019
     87  CG2        2.3570  147.2600  348.5460 C.3   131  ILE131      0.0019
     88  CD1       -0.0010  146.2900  346.5970 C.3   131  ILE131      0.0001
     89  N          1.2770  146.9820  354.9640 N.3   134  TYR134     -0.1227
     90  CA         2.3460  146.0130  355.2710 C.3   134  TYR134      0.1736
     91  C          3.7330  146.5950  355.0400 C.2   134  TYR134      0.2595
     92  O          4.6670  146.2960  355.8040 O.2   134  TYR134     -0.2718
     93  CB         2.1510  144.6960  354.5580 C.3   134  TYR134      0.0548
     94  CG         1.0010  143.8960  355.1390 C.ar  134  TYR134     -0.0200
     95  CD1        0.9900  143.5350  356.4870 C.ar  134  TYR134     -0.0009
     96  CD2       -0.0940  143.5330  354.3560 C.ar  134  TYR134     -0.0009
     97  CE1       -0.0810  142.8320  357.0400 C.ar  134  TYR134      0.0417
     98  CE2       -1.1410  142.7750  354.8830 C.ar  134  TYR134      0.0417
     99  CZ        -1.1270  142.4220  356.2280 C.ar  134  TYR134      0.1957
    100  OH        -2.1470  141.6840  356.7840 O.3   134  TYR134     -0.2866
    101  N          3.8720  147.4450  354.0010 N.am  135  MET135     -0.1979
    102  CA         5.1520  148.1620  353.7800 C.3   135  MET135      0.1605
    103  C          5.5170  149.0260  355.0350 C.2   135  MET135      0.2287
    104  O          6.6780  149.0290  355.4700 O.2   135  MET135     -0.2864
    105  CB         5.0580  149.0390  352.5480 C.3   135  MET135      0.0413
    106  CG         5.1660  148.2900  351.2510 C.3   135  MET135      0.0598
    107  SD         6.8820  147.6540  350.9860 S.3   135  MET135     -0.1393
    108  CE         7.6850  149.0810  350.8900 C.3   135  MET135      0.0692
    109  N          6.8400  146.8030  357.7910 N.3   138  ILE138     -0.1245
    110  CA         8.2370  146.3830  357.5780 C.3   138  ILE138      0.1561
    111  C          9.1520  147.5560  357.9590 C.2   138  ILE138      0.2260
    112  O         10.2390  147.3470  358.5190 O.2   138  ILE138     -0.2867
    113  CB         8.4920  145.9550  356.0920 C.3   138  ILE138      0.0252
    114  CG1        7.5920  144.6820  355.7710 C.3   138  ILE138      0.0019
    115  CG2        9.9990  145.6190  355.8780 C.3   138  ILE138      0.0019
    116  CD1        7.6160  144.3670  354.2240 C.3   138  ILE138      0.0001
    117  N         10.6690  138.7050  350.4720 N.3   157  PRO157     -0.2102
    118  CA         9.3490  138.1790  350.8860 C.3   157  PRO157      0.1504
    119  C          9.4490  136.9250  351.7460 C.2   157  PRO157      0.2575
    120  O          8.6500  136.7770  352.6690 O.2   157  PRO157     -0.2718
    121  CB         8.6610  137.8920  349.5460 C.3   157  PRO157      0.0282
    122  CG         9.2350  138.9270  348.6530 C.3   157  PRO157      0.0208
    123  CD        10.7060  138.9110  349.0080 C.3   157  PRO157      0.0893
    124  N         10.4040  136.0150  351.4480 N.am  158  HIS158     -0.1976
    125  CA        10.5510  134.7620  352.1880 C.3   158  HIS158      0.1656
    126  C         10.8410  135.0330  353.6750 C.2   158  HIS158      0.2291
    127  O         10.5480  134.2080  354.5070 O.2   158  HIS158     -0.2864
    128  CB        11.6700  133.8990  351.5950 C.3   158  HIS158      0.0771
    129  CG        11.8060  132.5360  352.2070 C.ar  158  HIS158      0.0820
    130  ND1       10.8090  131.5840  352.0780 N.ar  158  HIS158     -0.2267
    131  CD2       12.8280  132.0050  352.9190 C.ar  158  HIS158      0.1154
    132  CE1       11.2520  130.5060  352.7070 C.ar  158  HIS158      0.1986
    133  NE2       12.4620  130.7090  353.2330 N.ar  158  HIS158     -0.2212
    134  N          9.6300  137.5910  355.4380 N.3   160  VAL160     -0.1231
    135  CA         8.5460  138.3550  356.0310 C.3   160  VAL160      0.1692
    136  C          7.3300  137.4400  356.1980 C.2   160  VAL160      0.2592
    137  O          6.7600  137.0420  355.1920 O.2   160  VAL160     -0.2718
    138  CB         8.1800  139.6220  355.2660 C.3   160  VAL160      0.0266
    139  CG1        7.0450  140.3420  355.9660 C.3   160  VAL160      0.0020
    140  CG2        9.3940  140.5460  355.1150 C.3   160  VAL160      0.0020
    141  N          6.9440  137.1670  357.4640 N.am  161  MET161     -0.1965
    142  CA         5.7770  136.3400  357.7180 C.3   161  MET161      0.1736
    143  C          4.5910  137.2320  358.0200 C.2   161  MET161      0.2616
    144  O          4.7050  138.1670  358.8300 O.2   161  MET161     -0.2715
    145  CB         6.0360  135.3490  358.8510 C.3   161  MET161      0.0427
    146  CG         6.9190  134.1830  358.4200 C.3   161  MET161      0.0599
    147  SD         7.2210  133.0690  359.8180 S.3   161  MET161     -0.1393
    148  CE         7.8050  131.5820  358.9070 C.3   161  MET161      0.0692
    149  N          3.4370  136.9240  357.4020 N.am  162  ILE162     -0.1977
    150  CA         2.2450  137.7280  357.5970 C.3   162  ILE162      0.1596
    151  C          1.0650  136.8430  357.9840 C.2   162  ILE162      0.2287
    152  O          0.8140  135.8360  357.3320 O.2   162  ILE162     -0.2864
    153  CB         1.9000  138.5690  356.3350 C.3   162  ILE162      0.0276
    154  CG1        3.0180  139.5880  355.9880 C.3   162  ILE162      0.0022
    155  CG2        0.5260  139.2640  356.4620 C.3   162  ILE162      0.0022
    156  CD1        2.8350  140.3120  354.6510 C.3   162  ILE162      0.0001
    157  N          2.5550  141.2490  361.0860 N.3   169  LEU169     -0.1245
    158  CA         3.7230  141.0210  360.2570 C.3   169  LEU169      0.1561
    159  C          4.9960  140.8580  361.1210 C.2   169  LEU169      0.2260
    160  O          5.1670  141.5680  362.1260 O.2   169  LEU169     -0.2867
    161  CB         3.8500  142.1730  359.2290 C.3   169  LEU169      0.0270
    162  CG         5.0100  142.1780  358.2700 C.3   169  LEU169      0.0019
    163  CD1        4.6260  142.8740  356.9520 C.3   169  LEU169      0.0001
    164  CD2        6.2410  142.8060  358.8880 C.3   169  LEU169      0.0001
    165  N         11.7500  138.0160  359.8760 N.3   172  ILE172     -0.1245
    166  CA        12.4050  136.8000  360.3890 C.3   172  ILE172      0.1561
    167  C         13.7790  136.5770  359.7650 C.2   172  ILE172      0.2260
    168  O         14.2330  137.3270  358.8790 O.2   172  ILE172     -0.2867
    169  CB        11.4800  135.5470  360.2040 C.3   172  ILE172      0.0252
    170  CG1       11.4390  135.1480  358.6930 C.3   172  ILE172      0.0019
    171  CG2       10.0560  135.7910  360.7290 C.3   172  ILE172      0.0019
    172  CD1       10.9320  133.6770  358.4010 C.3   172  ILE172      0.0001
    173  N         11.1930  144.6060  346.7980 N.3   219  MET219     -0.1230
    174  CA         9.9180  143.9710  347.2040 C.3   219  MET219      0.1702
    175  C          8.7600  144.8350  346.7500 C.2   219  MET219      0.2592
    176  O          7.7950  144.2990  346.1850 O.2   219  MET219     -0.2718
    177  CB         9.8610  143.7680  348.7280 C.3   219  MET219      0.0401
    178  CG        10.7220  142.6210  349.1720 C.3   219  MET219      0.0596
    179  SD        10.6770  142.5260  350.9930 S.3   219  MET219     -0.1393
    180  CE         8.9740  142.1900  351.2720 C.3   219  MET219      0.0692
    181  N          8.8380  146.1500  346.9990 N.am  220  LEU220     -0.1980
    182  CA         7.7540  147.0810  346.6310 C.3   220  LEU220      0.1596
    183  C          7.4900  147.0090  345.1140 C.2   220  LEU220      0.2287
    184  O          6.3390  146.8600  344.6950 O.2   220  LEU220     -0.2864
    185  CB         8.0880  148.5200  347.0480 C.3   220  LEU220      0.0297
    186  CG         6.9830  149.5600  346.7050 C.3   220  LEU220      0.0022
    187  CD1        5.6730  149.2800  347.4700 C.3   220  LEU220      0.0001
    188  CD2        7.4820  150.9550  346.9680 C.3   220  LEU220      0.0001
    189  N          8.1890  144.5820  342.9510 N.3   222  SER222     -0.1202
    190  CA         7.5960  143.2950  342.5410 C.3   222  SER222      0.2020
    191  C          6.1110  143.1590  342.8690 C.2   222  SER222      0.2618
    192  O          5.4120  142.3880  342.2210 O.2   222  SER222     -0.2717
    193  CB         8.3600  142.1350  343.1530 C.3   222  SER222      0.2103
    194  OG         8.1520  142.0710  344.5590 O.3   222  SER222     -0.2182
    195  N          5.6640  143.8330  343.9370 N.am  223  MET223     -0.1979
    196  CA         4.2850  143.7800  344.3780 C.3   223  MET223      0.1605
    197  C          3.4120  144.7340  343.5780 C.2   223  MET223      0.2287
    198  O          2.4680  144.2860  342.9170 O.2   223  MET223     -0.2864
    199  CB         4.1940  144.0310  345.8940 C.3   223  MET223      0.0413
    200  CG         2.7930  143.9710  346.4380 C.3   223  MET223      0.0598
    201  SD         2.1180  142.2860  346.6270 S.3   223  MET223     -0.1393
    202  CE         1.1580  142.1370  345.0260 C.3   223  MET223      0.0692
@<TRIPOS>BOND
     1    72    71    1
     2    70    71   ar
     3    70    68   ar
     4   192   191    2
     5    71    69   ar
     6   190   191    1
     7   190   189    1
     8   190   193    1
     9    68    66   ar
    10   191   195   am
    11   198   197    2
    12   193   194    1
    13   197   196    1
    14    69    67   ar
    15   195   196    1
    16    66    67   ar
    17    66    65    1
    18   196   199    1
    19   184   183    2
    20    64    63    2
    21   202   201    1
    22    63    62    1
    23   183   182    1
    24    65    62    1
    25   199   200    1
    26    62    61    1
    27    76    75    2
    28   176   175    2
    29   200   201    1
    30    88    86    1
    31   182   181    1
    32   182   185    1
    33   186   188    1
    34   186   185    1
    35   186   187    1
    36   175   181   am
    37   175   174    1
    38   173   174    1
    39    75    74    1
    40    73    74    1
    41   174   177    1
    42    53    52    2
    43    74    77    1
    44    77    78    1
    45    86    85    1
    46    79    78    1
    47    52    51    1
    48    87    85    1
    49   122   123    1
    50   122   121    1
    51   177   178    1
    52    78    80    1
    53    85    82    1
    54   123   117    1
    55   178   179    1
    56   121   118    1
    57    51    54    1
    58    51    50    1
    59    54    55    1
    60    82    81    1
    61    82    83    1
    62   117   118    1
    63   118   119    1
    64   108   107    1
    65    57    55   ar
    66    57    59   ar
    67   107   106    1
    68   179   180    1
    69    83    84    2
    70   106   105    1
    71    55    56   ar
    72   124   119   am
    73   124   125    1
    74   128   125    1
    75   128   129    1
    76   119   120    2
    77    59    60   ar
    78   130   129   ar
    79   130   132   ar
    80   125   126    1
    81   129   131   ar
    82   105   102    1
    83    56    58   ar
    84   132   133   ar
    85    22    21    1
    86   131   133   ar
    87    16    15    2
    88    60    58   ar
    89    21    23    1
    90    21    20    2
    91   126   127    2
    92   102   101    1
    93   102   103    1
    94    19    20    1
    95    19    18    1
    96   101    91   am
    97    46    45    2
    98   116   114    1
    99    26    27    2
   100    26    25    1
   101    45    44    1
   102    96    98   ar
   103    96    94   ar
   104    17    18    1
   105    17    14    1
   106    15    14    1
   107    15    24   am
   108    93    94    1
   109    93    90    1
   110    49    47    1
   111   156   154    1
   112    25    24    1
   113    98    99   ar
   114    13    14    1
   115    13    11   am
   116    89    90    1
   117   103   104    2
   118    91    90    1
   119    91    92    2
   120   140   138    1
   121    94    95   ar
   122   137   136    2
   123   138   139    1
   124   138   135    1
   125   134   135    1
   126    47    44    1
   127    47    48    1
   128    10    11    1
   129    10     9    1
   130     4     3    2
   131    44    43    1
   132    42    40   am
   133   114   113    1
   134   115   113    1
   135    11    12    2
   136   154   153    1
   137   135   136    1
   138   113   110    1
   139   136   141   am
   140    99   100    1
   141    99    97   ar
   142   153   155    1
   143   153   150    1
   144    41    40    2
   145    95    97   ar
   146    40    39    1
   147     3     9   am
   148     3     2    1
   149    43    37   am
   150   163   162    1
   151    38    37    2
   152    37    36    1
   153   152   151    2
   154   149   150    1
   155   149   143   am
   156   141   142    1
   157   110   109    1
   158   110   111    1
   159   150   151    1
   160   142   143    1
   161   142   145    1
   162     2     1    1
   163     2     5    1
   164   111   112    2
   165    39    36    1
   166   143   144    2
   167   162   164    1
   168   162   161    1
   169    36    35    1
   170   172   170    1
   171   146   145    1
   172   146   147    1
   173   170   169    1
   174     5     6    1
   175   168   167    2
   176   148   147    1
   177   161   158    1
   178     8     6    1
   179   167   166    1
   180    28    29    1
   181   165   166    1
   182    31    30    2
   183     6     7    1
   184    34    32    1
   185    32    29    1
   186    32    33    1
   187   169   166    1
   188   169   171    1
   189   158   157    1
   190   158   159    1
   191    29    30    1
   192   159   160    2
