@<TRIPOS>MOLECULE
tmp/5otmB00.pdb
 195 188 0 0 0
SMALL
GASTEIGER

@<TRIPOS>ATOM
      1  N         34.8080    4.4870  -12.6810 N.3     8  TYR8       -0.1227
      2  CA        34.7360    5.8480  -12.1680 C.3     8  TYR8        0.1736
      3  C         34.1140    5.8610  -10.7670 C.2     8  TYR8        0.2596
      4  O         33.4970    4.8860  -10.3310 O.2     8  TYR8       -0.2718
      5  CB        33.8750    6.7150  -13.0580 C.3     8  TYR8        0.0548
      6  CG        34.4100    6.9570  -14.4420 C.ar    8  TYR8       -0.0200
      7  CD1       34.2460    6.0050  -15.4500 C.ar    8  TYR8       -0.0009
      8  CD2       35.0390    8.1580  -14.7710 C.ar    8  TYR8       -0.0009
      9  CE1       34.7150    6.2270  -16.7450 C.ar    8  TYR8        0.0417
     10  CE2       35.4860    8.4020  -16.0720 C.ar    8  TYR8        0.0417
     11  CZ        35.3360    7.4320  -17.0430 C.ar    8  TYR8        0.1957
     12  OH        35.7940    7.6730  -18.3180 O.3     8  TYR8       -0.2866
     13  N         34.2600    7.0040  -10.1000 N.am    9  THR9       -0.1939
     14  CA        33.7310    7.2320   -8.7580 C.3     9  THR9        0.2028
     15  C         32.8670    8.4930   -8.7420 C.2     9  THR9        0.2642
     16  O         33.0580    9.4260   -9.5450 O.2     9  THR9       -0.2714
     17  CB        34.8440    7.3820   -7.7110 C.3     9  THR9        0.1808
     18  OG1       35.6760    8.5100   -8.0330 O.3     9  THR9       -0.2208
     19  CG2       35.6960    6.1130   -7.6250 C.3     9  THR9        0.0379
     20  N         31.8870    8.4890   -7.8460 N.am   10  LEU10      -0.1977
     21  CA        31.0340    9.6400   -7.6090 C.3    10  LEU10       0.1596
     22  C         30.7280    9.7010   -6.1180 C.2    10  LEU10       0.2287
     23  O         30.2670    8.7180   -5.5510 O.2    10  LEU10      -0.2864
     24  CB        29.7510    9.5350   -8.4240 C.3    10  LEU10       0.0297
     25  CG        28.8370   10.7560   -8.4790 C.3    10  LEU10       0.0022
     26  CD1       29.5160   11.9310   -9.1740 C.3    10  LEU10       0.0001
     27  CD2       27.5300   10.4100   -9.1880 C.3    10  LEU10       0.0001
     28  N         31.1440   21.7090  -12.2330 N.3    24  LYS24      -0.1245
     29  CA        32.2760   21.2550  -13.0310 C.3    24  LYS24       0.1561
     30  C         32.7440   22.3840  -13.9550 C.2    24  LYS24       0.2260
     31  O         31.9620   22.9400  -14.7400 O.2    24  LYS24      -0.2867
     32  CB        31.9050   19.9950  -13.8240 C.3    24  LYS24       0.0271
     33  CG        33.0800   19.2830  -14.4850 C.3    24  LYS24       0.0035
     34  CD        33.9070   18.5010  -13.4690 C.3    24  LYS24       0.0206
     35  CE        35.2390   18.0130  -14.0320 C.3    24  LYS24       0.1093
     36  NZ        35.1430   17.1800  -15.2710 N.3    24  LYS24      -0.1314
     37  N         34.7060   16.6860  -18.8660 N.3    28  PHE28      -0.1241
     38  CA        33.4580   15.9410  -18.9580 C.3    28  PHE28       0.1605
     39  C         32.4310   16.5340  -18.0030 C.2    28  PHE28       0.2264
     40  O         32.7010   16.6950  -16.8130 O.2    28  PHE28      -0.2867
     41  CB        33.7160   14.4650  -18.6250 C.3    28  PHE28       0.0534
     42  CG        32.5200   13.5800  -18.8120 C.ar   28  PHE28      -0.0203
     43  CD1       32.1970   13.0860  -20.0710 C.ar   28  PHE28      -0.0042
     44  CD2       31.7150   13.2460  -17.7320 C.ar   28  PHE28      -0.0042
     45  CE1       31.0830   12.2750  -20.2500 C.ar   28  PHE28      -0.0003
     46  CE2       30.6030   12.4370  -17.9050 C.ar   28  PHE28      -0.0003
     47  CZ        30.2900   11.9470  -19.1690 C.ar   28  PHE28      -0.0000
     48  N         27.4590   18.2490   -9.9750 N.3    34  ASN34      -0.1225
     49  CA        27.5390   16.8010   -9.7820 C.3    34  ASN34       0.1785
     50  C         28.2000   16.5010   -8.4340 C.2    34  ASN34       0.2597
     51  O         28.7360   17.4020   -7.7650 O.2    34  ASN34      -0.2718
     52  CB        28.3330   16.1610  -10.9370 C.3    34  ASN34       0.1169
     53  CG        27.9840   14.6990  -11.1780 C.2    34  ASN34       0.2627
     54  OD1       27.1980   14.0970  -10.4530 O.2    34  ASN34      -0.2716
     55  ND2       28.5770   14.1230  -12.2120 N.am   34  ASN34      -0.0877
     56  N         28.1740   15.2310   -8.0290 N.am   35  GLY35      -0.1957
     57  CA        29.0680   14.7650   -6.9800 C.3    35  GLY35       0.1869
     58  C         30.5300   14.8500   -7.4540 C.2    35  GLY35       0.2309
     59  O         30.8100   15.1240   -8.6330 O.2    35  GLY35      -0.2863
     60  N         34.3460   13.2250   -8.1100 N.3    37  GLY37      -0.1210
     61  CA        34.9210   11.9640   -8.5390 C.3    37  GLY37       0.1956
     62  C         35.7190   12.0230   -9.8160 C.2    37  GLY37       0.2612
     63  O         36.1540   13.0940  -10.2590 O.2    37  GLY37      -0.2717
     64  N         35.9390   10.8450  -10.3840 N.am   38  GLY38      -0.1942
     65  CA        36.7200   10.7290  -11.5960 C.3    38  GLY38       0.2014
     66  C         37.0630    9.2960  -11.9040 C.2    38  GLY38       0.2638
     67  O         36.4420    8.3670  -11.3730 O.2    38  GLY38      -0.2714
     68  N         38.0610    9.1330  -12.7570 N.am   39  LYS39      -0.1977
     69  CA        38.5570    7.8090  -13.1310 C.3    39  LYS39       0.1596
     70  C         39.2890    7.1790  -11.9640 C.2    39  LYS39       0.2287
     71  O         39.8450    7.8830  -11.1250 O.2    39  LYS39      -0.2864
     72  CB        39.4860    7.8980  -14.3300 C.3    39  LYS39       0.0298
     73  CG        38.7870    8.3470  -15.6050 C.3    39  LYS39       0.0038
     74  CD        39.8160    8.7440  -16.6500 C.3    39  LYS39       0.0206
     75  CE        39.1810    9.1120  -17.9860 C.3    39  LYS39       0.1093
     76  NZ        40.2560    9.3860  -18.9850 N.3    39  LYS39      -0.1314
     77  N         39.7780   11.7500   -5.2240 N.3    53  GLU53      -0.1245
     78  CA        39.1130   12.7590   -6.0580 C.3    53  GLU53       0.1567
     79  C         38.3530   13.7980   -5.2310 C.2    53  GLU53       0.2260
     80  O         38.3250   14.9780   -5.5870 O.2    53  GLU53      -0.2867
     81  CB        38.2020   12.1100   -7.0960 C.3    53  GLU53       0.0388
     82  CG        38.9180   11.5060   -8.2940 C.3    53  GLU53       0.1160
     83  CD        39.4460   12.5320   -9.2760 C.2    53  GLU53       0.3649
     84  OE1       39.3650   13.7540   -9.0080 O.co2  53  GLU53      -0.2457
     85  OE2       39.9710   12.1150  -10.3340 O.co2  53  GLU53      -0.2457
     86  N         39.3060   17.6690   -5.6280 N.3    57  GLU57      -0.1245
     87  CA        38.2750   18.5630   -6.1620 C.3    57  GLU57       0.1567
     88  C         37.6520   19.5340   -5.1500 C.2    57  GLU57       0.2260
     89  O         37.1450   20.5750   -5.5470 O.2    57  GLU57      -0.2867
     90  CB        37.1960   17.7370   -6.8350 C.3    57  GLU57       0.0388
     91  CG        37.7140   16.9860   -8.0580 C.3    57  GLU57       0.1160
     92  CD        36.6030   16.4060   -8.9070 C.2    57  GLU57       0.3649
     93  OE1       35.5440   16.0630   -8.3380 O.co2  57  GLU57      -0.2457
     94  OE2       36.7920   16.2910  -10.1450 O.co2  57  GLU57      -0.2457
     95  N         26.7810    3.8560  -17.3400 N.3    73  PHE73      -0.1241
     96  CA        26.3860    4.7790  -18.4040 C.3    73  PHE73       0.1605
     97  C         26.9000    4.2800  -19.7400 C.2    73  PHE73       0.2264
     98  O         28.0760    3.9520  -19.8730 O.2    73  PHE73      -0.2867
     99  CB        26.9370    6.1680  -18.1290 C.3    73  PHE73       0.0534
    100  CG        26.3630    6.7990  -16.9050 C.ar   73  PHE73      -0.0203
    101  CD1       25.0670    7.2910  -16.9160 C.ar   73  PHE73      -0.0042
    102  CD2       27.1030    6.9080  -15.7480 C.ar   73  PHE73      -0.0042
    103  CE1       24.5240    7.8760  -15.7950 C.ar   73  PHE73      -0.0003
    104  CE2       26.5700    7.4980  -14.6150 C.ar   73  PHE73      -0.0003
    105  CZ        25.2770    7.9780  -14.6350 C.ar   73  PHE73      -0.0000
    106  N         27.0440    5.5970  -23.6710 N.3    75  PHE75      -0.1241
    107  CA        26.8440    6.6760  -24.6170 C.3    75  PHE75       0.1605
    108  C         26.8710    6.0700  -26.0110 C.2    75  PHE75       0.2264
    109  O         27.7790    5.3040  -26.3420 O.2    75  PHE75      -0.2867
    110  CB        27.9150    7.7520  -24.4450 C.3    75  PHE75       0.0534
    111  CG        27.7260    8.6000  -23.2170 C.ar   75  PHE75      -0.0203
    112  CD1       28.2820    8.2260  -21.9950 C.ar   75  PHE75      -0.0042
    113  CD2       26.9790    9.7710  -23.2800 C.ar   75  PHE75      -0.0042
    114  CE1       28.1030    9.0150  -20.8640 C.ar   75  PHE75      -0.0003
    115  CE2       26.7930   10.5600  -22.1550 C.ar   75  PHE75      -0.0003
    116  CZ        27.3530   10.1770  -20.9470 C.ar   75  PHE75      -0.0000
    117  N         30.8600    3.5730  -18.9040 N.3    82  MET82      -0.1245
    118  CA        31.3420    4.1830  -17.6590 C.3    82  MET82       0.1570
    119  C         30.6960    3.4490  -16.5030 C.2    82  MET82       0.2261
    120  O         29.4810    3.4980  -16.3660 O.2    82  MET82      -0.2867
    121  CB        30.9910    5.6730  -17.6090 C.3    82  MET82       0.0387
    122  CG        31.4600    6.4410  -18.8380 C.3    82  MET82       0.0595
    123  SD        31.0270    8.1780  -18.7050 S.3    82  MET82      -0.1393
    124  CE        32.3160    8.7570  -17.6390 C.3    82  MET82       0.0692
    125  N         30.2610    3.4700  -12.8690 N.3    84  VAL84      -0.1245
    126  CA        30.3820    4.5100  -11.8500 C.3    84  VAL84       0.1561
    127  C         29.9820    3.9780  -10.4850 C.2    84  VAL84       0.2260
    128  O         28.8120    3.6500  -10.2740 O.2    84  VAL84      -0.2867
    129  CB        29.5050    5.7400  -12.1790 C.3    84  VAL84       0.0252
    130  CG1       29.6660    6.8300  -11.1070 C.3    84  VAL84       0.0019
    131  CG2       29.8480    6.2790  -13.5610 C.3    84  VAL84       0.0019
    132  N         39.1100   21.7890  -11.0210 N.3   101  GLU101     -0.1245
    133  CA        38.0190   21.0450  -11.6560 C.3   101  GLU101      0.1567
    134  C         36.6230   21.4340  -11.1670 C.2   101  GLU101      0.2260
    135  O         35.6660   21.3210  -11.9390 O.2   101  GLU101     -0.2867
    136  CB        38.2070   19.5260  -11.4750 C.3   101  GLU101      0.0388
    137  CG        39.1400   18.8780  -12.4930 C.3   101  GLU101      0.1160
    138  CD        39.1940   17.3660  -12.3230 C.2   101  GLU101      0.3649
    139  OE1       39.8550   16.9230  -11.3570 O.co2 101  GLU101     -0.2457
    140  OE2       38.5710   16.6180  -13.1340 O.co2 101  GLU101     -0.2457
    141  N         23.2970   16.4740  -14.5710 N.3   118  TRP118     -0.1241
    142  CA        23.0380   15.4060  -15.5440 C.3   118  TRP118      0.1605
    143  C         21.5870   14.8950  -15.3730 C.2   118  TRP118      0.2264
    144  O         21.1180   14.7330  -14.2400 O.2   118  TRP118     -0.2867
    145  CB        24.0240   14.2510  -15.3930 C.3   118  TRP118      0.0550
    146  CG        25.4230   14.4970  -15.9380 C.ar  118  TRP118      0.0003
    147  CD1       26.5160   14.9870  -15.2540 C.ar  118  TRP118      0.0946
    148  CD2       25.8760   14.2370  -17.2680 C.ar  118  TRP118      0.0152
    149  NE1       27.6060   15.0550  -16.0870 N.ar  118  TRP118     -0.2442
    150  CE2       27.2430   14.6030  -17.3280 C.ar  118  TRP118      0.0810
    151  CE3       25.2590   13.7490  -18.4220 C.ar  118  TRP118      0.0012
    152  CZ2       28.0040   14.4630  -18.4930 C.ar  118  TRP118      0.0191
    153  CZ3       26.0190   13.6320  -19.5930 C.ar  118  TRP118      0.0001
    154  CH2       27.3740   13.9790  -19.6110 C.ar  118  TRP118      0.0015
    155  N         20.1100   12.0700  -15.5180 N.3   120  ASP120     -0.1225
    156  CA        19.8980   10.8340  -14.7450 C.3   120  ASP120      0.1805
    157  C         19.6750   11.0680  -13.2490 C.2   120  ASP120      0.2597
    158  O         18.9970   10.2760  -12.5860 O.2   120  ASP120     -0.2718
    159  CB        21.0180    9.8070  -14.9610 C.3   120  ASP120      0.1424
    160  CG        22.3680   10.3070  -14.5140 C.2   120  ASP120      0.3668
    161  OD1       22.9080   11.1960  -15.1990 O.co2 120  ASP120     -0.2456
    162  OD2       22.8750    9.7750  -13.5020 O.co2 120  ASP120     -0.2456
    163  N         20.2030   12.1620  -12.7280 N.am  121  ASP121     -0.1974
    164  CA        20.1710   12.4310  -11.2770 C.3   121  ASP121      0.1709
    165  C         18.7750   12.4590  -10.6570 C.2   121  ASP121      0.2293
    166  O         18.5880   11.9690   -9.5510 O.2   121  ASP121     -0.2864
    167  CB        20.8960   13.7500  -10.9720 C.3   121  ASP121      0.1436
    168  CG        22.3940   13.6690  -11.2510 C.2   121  ASP121      0.3671
    169  OD1       22.8530   12.6550  -11.8070 O.co2 121  ASP121     -0.2456
    170  OD2       23.1140   14.6130  -10.9270 O.co2 121  ASP121     -0.2456
    171  N         17.5730    8.7840   -9.6660 N.3   124  TRP124     -0.1241
    172  CA        18.1670    8.0190   -8.5460 C.3   124  TRP124      0.1605
    173  C         18.3530    8.7770   -7.2280 C.2   124  TRP124      0.2264
    174  O         18.4950    8.1600   -6.1650 O.2   124  TRP124     -0.2867
    175  CB        19.4820    7.3200   -8.9620 C.3   124  TRP124      0.0550
    176  CG        20.5920    8.1960   -9.4180 C.ar  124  TRP124      0.0003
    177  CD1       20.9110    8.4980  -10.7190 C.ar  124  TRP124      0.0946
    178  CD2       21.5680    8.8510   -8.6060 C.ar  124  TRP124      0.0152
    179  NE1       22.0060    9.3170  -10.7660 N.ar  124  TRP124     -0.2442
    180  CE2       22.4400    9.5480   -9.4840 C.ar  124  TRP124      0.0810
    181  CE3       21.8030    8.9190   -7.2200 C.ar  124  TRP124      0.0012
    182  CZ2       23.5210   10.3060   -9.0190 C.ar  124  TRP124      0.0191
    183  CZ3       22.8810    9.6780   -6.7620 C.ar  124  TRP124      0.0001
    184  CH2       23.7200   10.3660   -7.6590 C.ar  124  TRP124      0.0015
    185  N         22.5930    6.9550  -22.9300 N.3   140  PHE140     -0.1241
    186  CA        22.5550    8.3440  -23.3850 C.3   140  PHE140      0.1605
    187  C         22.8220    8.4340  -24.8730 C.2   140  PHE140      0.2264
    188  O         23.6800    7.7240  -25.4040 O.2   140  PHE140     -0.2867
    189  CB        23.6170    9.1910  -22.6670 C.3   140  PHE140      0.0534
    190  CG        23.1780    9.7380  -21.3450 C.ar  140  PHE140     -0.0203
    191  CD1       23.0680    8.9070  -20.2430 C.ar  140  PHE140     -0.0042
    192  CD2       22.8950   11.0920  -21.1930 C.ar  140  PHE140     -0.0042
    193  CE1       22.6820    9.4080  -19.0070 C.ar  140  PHE140     -0.0003
    194  CE2       22.5150   11.6060  -19.9640 C.ar  140  PHE140     -0.0003
    195  CZ        22.4020   10.7640  -18.8650 C.ar  140  PHE140     -0.0000
@<TRIPOS>BOND
     1   109   108    2
     2   108   107    1
     3   188   187    2
     4   187   186    1
     5   107   110    1
     6   107   106    1
     7   110   111    1
     8   186   185    1
     9   186   189    1
    10   113   111   ar
    11   113   115   ar
    12   111   112   ar
    13   189   190    1
    14   115   116   ar
    15   112   114   ar
    16   190   192   ar
    17   190   191   ar
    18   192   194   ar
    19   116   114   ar
    20    45    43   ar
    21    45    47   ar
    22   191   193   ar
    23    43    42   ar
    24   194   195   ar
    25    98    97    2
    26    97    96    1
    27   154   153   ar
    28   154   152   ar
    29   153   151   ar
    30    47    46   ar
    31   193   195   ar
    32    76    75    1
    33    38    37    1
    34    38    41    1
    35    38    39    1
    36   117   118    1
    37   122   123    1
    38   122   121    1
    39    42    41    1
    40    42    44   ar
    41   123   124    1
    42   152   150   ar
    43   151   148   ar
    44    96    99    1
    45    96    95    1
    46    12    11    1
    47    99   100    1
    48    39    40    2
    49    75    74    1
    50    46    44   ar
    51   118   121    1
    52   118   119    1
    53   150   148   ar
    54   150   149   ar
    55   148   146   ar
    56    11     9   ar
    57    11    10   ar
    58   101   100   ar
    59   101   103   ar
    60   100   102   ar
    61     9     7   ar
    62    74    73    1
    63   119   120    2
    64   149   147   ar
    65    10     8   ar
    66   146   145    1
    67   146   147   ar
    68   103   105   ar
    69   102   104   ar
    70    73    72    1
    71   142   145    1
    72   142   143    1
    73   142   141    1
    74   155   156    1
    75     7     6   ar
    76   143   144    2
    77    36    35    1
    78   161   160   ar
    79   159   156    1
    80   159   160    1
    81     8     6   ar
    82   156   157    1
    83    31    30    2
    84   105   104   ar
    85   160   162   ar
    86    33    32    1
    87    33    34    1
    88     6     5    1
    89    72    69    1
    90    35    34    1
    91    30    29    1
    92    32    29    1
    93   131   129    1
    94   157   163   am
    95   157   158    2
    96   140   138   ar
    97    69    68    1
    98    69    70    1
    99     5     2    1
   100    29    28    1
   101   125   126    1
   102    68    66   am
   103   163   164    1
   104     1     2    1
   105   137   138    1
   106   137   136    1
   107   138   139   ar
   108    55    53   am
   109   129   126    1
   110   129   130    1
   111     2     3    1
   112    70    71    2
   113   135   134    2
   114    66    65    1
   115    66    67    2
   116   126   127    1
   117   169   168   ar
   118   133   136    1
   119   133   134    1
   120   133   132    1
   121    65    64    1
   122   164   167    1
   123   164   165    1
   124   168   167    1
   125   168   170   ar
   126    53    52    1
   127    53    54    2
   128    52    49    1
   129     3     4    2
   130     3    13   am
   131   179   177   ar
   132   179   180   ar
   133   177   176   ar
   134   165   166    2
   135   127   128    2
   136    64    62   am
   137    85    83   ar
   138    63    62    2
   139    94    92   ar
   140    13    14    1
   141    48    49    1
   142    62    61    1
   143    49    50    1
   144   171   172    1
   145    16    15    2
   146   180   182   ar
   147   180   178   ar
   148   176   175    1
   149   176   178   ar
   150    83    84   ar
   151    83    82    1
   152    27    25    1
   153    26    25    1
   154   182   184   ar
   155   175   172    1
   156    92    93   ar
   157    92    91    1
   158    14    15    1
   159    14    17    1
   160    15    20   am
   161    59    58    2
   162   178   181   ar
   163   172   173    1
   164    61    60    1
   165    25    24    1
   166    50    56   am
   167    50    51    2
   168    24    21    1
   169    82    81    1
   170    91    90    1
   171    18    17    1
   172    56    57    1
   173    20    21    1
   174    17    19    1
   175   184   183   ar
   176    21    22    1
   177    58    57    1
   178   173   174    2
   179   181   183   ar
   180    81    78    1
   181    90    87    1
   182    87    86    1
   183    87    88    1
   184    22    23    2
   185    78    79    1
   186    78    77    1
   187    80    79    2
   188    89    88    2
