@<TRIPOS>MOLECULE
tmp/5otnA00.pdb
 202 196 0 0 0
SMALL
GASTEIGER

@<TRIPOS>ATOM
      1  N         -2.3130  -15.4080  -21.8620 N.3     7  LEU7       -0.1231
      2  CA        -1.9190  -14.4480  -22.8890 C.3     7  LEU7        0.1693
      3  C         -0.5210  -13.9160  -22.5740 C.2     7  LEU7        0.2593
      4  O         -0.0720  -13.9340  -21.4050 O.2     7  LEU7       -0.2718
      5  CB        -2.9010  -13.2450  -22.9670 C.3     7  LEU7        0.0284
      6  CG        -4.3440  -13.5830  -23.3590 C.3     7  LEU7        0.0019
      7  CD1       -5.2880  -12.3970  -23.0680 C.3     7  LEU7        0.0001
      8  CD2       -4.4700  -14.0080  -24.8010 C.3     7  LEU7        0.0001
      9  N          0.1610  -13.4140  -23.6180 N.am    8  THR8       -0.1939
     10  CA         1.5150  -12.8500  -23.4950 C.3     8  THR8        0.2028
     11  C          1.5420  -11.3810  -23.9280 C.2     8  THR8        0.2642
     12  O          0.7070  -10.9500  -24.7470 O.2     8  THR8       -0.2714
     13  CB         2.5260  -13.6680  -24.3470 C.3     8  THR8        0.1808
     14  OG1        2.2110  -13.4900  -25.7430 O.3     8  THR8       -0.2208
     15  CG2        2.5470  -15.1430  -23.9520 C.3     8  THR8        0.0379
     16  N          2.5590  -10.6480  -23.4490 N.am    9  LEU9       -0.1977
     17  CA         2.7690   -9.2440  -23.8540 C.3     9  LEU9        0.1596
     18  C          4.2670   -8.9470  -23.7560 C.2     9  LEU9        0.2287
     19  O          4.8800   -9.2060  -22.6980 O.2     9  LEU9       -0.2864
     20  CB         1.9600   -8.3030  -22.9300 C.3     9  LEU9        0.0297
     21  CG         1.9140   -6.8300  -23.3430 C.3     9  LEU9        0.0022
     22  CD1        1.2770   -6.6500  -24.7210 C.3     9  LEU9        0.0001
     23  CD2        1.2000   -5.9900  -22.2940 C.3     9  LEU9        0.0001
     24  N         -2.6220   -1.7100  -32.9790 N.3    23  LYS23      -0.1245
     25  CA        -3.3920   -2.9420  -33.2690 C.3    23  LYS23       0.1561
     26  C         -4.4430   -2.6300  -34.3580 C.2    23  LYS23       0.2260
     27  O         -5.3660   -1.8100  -34.1490 O.2    23  LYS23      -0.2867
     28  CB        -4.0170   -3.4590  -31.9640 C.3    23  LYS23       0.0271
     29  CG        -4.7350   -4.8120  -32.0550 C.3    23  LYS23       0.0035
     30  CD        -3.8250   -5.9700  -32.4720 C.3    23  LYS23       0.0206
     31  CE        -4.3650   -7.3710  -32.1690 C.3    23  LYS23       0.1093
     32  NZ        -4.4800   -7.6280  -30.6900 N.3    23  LYS23      -0.1314
     33  N         -8.7450   -8.0030  -31.0430 N.3    27  PHE27      -0.1241
     34  CA        -8.9830   -7.6500  -29.6390 C.3    27  PHE27       0.1605
     35  C         -8.0970   -6.4500  -29.2580 C.2    27  PHE27       0.2264
     36  O         -6.8570   -6.5060  -29.3640 O.2    27  PHE27      -0.2867
     37  CB        -8.6990   -8.8490  -28.7150 C.3    27  PHE27       0.0534
     38  CG        -9.1800   -8.6180  -27.3100 C.ar   27  PHE27      -0.0203
     39  CD1      -10.5280   -8.7790  -26.9960 C.ar   27  PHE27      -0.0042
     40  CD2       -8.3150   -8.2100  -26.2970 C.ar   27  PHE27      -0.0042
     41  CE1      -10.9940   -8.5330  -25.7080 C.ar   27  PHE27      -0.0003
     42  CE2       -8.7830   -7.9730  -25.0050 C.ar   27  PHE27      -0.0003
     43  CZ       -10.1170   -8.1290  -24.7150 C.ar   27  PHE27      -0.0000
     44  N          0.0030   -0.8820  -28.2070 N.3    33  ASN33      -0.1225
     45  CA         0.3000   -1.9180  -27.2050 C.3    33  ASN33       0.1785
     46  C          1.6500   -2.5730  -27.5150 C.2    33  ASN33       0.2598
     47  O          2.2440   -2.3850  -28.5880 O.2    33  ASN33      -0.2718
     48  CB        -0.8350   -2.9810  -27.1970 C.3    33  ASN33       0.1169
     49  CG        -1.0620   -3.6720  -25.8450 C.2    33  ASN33       0.2627
     50  OD1       -0.2440   -3.5990  -24.9150 O.2    33  ASN33      -0.2716
     51  ND2       -2.2010   -4.3710  -25.7410 N.am   33  ASN33      -0.0877
     52  N          2.1290   -3.3870  -26.5610 N.am   34  GLY34      -0.1942
     53  CA         3.1780   -4.3550  -26.9030 C.3    34  GLY34       0.2014
     54  C          2.6430   -5.4880  -27.7920 C.2    34  GLY34       0.2639
     55  O          1.4680   -5.4700  -28.2060 O.2    34  GLY34      -0.2714
     56  N          3.5140   -6.4770  -28.0670 N.am   35  PHE35      -0.1959
     57  CA         3.2140   -7.5680  -29.0230 C.3    35  PHE35       0.1771
     58  C          2.8740   -8.8490  -28.2320 C.2    35  PHE35       0.2620
     59  O          3.4540   -9.0780  -27.1540 O.2    35  PHE35      -0.2715
     60  CB         4.4190   -7.7750  -29.9600 C.3    35  PHE35       0.0574
     61  CG         4.7980   -6.5040  -30.6900 C.ar   35  PHE35      -0.0200
     62  CD1        4.0950   -6.1090  -31.8290 C.ar   35  PHE35      -0.0042
     63  CD2        5.7700   -5.6340  -30.1770 C.ar   35  PHE35      -0.0042
     64  CE1        4.3610   -4.8830  -32.4460 C.ar   35  PHE35      -0.0003
     65  CE2        6.0470   -4.4070  -30.7920 C.ar   35  PHE35      -0.0003
     66  CZ         5.3380   -4.0290  -31.9180 C.ar   35  PHE35      -0.0000
     67  N          1.9780   -9.7050  -28.7420 N.am   36  GLY36      -0.1940
     68  CA         1.6860  -10.9390  -27.9960 C.3    36  GLY36       0.2014
     69  C          0.3710  -11.5880  -28.4060 C.2    36  GLY36       0.2639
     70  O         -0.3160  -11.1360  -29.3450 O.2    36  GLY36      -0.2714
     71  N          0.0250  -12.6720  -27.7150 N.am   37  GLY37      -0.1939
     72  CA        -1.1070  -13.5080  -28.1170 C.3    37  GLY37       0.2014
     73  C         -1.3190  -14.6660  -27.1520 C.2    37  GLY37       0.2638
     74  O         -1.0040  -14.5710  -25.9470 O.2    37  GLY37      -0.2714
     75  N         -1.9010  -15.7530  -27.6800 N.am   38  LYS38      -0.1977
     76  CA        -2.2140  -16.9660  -26.9010 C.3    38  LYS38       0.1596
     77  C         -1.0160  -17.9250  -26.8500 C.2    38  LYS38       0.2287
     78  O          0.0400  -17.7160  -27.5090 O.2    38  LYS38      -0.2864
     79  CB        -3.4660  -17.6800  -27.4770 C.3    38  LYS38       0.0298
     80  CG        -4.8100  -17.0420  -27.0730 C.3    38  LYS38       0.0038
     81  CD        -5.1590  -15.7210  -27.7720 C.3    38  LYS38       0.0206
     82  CE        -5.4010  -15.8960  -29.2660 C.3    38  LYS38       0.1093
     83  NZ        -5.9290  -14.6470  -29.8760 N.3    38  LYS38      -0.1314
     84  N          4.9300  -14.6030  -31.1380 N.3    52  GLU52      -0.1245
     85  CA         4.0550  -13.4890  -31.5260 C.3    52  GLU52       0.1567
     86  C          4.8490  -12.1860  -31.7250 C.2    52  GLU52       0.2260
     87  O          4.5020  -11.3860  -32.6190 O.2    52  GLU52      -0.2867
     88  CB         2.8680  -13.3440  -30.5740 C.3    52  GLU52       0.0388
     89  CG         1.8880  -14.5290  -30.6420 C.3    52  GLU52       0.1160
     90  CD         1.1670  -14.7460  -31.9800 C.2    52  GLU52       0.3649
     91  OE1        1.8690  -15.0370  -32.9830 O.co2  52  GLU52      -0.2457
     92  OE2       -0.0930  -14.6630  -32.0560 O.co2  52  GLU52      -0.2457
     93  N          4.4110  -10.3770  -35.4270 N.3    56  GLU56      -0.1245
     94  CA         3.7090   -9.0770  -35.4190 C.3    56  GLU56       0.1567
     95  C          4.6190   -7.8640  -35.6710 C.2    56  GLU56       0.2260
     96  O          4.1340   -6.8280  -36.1730 O.2    56  GLU56      -0.2867
     97  CB         2.9080   -8.9500  -34.1090 C.3    56  GLU56       0.0388
     98  CG         1.8670  -10.0710  -34.0050 C.3    56  GLU56       0.1160
     99  CD         1.1640  -10.2450  -32.6570 C.2    56  GLU56       0.3649
    100  OE1        1.2390   -9.3510  -31.7720 O.co2  56  GLU56      -0.2457
    101  OE2        0.4850  -11.3300  -32.5000 O.co2  56  GLU56      -0.2457
    102  N         -7.0420  -10.1410  -15.6570 N.3    72  PHE72      -0.1241
    103  CA        -8.1470   -9.2590  -16.0610 C.3    72  PHE72       0.1605
    104  C         -9.4870   -9.9960  -16.0160 C.2    72  PHE72       0.2264
    105  O         -9.6390  -11.0770  -16.6340 O.2    72  PHE72      -0.2867
    106  CB        -7.9330   -8.6970  -17.4820 C.3    72  PHE72       0.0534
    107  CG        -6.6990   -7.8210  -17.6290 C.ar   72  PHE72      -0.0203
    108  CD1       -6.7640   -6.4540  -17.3520 C.ar   72  PHE72      -0.0042
    109  CD2       -5.4620   -8.3470  -17.9980 C.ar   72  PHE72      -0.0042
    110  CE1       -5.6420   -5.6430  -17.4920 C.ar   72  PHE72      -0.0003
    111  CE2       -4.3300   -7.5380  -18.1260 C.ar   72  PHE72      -0.0003
    112  CZ        -4.4250   -6.1800  -17.8750 C.ar   72  PHE72      -0.0000
    113  N        -13.5100   -9.2130  -16.9160 N.3    74  PHE74      -0.1241
    114  CA       -14.4950   -8.3330  -17.5570 C.3    74  PHE74       0.1605
    115  C        -15.8940   -8.7000  -17.0390 C.2    74  PHE74       0.2264
    116  O        -16.2980   -9.8630  -17.0860 O.2    74  PHE74      -0.2867
    117  CB       -14.4220   -8.4510  -19.0910 C.3    74  PHE74       0.0534
    118  CG       -13.2090   -7.7740  -19.6970 C.ar   74  PHE74      -0.0203
    119  CD1      -13.2750   -6.4390  -20.0630 C.ar   74  PHE74      -0.0042
    120  CD2      -11.9960   -8.4470  -19.8830 C.ar   74  PHE74      -0.0042
    121  CE1      -12.1890   -5.7810  -20.6110 C.ar   74  PHE74      -0.0003
    122  CE2      -10.8930   -7.7800  -20.4260 C.ar   74  PHE74      -0.0003
    123  CZ       -11.0000   -6.4480  -20.7920 C.ar   74  PHE74      -0.0000
    124  N         -8.6330  -13.5550  -18.0750 N.3    81  MET81      -0.1245
    125  CA        -7.4550  -13.3800  -18.9320 C.3    81  MET81       0.1570
    126  C         -6.2130  -13.2630  -18.0540 C.2    81  MET81       0.2261
    127  O         -6.1000  -12.3090  -17.2640 O.2    81  MET81      -0.2867
    128  CB        -7.6200  -12.1380  -19.8190 C.3    81  MET81       0.0387
    129  CG        -8.7420  -12.2980  -20.8170 C.3    81  MET81       0.0595
    130  SD        -9.2600  -10.8450  -21.6930 S.3    81  MET81      -0.1393
    131  CE        -7.7600  -10.1840  -22.2810 C.3    81  MET81       0.0692
    132  N         -2.4450  -12.5420  -18.0780 N.3    83  VAL83      -0.1245
    133  CA        -1.4510  -11.9330  -18.9810 C.3    83  VAL83       0.1561
    134  C         -0.0460  -11.9680  -18.3620 C.2    83  VAL83       0.2260
    135  O          0.1810  -11.4730  -17.2390 O.2    83  VAL83      -0.2867
    136  CB        -1.8580  -10.4900  -19.3900 C.3    83  VAL83       0.0252
    137  CG1       -0.8230   -9.8830  -20.3550 C.3    83  VAL83       0.0019
    138  CG2       -3.2380  -10.4530  -20.0410 C.3    83  VAL83       0.0019
    139  N         -1.3280   -7.2950  -38.8230 N.3   100  GLU100     -0.1245
    140  CA        -1.9300   -7.1370  -37.5030 C.3   100  GLU100      0.1567
    141  C         -1.5080   -5.8660  -36.7460 C.2   100  GLU100      0.2260
    142  O         -2.3520   -5.2960  -36.0310 O.2   100  GLU100     -0.2867
    143  CB        -1.6180   -8.3620  -36.6280 C.3   100  GLU100      0.0388
    144  CG        -2.3470   -8.3730  -35.2780 C.3   100  GLU100      0.1160
    145  CD        -2.2770   -9.7160  -34.5920 C.2   100  GLU100      0.3649
    146  OE1       -2.4800  -10.7210  -35.3170 O.co2 100  GLU100     -0.2457
    147  OE2       -2.0730   -9.7690  -33.3500 O.co2 100  GLU100     -0.2457
    148  N         -4.7260    0.7020  -23.5810 N.3   117  TRP117     -0.1241
    149  CA        -5.5860    0.1650  -22.5240 C.3   117  TRP117      0.1605
    150  C         -5.4040    0.9870  -21.2220 C.2   117  TRP117      0.2264
    151  O         -4.2840    1.4390  -20.9030 O.2   117  TRP117     -0.2867
    152  CB        -5.2760   -1.3330  -22.2710 C.3   117  TRP117      0.0550
    153  CG        -5.8160   -2.2890  -23.2940 C.ar  117  TRP117      0.0003
    154  CD1       -5.1410   -2.8710  -24.3420 C.ar  117  TRP117      0.0946
    155  CD2       -7.1610   -2.8090  -23.3470 C.ar  117  TRP117      0.0152
    156  NE1       -5.9820   -3.7270  -25.0400 N.ar  117  TRP117     -0.2442
    157  CE2       -7.2190   -3.7150  -24.4380 C.ar  117  TRP117      0.0810
    158  CE3       -8.3050   -2.6400  -22.5460 C.ar  117  TRP117      0.0012
    159  CZ2       -8.3990   -4.4270  -24.7540 C.ar  117  TRP117      0.0191
    160  CZ3       -9.4650   -3.3550  -22.8600 C.ar  117  TRP117      0.0001
    161  CH2       -9.5010   -4.2190  -23.9580 C.ar  117  TRP117      0.0015
    162  N         -5.1590    0.2650  -18.0940 N.3   119  ASP119     -0.1225
    163  CA        -4.2180   -0.2030  -17.0640 C.3   119  ASP119      0.1805
    164  C         -2.7730    0.2680  -17.2600 C.2   119  ASP119      0.2597
    165  O         -2.0090    0.3730  -16.2830 O.2   119  ASP119     -0.2718
    166  CB        -4.2820   -1.7500  -16.9260 C.3   119  ASP119      0.1424
    167  CG        -3.8530   -2.5210  -18.1710 C.2   119  ASP119      0.3668
    168  OD1       -4.6240   -2.4220  -19.1800 O.co2 119  ASP119     -0.2456
    169  OD2       -2.8260   -3.2270  -18.1450 O.co2 119  ASP119     -0.2456
    170  N         -2.3810    0.5000  -18.5200 N.am  120  ASP120     -0.1974
    171  CA        -0.9500    0.5980  -18.8550 C.3   120  ASP120      0.1709
    172  C         -0.2260    1.7290  -18.1000 C.2   120  ASP120      0.2293
    173  O          0.9130    1.5530  -17.6400 O.2   120  ASP120     -0.2864
    174  CB        -0.7540    0.8080  -20.3680 C.3   120  ASP120      0.1436
    175  CG        -1.2410   -0.3630  -21.2180 C.2   120  ASP120      0.3671
    176  OD1       -2.0600   -1.1680  -20.7140 O.co2 120  ASP120     -0.2456
    177  OD2       -0.8080   -0.4340  -22.4030 O.co2 120  ASP120     -0.2456
    178  N          1.2010    0.6520  -14.5460 N.3   123  TRP123     -0.1241
    179  CA         2.3530   -0.2400  -14.3780 C.3   123  TRP123      0.1605
    180  C          3.5640    0.1200  -15.2510 C.2   123  TRP123      0.2264
    181  O          4.6840   -0.3370  -14.9350 O.2   123  TRP123     -0.2867
    182  CB         1.9800   -1.7320  -14.5510 C.3   123  TRP123      0.0550
    183  CG         1.3480   -2.1200  -15.8700 C.ar  123  TRP123      0.0003
    184  CD1        0.0170   -2.2500  -16.1280 C.ar  123  TRP123      0.0946
    185  CD2        2.0280   -2.4590  -17.1020 C.ar  123  TRP123      0.0152
    186  NE1       -0.1820   -2.6440  -17.4140 N.ar  123  TRP123     -0.2442
    187  CE2        1.0260   -2.7950  -18.0400 C.ar  123  TRP123      0.0810
    188  CE3        3.3780   -2.5510  -17.4830 C.ar  123  TRP123      0.0012
    189  CZ2        1.3320   -3.2040  -19.3420 C.ar  123  TRP123      0.0191
    190  CZ3        3.6790   -2.9530  -18.7750 C.ar  123  TRP123      0.0001
    191  CH2        2.6500   -3.2520  -19.6930 C.ar  123  TRP123      0.0015
    192  N        -12.7920   -4.8080  -15.2020 N.3   139  PHE139     -0.1241
    193  CA       -13.2490   -3.8270  -16.1940 C.3   139  PHE139      0.1605
    194  C        -14.7740   -3.9390  -16.4150 C.2   139  PHE139      0.2264
    195  O        -15.3410   -5.0480  -16.4270 O.2   139  PHE139     -0.2867
    196  CB       -12.5670   -4.0700  -17.5530 C.3   139  PHE139      0.0534
    197  CG       -11.1980   -3.3980  -17.7340 C.ar  139  PHE139     -0.0203
    198  CD1      -10.0550   -3.8680  -17.1040 C.ar  139  PHE139     -0.0042
    199  CD2      -11.0500   -2.3080  -18.6090 C.ar  139  PHE139     -0.0042
    200  CE1       -8.8160   -3.2640  -17.3290 C.ar  139  PHE139     -0.0003
    201  CE2       -9.8190   -1.7040  -18.8380 C.ar  139  PHE139     -0.0003
    202  CZ        -8.6940   -2.1870  -18.1960 C.ar  139  PHE139     -0.0000
@<TRIPOS>BOND
     1   139   140    1
     2   140   141    1
     3   140   143    1
     4   141   142    2
     5   143   144    1
     6    96    95    2
     7    95    94    1
     8    93    94    1
     9    94    97    1
    10   146   145   ar
    11   144   145    1
    12   145   147   ar
    13    26    27    2
    14    26    25    1
    15    97    98    1
    16    98    99    1
    17    25    24    1
    18    25    28    1
    19    91    90   ar
    20    99   101   ar
    21    99   100   ar
    22    87    86    2
    23    30    31    1
    24    30    29    1
    25    64    66   ar
    26    64    62   ar
    27    31    32    1
    28    92    90   ar
    29    29    28    1
    30    90    89    1
    31    66    65   ar
    32    62    61   ar
    33    86    85    1
    34    85    84    1
    35    85    88    1
    36    33    34    1
    37    65    63   ar
    38    61    63   ar
    39    61    60    1
    40    89    88    1
    41    60    57    1
    42    83    82    1
    43    34    35    1
    44    34    37    1
    45    36    35    2
    46    70    69    2
    47    82    81    1
    48    57    58    1
    49    57    56    1
    50    67    58   am
    51    67    68    1
    52    37    38    1
    53    47    46    2
    54    69    68    1
    55    69    71   am
    56    58    59    2
    57    44    45    1
    58    55    54    2
    59    72    71    1
    60    72    73    1
    61    56    54   am
    62    54    53    1
    63    81    80    1
    64    75    73   am
    65    75    76    1
    66    46    45    1
    67    46    52   am
    68    78    77    2
    69    79    80    1
    70    79    76    1
    71    38    39   ar
    72    38    40   ar
    73    45    48    1
    74    48    49    1
    75    73    74    2
    76    39    41   ar
    77    53    52    1
    78    76    77    1
    79    40    42   ar
    80    49    51   am
    81    49    50    2
    82    14    13    1
    83    41    43   ar
    84   156   157   ar
    85   156   154   ar
    86    42    43   ar
    87     8     6    1
    88   159   157   ar
    89   159   161   ar
    90    12    11    2
    91    22    21    1
    92   157   155   ar
    93    13    15    1
    94    13    10    1
    95   154   153   ar
    96   161   160   ar
    97    11    10    1
    98    11    16   am
    99    17    18    1
   100    17    16    1
   101    17    20    1
   102    18    19    2
   103     9    10    1
   104     9     3   am
   105   148   149    1
   106     6     7    1
   107     6     5    1
   108   155   153   ar
   109   155   158   ar
   110    21    20    1
   111    21    23    1
   112   153   152    1
   113     5     2    1
   114     2     3    1
   115     2     1    1
   116   160   158   ar
   117     3     4    2
   118   149   152    1
   119   149   150    1
   120   177   175   ar
   121   131   130    1
   122   130   129    1
   123   150   151    2
   124   175   176   ar
   125   175   174    1
   126   129   128    1
   127   123   121   ar
   128   123   122   ar
   129   121   119   ar
   130   122   120   ar
   131   174   171    1
   132   137   136    1
   133   119   118   ar
   134   138   136    1
   135   120   118   ar
   136   128   125    1
   137   118   117    1
   138   191   189   ar
   139   191   190   ar
   140   136   133    1
   141   189   187   ar
   142   168   167   ar
   143   117   114    1
   144   133   134    1
   145   133   132    1
   146   125   124    1
   147   125   126    1
   148   171   170    1
   149   171   172    1
   150   201   199   ar
   151   201   202   ar
   152   190   188   ar
   153   199   197   ar
   154   170   164   am
   155   134   135    2
   156   202   200   ar
   157   167   169   ar
   158   167   166    1
   159   111   109   ar
   160   111   112   ar
   161   172   173    2
   162   162   163    1
   163   126   127    2
   164   187   186   ar
   165   187   185   ar
   166   109   107   ar
   167   112   110   ar
   168   197   196    1
   169   197   198   ar
   170   107   106    1
   171   107   108   ar
   172   114   115    1
   173   114   113    1
   174   196   193    1
   175   110   108   ar
   176   188   185   ar
   177   106   103    1
   178   186   184   ar
   179   200   198   ar
   180   164   163    1
   181   164   165    2
   182   185   183   ar
   183   116   115    2
   184   163   166    1
   185   105   104    2
   186   195   194    2
   187   194   193    1
   188   193   192    1
   189   184   183   ar
   190   103   104    1
   191   103   102    1
   192   183   182    1
   193   180   181    2
   194   180   179    1
   195   182   179    1
   196   178   179    1
