@<TRIPOS>MOLECULE
tmp/5otpA00.pdb
 210 199 0 0 0
SMALL
GASTEIGER

@<TRIPOS>ATOM
      1  N          8.4600  125.2590  358.8170 N.3    44  LEU44      -0.1231
      2  CA         7.9130  126.4230  358.1090 C.3    44  LEU44       0.1693
      3  C          8.6950  126.7240  356.8350 C.2    44  LEU44       0.2592
      4  O          8.1090  127.0100  355.7980 O.2    44  LEU44      -0.2718
      5  CB         7.8760  127.6570  359.0120 C.3    44  LEU44       0.0284
      6  CG         6.9980  127.5770  360.2530 C.3    44  LEU44       0.0019
      7  CD1        7.1580  128.8170  361.1210 C.3    44  LEU44       0.0001
      8  CD2        5.5340  127.4350  359.8600 C.3    44  LEU44       0.0001
      9  N         10.0070  126.6040  356.9230 N.am   45  GLY45      -0.1957
     10  CA        10.8990  126.8550  355.8040 C.3    45  GLY45       0.1869
     11  C         12.3280  126.5020  356.1250 C.2    45  GLY45       0.2309
     12  O         12.6470  126.0980  357.2450 O.2    45  GLY45      -0.2863
     13  N         13.5220  126.6660  360.0160 N.3    52  VAL52      -0.1245
     14  CA        12.5250  127.3890  360.8160 C.3    52  VAL52       0.1561
     15  C         11.3200  126.4980  361.0850 C.2    52  VAL52       0.2260
     16  O         10.7970  125.8860  360.1580 O.2    52  VAL52      -0.2867
     17  CB        12.1490  128.7450  360.1630 C.3    52  VAL52       0.0252
     18  CG1       11.2190  129.5550  361.0570 C.3    52  VAL52       0.0019
     19  CG2       13.4100  129.5560  359.8410 C.3    52  VAL52       0.0019
     20  N          8.0320  130.4120  367.2510 N.3    65  VAL65      -0.1245
     21  CA         8.7920  130.0330  366.0630 C.3    65  VAL65       0.1561
     22  C         10.2100  129.7060  366.5450 C.2    65  VAL65       0.2260
     23  O         10.7450  130.4500  367.3510 O.2    65  VAL65      -0.2867
     24  CB         8.7520  131.1260  364.9650 C.3    65  VAL65       0.0252
     25  CG1        9.7460  130.8310  363.8470 C.3    65  VAL65       0.0019
     26  CG2        7.3280  131.2650  364.3930 C.3    65  VAL65       0.0019
     27  N          1.5120  134.7490  359.3490 N.3   117  ASN117     -0.1225
     28  CA         1.7260  135.2850  358.0230 C.3   117  ASN117      0.1785
     29  C          0.5970  134.9290  357.0790 C.2   117  ASN117      0.2597
     30  O          0.4180  133.7670  356.7200 O.2   117  ASN117     -0.2718
     31  CB         3.0330  134.7510  357.4510 C.3   117  ASN117      0.1169
     32  CG         3.0120  133.2490  357.2800 C.2   117  ASN117      0.2627
     33  OD1        3.2770  132.7320  356.1960 O.2   117  ASN117     -0.2716
     34  ND2        2.6780  132.5380  358.3500 N.am  117  ASN117     -0.0877
     35  N         -0.1670  135.9410  356.6790 N.am  118  THR118     -0.1953
     36  CA        -1.2450  135.7530  355.7240 C.3   118  THR118      0.1897
     37  C         -0.5670  135.4760  354.3940 C.2   118  THR118      0.2313
     38  O          0.4650  136.0860  354.0930 O.2   118  THR118     -0.2863
     39  CB        -2.1100  137.0150  355.5820 C.3   118  THR118      0.1794
     40  OG1       -2.0510  137.7870  356.7860 O.3   118  THR118     -0.2208
     41  CG2       -3.5570  136.6380  355.2900 C.3   118  THR118      0.0378
     42  N          0.7170  135.8810  351.0000 N.3   120  PHE120     -0.1241
     43  CA         0.9350  137.0970  350.2290 C.3   120  PHE120      0.1605
     44  C          0.1930  137.1400  348.9040 C.2   120  PHE120      0.2264
     45  O         -0.3180  138.1840  348.5170 O.2   120  PHE120     -0.2867
     46  CB         2.4300  137.4130  350.0560 C.3   120  PHE120      0.0534
     47  CG         3.2650  136.2410  349.6260 C.ar  120  PHE120     -0.0203
     48  CD1        3.3540  135.8850  348.2880 C.ar  120  PHE120     -0.0042
     49  CD2        3.9830  135.5100  350.5570 C.ar  120  PHE120     -0.0042
     50  CE1        4.1290  134.8120  347.8910 C.ar  120  PHE120     -0.0003
     51  CE2        4.7620  134.4380  350.1670 C.ar  120  PHE120     -0.0003
     52  CZ         4.8350  134.0860  348.8330 C.ar  120  PHE120     -0.0000
     53  N         -3.1930  138.3280  349.3720 N.3   123  LEU123     -0.1231
     54  CA        -3.0790  139.7400  349.7130 C.3   123  LEU123      0.1693
     55  C         -2.7540  140.5830  348.4930 C.2   123  LEU123      0.2592
     56  O         -3.3160  141.6580  348.2990 O.2   123  LEU123     -0.2718
     57  CB        -1.9560  139.9470  350.7310 C.3   123  LEU123      0.0284
     58  CG        -2.2820  140.0460  352.2180 C.3   123  LEU123      0.0019
     59  CD1       -2.8880  138.7450  352.7100 C.3   123  LEU123      0.0001
     60  CD2       -1.0210  140.3870  352.9960 C.3   123  LEU123      0.0001
     61  N         -1.8730  140.0540  347.6510 N.am  124  TYR124     -0.1976
     62  CA        -1.3840  140.7500  346.4680 C.3   124  TYR124      0.1639
     63  C         -2.5030  141.1090  345.5020 C.2   124  TYR124      0.2290
     64  O         -2.5280  142.2100  344.9600 O.2   124  TYR124     -0.2864
     65  CB        -0.3620  139.8530  345.7670 C.3   124  TYR124      0.0560
     66  CG         0.4430  140.4960  344.6650 C.ar  124  TYR124     -0.0198
     67  CD1        1.4270  141.4330  344.9500 C.ar  124  TYR124     -0.0009
     68  CD2        0.2480  140.1360  343.3400 C.ar  124  TYR124     -0.0009
     69  CE1        2.1760  142.0110  343.9420 C.ar  124  TYR124      0.0417
     70  CE2        0.9930  140.7070  342.3270 C.ar  124  TYR124      0.0417
     71  CZ         1.9540  141.6440  342.6320 C.ar  124  TYR124      0.1957
     72  OH         2.6960  142.2100  341.6240 O.3   124  TYR124     -0.2866
     73  N         -4.5950  144.0100  347.2640 N.3   127  LEU127     -0.1245
     74  CA        -3.9140  145.1700  347.8350 C.3   127  LEU127      0.1561
     75  C         -4.3530  146.4950  347.2290 C.2   127  LEU127      0.2260
     76  O         -4.5380  146.6120  346.0200 O.2   127  LEU127     -0.2867
     77  CB        -2.3990  145.0250  347.7070 C.3   127  LEU127      0.0270
     78  CG        -1.7230  144.0900  348.7070 C.3   127  LEU127      0.0019
     79  CD1       -0.2880  143.8110  348.2930 C.3   127  LEU127      0.0001
     80  CD2       -1.7830  144.6690  350.1100 C.3   127  LEU127      0.0001
     81  N         -3.2050  150.3560  351.5680 N.3   131  ASP131     -0.1225
     82  CA        -2.4860  149.2630  352.2230 C.3   131  ASP131      0.1805
     83  C         -0.9630  149.3860  351.9770 C.2   131  ASP131      0.2597
     84  O         -0.1760  149.1620  352.8870 O.2   131  ASP131     -0.2718
     85  CB        -2.9410  147.9110  351.6660 C.3   131  ASP131      0.1424
     86  CG        -4.3710  147.5100  352.0050 C.2   131  ASP131      0.3668
     87  OD1       -4.8050  147.7830  353.1400 O.co2 131  ASP131     -0.2456
     88  OD2       -5.0010  146.8280  351.1790 O.co2 131  ASP131     -0.2456
     89  N         -0.5510  149.7470  350.7550 N.am  132  ILE132     -0.1980
     90  CA         0.8980  149.8860  350.4630 C.3   132  ILE132      0.1595
     91  C          1.4920  151.0350  351.2910 C.2   132  ILE132      0.2287
     92  O          2.5400  150.8190  351.9200 O.2   132  ILE132     -0.2864
     93  CB         1.1680  149.9820  348.9400 C.3   132  ILE132      0.0276
     94  CG1        0.6000  148.7050  348.2060 C.3   132  ILE132      0.0022
     95  CG2        2.6980  150.1530  348.6630 C.3   132  ILE132      0.0022
     96  CD1        0.7140  148.7790  346.6650 C.3   132  ILE132      0.0001
     97  N          1.6460  149.7340  355.0840 N.3   135  TYR135     -0.1227
     98  CA         2.7070  148.7780  355.3870 C.3   135  TYR135      0.1736
     99  C          4.1150  149.3290  355.1430 C.2   135  TYR135      0.2595
    100  O          5.0430  148.9970  355.9060 O.2   135  TYR135     -0.2718
    101  CB         2.4810  147.4650  354.6500 C.3   135  TYR135      0.0548
    102  CG         1.3610  146.6530  355.2550 C.ar  135  TYR135     -0.0200
    103  CD1        1.4240  146.2140  356.5810 C.ar  135  TYR135     -0.0009
    104  CD2        0.2180  146.3450  354.5140 C.ar  135  TYR135     -0.0009
    105  CE1        0.3710  145.4900  357.1540 C.ar  135  TYR135      0.0417
    106  CE2       -0.8390  145.6280  355.0780 C.ar  135  TYR135      0.0417
    107  CZ        -0.7560  145.2020  356.3950 C.ar  135  TYR135      0.1957
    108  OH        -1.7660  144.4460  356.9250 O.3   135  TYR135     -0.2866
    109  N          4.2630  150.2260  354.1350 N.am  136  MET136     -0.1979
    110  CA         5.5550  150.8820  353.8950 C.3   136  MET136      0.1605
    111  C          5.9200  151.7540  355.1430 C.2   136  MET136      0.2287
    112  O          7.0830  151.7790  355.5670 O.2   136  MET136     -0.2864
    113  CB         5.4710  151.7740  352.6300 C.3   136  MET136      0.0413
    114  CG         5.5910  151.0060  351.3470 C.3   136  MET136      0.0598
    115  SD         7.3010  150.4780  351.0940 S.3   136  MET136     -0.1393
    116  CE         8.0690  152.0010  350.9910 C.3   136  MET136      0.0692
    117  N          7.2050  149.4790  357.9130 N.3   139  ILE139     -0.1245
    118  CA         8.6020  149.0730  357.6910 C.3   139  ILE139      0.1561
    119  C          9.5250  150.2310  358.0730 C.2   139  ILE139      0.2260
    120  O         10.5760  149.9920  358.6740 O.2   139  ILE139     -0.2867
    121  CB         8.8460  148.6400  356.2110 C.3   139  ILE139      0.0252
    122  CG1        7.9570  147.4450  355.8510 C.3   139  ILE139      0.0019
    123  CG2       10.3570  148.3290  355.9450 C.3   139  ILE139      0.0019
    124  CD1        7.9110  147.1960  354.3070 C.3   139  ILE139      0.0001
    125  N         11.0130  141.2790  350.4800 N.3   158  PRO158     -0.2102
    126  CA         9.6800  140.8250  350.9040 C.3   158  PRO158      0.1504
    127  C          9.7310  139.5710  351.7640 C.2   158  PRO158      0.2575
    128  O          8.9440  139.4910  352.6810 O.2   158  PRO158     -0.2718
    129  CB         8.9190  140.6230  349.5840 C.3   158  PRO158      0.0282
    130  CG         9.6150  141.5980  348.6470 C.3   158  PRO158      0.0208
    131  CD        11.0620  141.5180  349.0250 C.3   158  PRO158      0.0893
    132  N         10.6700  138.6360  351.5000 N.am  159  HIS159     -0.1976
    133  CA        10.7420  137.3890  352.2730 C.3   159  HIS159      0.1656
    134  C         11.0740  137.6720  353.7580 C.2   159  HIS159      0.2291
    135  O         10.7480  136.8640  354.6310 O.2   159  HIS159     -0.2864
    136  CB        11.7660  136.4240  351.6730 C.3   159  HIS159      0.0771
    137  CG        11.7580  135.0800  352.3440 C.ar  159  HIS159      0.0820
    138  ND1       10.7920  134.1360  352.0510 N.ar  159  HIS159     -0.2267
    139  CD2       12.5760  134.5830  353.3040 C.ar  159  HIS159      0.1154
    140  CE1       11.0490  133.0970  352.8330 C.ar  159  HIS159      0.1986
    141  NE2       12.1080  133.3170  353.6070 N.ar  159  HIS159     -0.2212
    142  N          9.9120  140.2890  355.4960 N.3   161  VAL161     -0.1231
    143  CA         8.8710  141.1180  356.0760 C.3   161  VAL161      0.1692
    144  C          7.6250  140.2440  356.2530 C.2   161  VAL161      0.2592
    145  O          7.0310  139.8130  355.2510 O.2   161  VAL161     -0.2718
    146  CB         8.5800  142.4020  355.2580 C.3   161  VAL161      0.0266
    147  CG1        7.4090  143.1750  355.8660 C.3   161  VAL161      0.0020
    148  CG2        9.8170  143.2980  355.1500 C.3   161  VAL161      0.0020
    149  N          7.2290  139.9880  357.4930 N.am  162  MET162     -0.1965
    150  CA         6.0500  139.1720  357.7470 C.3   162  MET162      0.1736
    151  C          4.8480  140.0390  358.0740 C.2   162  MET162      0.2616
    152  O          4.9260  140.9260  358.9140 O.2   162  MET162     -0.2715
    153  CB         6.3090  138.1980  358.8850 C.3   162  MET162      0.0427
    154  CG         7.4270  137.2220  358.5960 C.3   162  MET162      0.0599
    155  SD         7.4080  135.8960  359.8000 S.3   162  MET162     -0.1393
    156  CE         5.7550  135.2650  359.5260 C.3   162  MET162      0.0692
    157  N          3.7350  139.7760  357.4010 N.am  163  ILE163     -0.1977
    158  CA         2.5280  140.5540  357.6220 C.3   163  ILE163      0.1596
    159  C          1.3120  139.7270  358.0240 C.2   163  ILE163      0.2287
    160  O          0.9760  138.7490  357.3650 O.2   163  ILE163     -0.2864
    161  CB         2.1550  141.3360  356.3470 C.3   163  ILE163      0.0276
    162  CG1        3.2390  142.3600  356.0110 C.3   163  ILE163      0.0022
    163  CG2        0.8070  142.0230  356.5010 C.3   163  ILE163      0.0022
    164  CD1        2.9250  143.1950  354.7900 C.3   163  ILE163      0.0001
    165  N          2.9190  143.9500  361.2080 N.3   170  LEU170     -0.1245
    166  CA         4.0610  143.6700  360.3560 C.3   170  LEU170      0.1561
    167  C          5.3190  143.5180  361.2220 C.2   170  LEU170      0.2260
    168  O          5.4650  144.2270  362.2320 O.2   170  LEU170     -0.2867
    169  CB         4.2050  144.8510  359.3580 C.3   170  LEU170      0.0270
    170  CG         5.3810  144.8520  358.3740 C.3   170  LEU170      0.0019
    171  CD1        5.0180  145.6130  357.0790 C.3   170  LEU170      0.0001
    172  CD2        6.6630  145.4210  359.0210 C.3   170  LEU170      0.0001
    173  N         12.0370  140.5580  359.9830 N.3   173  ILE173     -0.1245
    174  CA        12.6960  139.3440  360.4680 C.3   173  ILE173      0.1561
    175  C         14.0990  139.1120  359.8510 C.2   173  ILE173      0.2260
    176  O         14.5630  139.9190  359.0320 O.2   173  ILE173     -0.2867
    177  CB        11.7610  138.1110  360.2430 C.3   173  ILE173      0.0252
    178  CG1       11.6190  137.7590  358.7440 C.3   173  ILE173      0.0019
    179  CG2       10.3970  138.3320  360.8970 C.3   173  ILE173      0.0019
    180  CD1       11.3180  136.2060  358.4460 C.3   173  ILE173      0.0001
    181  N         11.4770  147.1770  346.8290 N.3   220  MET220     -0.1230
    182  CA        10.2040  146.6060  347.2520 C.3   220  MET220      0.1702
    183  C          9.0380  147.5090  346.8640 C.2   220  MET220      0.2592
    184  O          8.0960  147.0140  346.2490 O.2   220  MET220     -0.2718
    185  CB        10.1700  146.3650  348.7660 C.3   220  MET220      0.0401
    186  CG        11.0550  145.2140  349.1930 C.3   220  MET220      0.0596
    187  SD        10.9540  144.9790  350.9950 S.3   220  MET220     -0.1393
    188  CE         9.3200  144.6120  351.1920 C.3   220  MET220      0.0692
    189  N          9.1360  148.8440  347.1280 N.am  221  LEU221     -0.1980
    190  CA         8.0670  149.7700  346.7630 C.3   221  LEU221      0.1596
    191  C          7.7880  149.7370  345.2610 C.2   221  LEU221      0.2287
    192  O          6.6240  149.6480  344.8480 O.2   221  LEU221     -0.2864
    193  CB         8.4080  151.2070  347.2220 C.3   221  LEU221      0.0297
    194  CG         7.4020  152.2700  346.8180 C.3   221  LEU221      0.0022
    195  CD1        6.0560  152.0300  347.5100 C.3   221  LEU221      0.0001
    196  CD2        7.9470  153.6490  347.0380 C.3   221  LEU221      0.0001
    197  N          8.3600  147.3070  343.1240 N.3   223  SER223     -0.1202
    198  CA         7.7310  146.0480  342.7400 C.3   223  SER223      0.2020
    199  C          6.2540  146.0210  343.0840 C.2   223  SER223      0.2618
    200  O          5.4850  145.5090  342.2870 O.2   223  SER223     -0.2717
    201  CB         8.4440  144.8480  343.3450 C.3   223  SER223      0.2103
    202  OG         8.2860  144.7760  344.7530 O.3   223  SER223     -0.2182
    203  N          5.8760  146.6050  344.2470 N.am  224  MET224     -0.1979
    204  CA         4.4670  146.6350  344.6880 C.3   224  MET224      0.1605
    205  C          3.6080  147.5800  343.8720 C.2   224  MET224      0.2287
    206  O          2.5330  147.1850  343.4100 O.2   224  MET224     -0.2864
    207  CB         4.3550  146.9730  346.1840 C.3   224  MET224      0.0413
    208  CG         4.7290  145.8020  347.0620 C.3   224  MET224      0.0598
    209  SD         3.8270  144.2370  346.7500 S.3   224  MET224     -0.1393
    210  CE         2.1870  144.7750  346.8700 C.3   224  MET224      0.0692
@<TRIPOS>BOND
     1    72    71    1
     2   200   199    2
     3    70    71   ar
     4    70    68   ar
     5    71    69   ar
     6   198   199    1
     7   198   197    1
     8   198   201    1
     9   199   203   am
    10    68    66   ar
    11   201   202    1
    12   206   205    2
    13   205   204    1
    14    69    67   ar
    15   203   204    1
    16    66    67   ar
    17    66    65    1
    18   204   207    1
    19   192   191    2
    20    64    63    2
    21   191   190    1
    22    63    62    1
    23    65    62    1
    24    76    75    2
    25   207   208    1
    26   184   183    2
    27    62    61    1
    28    96    94    1
    29   209   210    1
    30   209   208    1
    31   190   189    1
    32   190   193    1
    33   194   196    1
    34   194   193    1
    35   194   195    1
    36   181   182    1
    37   183   189   am
    38   183   182    1
    39    75    74    1
    40   182   185    1
    41    73    74    1
    42    61    55   am
    43    77    74    1
    44    77    78    1
    45    50    48   ar
    46    50    52   ar
    47    94    93    1
    48    48    47   ar
    49    79    78    1
    50    56    55    2
    51    55    54    1
    52    45    44    2
    53   130   131    1
    54   130   129    1
    55    95    93    1
    56    78    80    1
    57   185   186    1
    58    52    51   ar
    59    44    43    1
    60    93    90    1
    61   131   125    1
    62   186   187    1
    63    53    54    1
    64   129   126    1
    65    47    46    1
    66    47    49   ar
    67    54    57    1
    68    46    43    1
    69    51    49   ar
    70    43    42    1
    71    90    89    1
    72    90    91    1
    73   125   126    1
    74    57    58    1
    75    89    83   am
    76   126   127    1
    77   116   115    1
    78   187   188    1
    79   115   114    1
    80    88    86   ar
    81    91    92    2
    82   114   113    1
    83   132   127   am
    84   132   133    1
    85    81    82    1
    86    85    86    1
    87    85    82    1
    88   136   133    1
    89   136   137    1
    90   127   128    2
    91    83    82    1
    92    83    84    2
    93    86    87   ar
    94   138   137   ar
    95   138   140   ar
    96    58    59    1
    97    58    60    1
    98   133   134    1
    99   137   139   ar
   100   113   110    1
   101   140   141   ar
   102   139   141   ar
   103   134   135    2
   104   110   109    1
   105   110   111    1
   106    38    37    2
   107   109    99   am
   108   124   122    1
   109    37    36    1
   110   104   106   ar
   111   104   102   ar
   112   101   102    1
   113   101    98    1
   114   164   162    1
   115   106   107   ar
   116    97    98    1
   117   111   112    2
   118    99    98    1
   119    99   100    2
   120   148   146    1
   121   145   144    2
   122   102   103   ar
   123   146   147    1
   124   146   143    1
   125    41    39    1
   126   142   143    1
   127    39    36    1
   128    39    40    1
   129    36    35    1
   130     4     3    2
   131    10    11    1
   132    10     9    1
   133   122   121    1
   134   123   121    1
   135   162   161    1
   136   143   144    1
   137    11    12    2
   138    33    32    2
   139   121   118    1
   140   144   149   am
   141   161   163    1
   142   161   158    1
   143   107   108    1
   144   107   105   ar
   145   103   105   ar
   146    35    29   am
   147    30    29    2
   148     3     9   am
   149     3     2    1
   150    29    28    1
   151   171   170    1
   152    32    31    1
   153    32    34   am
   154   160   159    2
   155   157   158    1
   156   157   151   am
   157    31    28    1
   158   149   150    1
   159   158   159    1
   160   118   117    1
   161   118   119    1
   162   150   151    1
   163   150   153    1
   164    28    27    1
   165   119   120    2
   166   151   152    2
   167     2     1    1
   168     2     5    1
   169   170   172    1
   170   170   169    1
   171   180   178    1
   172   154   153    1
   173   154   155    1
   174   178   177    1
   175     5     6    1
   176   176   175    2
   177   169   166    1
   178   156   155    1
   179    19    17    1
   180   175   174    1
   181     8     6    1
   182   173   174    1
   183    13    14    1
   184    16    15    2
   185    17    14    1
   186    17    18    1
   187   177   174    1
   188   177   179    1
   189     6     7    1
   190   166   165    1
   191   166   167    1
   192    14    15    1
   193   167   168    2
   194    25    24    1
   195    26    24    1
   196    24    21    1
   197    21    22    1
   198    21    20    1
   199    22    23    2
