@<TRIPOS>MOLECULE
tmp/5otqA00.pdb
 222 211 0 0 0
SMALL
GASTEIGER

@<TRIPOS>ATOM
      1  N       -125.5950 -173.3370  309.9930 N.3    43  LEU43      -0.1231
      2  CA      -124.2490 -173.2860  310.5560 C.3    43  LEU43       0.1693
      3  C       -123.1960 -173.3660  309.4520 C.2    43  LEU43       0.2593
      4  O       -122.2300 -172.5960  309.4600 O.2    43  LEU43      -0.2718
      5  CB      -124.0590 -174.4250  311.5750 C.3    43  LEU43       0.0284
      6  CG      -124.9220 -174.3670  312.8360 C.3    43  LEU43       0.0019
      7  CD1     -124.7490 -175.6200  313.6900 C.3    43  LEU43       0.0001
      8  CD2     -124.5820 -173.1470  313.6620 C.3    43  LEU43       0.0001
      9  N       -123.4020 -174.2910  308.5160 N.am   44  GLY44      -0.1942
     10  CA      -122.4930 -174.5240  307.4040 C.3    44  GLY44       0.2014
     11  C       -122.9820 -175.5700  306.4290 C.2    44  GLY44       0.2638
     12  O       -124.1620 -175.9390  306.4350 O.2    44  GLY44      -0.2714
     13  N       -122.0680 -176.0480  305.5760 N.am   45  ARG45      -0.1977
     14  CA      -122.3930 -177.0080  304.5310 C.3    45  ARG45       0.1597
     15  C       -121.1950 -177.8770  304.1490 C.2    45  ARG45       0.2287
     16  O       -120.0520 -177.4130  304.1390 O.2    45  ARG45      -0.2864
     17  CB      -122.9070 -176.2410  303.2890 C.3    45  ARG45       0.0334
     18  CG      -123.6350 -177.0810  302.2420 C.3    45  ARG45       0.0492
     19  CD      -124.0480 -176.2460  301.0390 C.3    45  ARG45       0.2205
     20  NE      -122.9020 -175.7680  300.2600 N.pl3  45  ARG45      -0.0865
     21  CZ      -122.3470 -176.4320  299.2500 C.cat  45  ARG45       0.5346
     22  NH1     -122.8220 -177.6170  298.8830 N.pl3  45  ARG45       0.1354
     23  NH2     -121.3100 -175.9190  298.6020 N.pl3  45  ARG45       0.1354
     24  N       -125.8940 -178.5310  307.4020 N.3    51  VAL51      -0.1245
     25  CA      -125.8220 -178.4460  308.8720 C.3    51  VAL51       0.1561
     26  C       -126.5890 -177.2170  309.4140 C.2    51  VAL51       0.2260
     27  O       -126.3550 -176.0970  308.9600 O.2    51  VAL51      -0.2867
     28  CB      -124.3610 -178.5360  309.4000 C.3    51  VAL51       0.0252
     29  CG1     -124.3130 -178.4820  310.9230 C.3    51  VAL51       0.0019
     30  CG2     -123.6660 -179.8030  308.8990 C.3    51  VAL51       0.0019
     31  N       -119.5510 -173.0990  318.3490 N.3   116  ASN116     -0.1225
     32  CA      -118.6250 -173.0690  317.2380 C.3   116  ASN116      0.1785
     33  C       -118.1870 -171.6660  316.8830 C.2   116  ASN116      0.2597
     34  O       -119.0120 -170.8490  316.4620 O.2   116  ASN116     -0.2718
     35  CB      -119.2340 -173.7760  316.0160 C.3   116  ASN116      0.1169
     36  CG      -118.2800 -173.8460  314.8580 C.2   116  ASN116      0.2627
     37  OD1     -117.2970 -174.5900  314.8840 O.2   116  ASN116     -0.2716
     38  ND2     -118.5120 -173.0280  313.8450 N.am  116  ASN116     -0.0877
     39  N       -116.8780 -171.3930  317.0360 N.am  117  THR117     -0.1953
     40  CA      -116.2810 -170.1190  316.6410 C.3   117  THR117      0.1897
     41  C       -116.1480 -170.1350  315.1420 C.2   117  THR117      0.2313
     42  O       -115.5410 -171.0370  314.5540 O.2   117  THR117     -0.2863
     43  CB      -114.9050 -169.9160  317.3080 C.3   117  THR117      0.1794
     44  OG1     -115.1080 -169.9320  318.7160 O.3   117  THR117     -0.2208
     45  CG2     -114.2310 -168.6070  316.9000 C.3   117  THR117      0.0378
     46  N       -114.3440 -168.9500  312.2650 N.3   119  PHE119     -0.1241
     47  CA      -113.0780 -168.3230  311.8670 C.3   119  PHE119      0.1605
     48  C       -113.1820 -167.7590  310.4390 C.2   119  PHE119      0.2264
     49  O       -112.2420 -167.1260  309.9660 O.2   119  PHE119     -0.2867
     50  CB      -111.8990 -169.3170  311.9930 C.3   119  PHE119      0.0534
     51  CG      -111.4650 -169.6250  313.4110 C.ar  119  PHE119     -0.0203
     52  CD1     -112.0550 -170.6570  314.1290 C.ar  119  PHE119     -0.0042
     53  CD2     -110.4480 -168.8980  314.0190 C.ar  119  PHE119     -0.0042
     54  CE1     -111.6470 -170.9460  315.4350 C.ar  119  PHE119     -0.0003
     55  CE2     -110.0240 -169.2070  315.3190 C.ar  119  PHE119     -0.0003
     56  CZ      -110.6470 -170.2080  316.0270 C.ar  119  PHE119     -0.0000
     57  N       -110.3600 -168.1110  307.8350 N.3   122  LEU122     -0.1231
     58  CA      -109.1440 -167.3130  308.0260 C.3   122  LEU122      0.1693
     59  C       -108.2430 -168.0940  308.9780 C.2   122  LEU122      0.2592
     60  O       -108.5730 -168.2670  310.1530 O.2   122  LEU122     -0.2718
     61  CB      -109.4960 -165.9050  308.5540 C.3   122  LEU122      0.0284
     62  CG      -110.2070 -164.9790  307.5270 C.3   122  LEU122      0.0019
     63  CD1     -110.7920 -163.7330  308.2160 C.3   122  LEU122      0.0001
     64  CD2     -109.2610 -164.5550  306.3930 C.3   122  LEU122      0.0001
     65  N       -107.1570 -168.6480  308.4540 N.am  123  TYR123     -0.1976
     66  CA      -106.2730 -169.5040  309.2410 C.3   123  TYR123      0.1639
     67  C       -105.0240 -168.8000  309.7810 C.2   123  TYR123      0.2290
     68  O       -104.2510 -169.4390  310.4820 O.2   123  TYR123     -0.2864
     69  CB      -105.9140 -170.7600  308.4490 C.3   123  TYR123      0.0560
     70  CG      -107.1420 -171.5720  308.0820 C.ar  123  TYR123     -0.0198
     71  CD1     -107.7640 -172.3970  309.0170 C.ar  123  TYR123     -0.0009
     72  CD2     -107.6780 -171.5190  306.7970 C.ar  123  TYR123     -0.0009
     73  CE1     -108.8970 -173.1420  308.6840 C.ar  123  TYR123      0.0417
     74  CE2     -108.8070 -172.2640  306.4510 C.ar  123  TYR123      0.0417
     75  CZ      -109.4180 -173.0670  307.4010 C.ar  123  TYR123      0.1957
     76  OH      -110.5080 -173.8290  307.0500 O.3   123  TYR123     -0.2866
     77  N       -105.0210 -166.8820  312.2190 N.3   125  THR125     -0.1203
     78  CA      -105.7680 -166.3940  313.3520 C.3   125  THR125      0.1994
     79  C       -105.3810 -167.0250  314.6780 C.2   125  THR125      0.2617
     80  O       -106.0390 -166.7300  315.6930 O.2   125  THR125     -0.2717
     81  CB      -107.2470 -166.6750  313.0660 C.3   125  THR125      0.1784
     82  OG1     -107.3730 -168.0420  312.6390 O.3   125  THR125     -0.2211
     83  CG2     -107.8120 -165.7420  311.9660 C.3   125  THR125      0.0376
     84  N       -104.3630 -167.9230  314.6680 N.am  126  LEU126     -0.1979
     85  CA      -103.9440 -168.5650  315.9250 C.3   126  LEU126      0.1596
     86  C       -102.4860 -168.3070  316.2510 C.2   126  LEU126      0.2287
     87  O       -101.6240 -168.3350  315.3910 O.2   126  LEU126     -0.2864
     88  CB      -104.1640 -170.1070  315.9180 C.3   126  LEU126      0.0297
     89  CG      -105.5950 -170.6020  315.7230 C.3   126  LEU126      0.0022
     90  CD1     -105.6080 -172.1270  315.6070 C.3   126  LEU126      0.0001
     91  CD2     -106.4870 -170.1680  316.8570 C.3   126  LEU126      0.0001
     92  N       -101.9370 -173.0090  318.4580 N.3   131  ILE131     -0.1245
     93  CA      -101.7400 -174.1320  317.5280 C.3   131  ILE131      0.1561
     94  C       -101.3370 -175.3780  318.2950 C.2   131  ILE131      0.2260
     95  O       -101.9110 -176.4430  318.0790 O.2   131  ILE131     -0.2867
     96  CB      -100.7310 -173.8090  316.4390 C.3   131  ILE131      0.0252
     97  CG1     -101.2630 -172.6630  315.5600 C.3   131  ILE131      0.0019
     98  CG2     -100.4040 -175.0720  315.5500 C.3   131  ILE131      0.0019
     99  CD1     -100.1310 -172.0190  314.7600 C.3   131  ILE131      0.0001
    100  N       -104.4550 -176.6080  320.4460 N.3   134  TYR134     -0.1227
    101  CA      -105.5170 -177.2460  319.6880 C.3   134  TYR134      0.1736
    102  C       -105.0430 -178.4970  318.9790 C.2   134  TYR134      0.2595
    103  O       -105.8300 -179.4430  318.8870 O.2   134  TYR134     -0.2718
    104  CB      -106.1750 -176.2500  318.7470 C.3   134  TYR134      0.0548
    105  CG      -107.0270 -175.2280  319.4710 C.ar  134  TYR134     -0.0200
    106  CD1     -108.0270 -175.6230  320.3640 C.ar  134  TYR134     -0.0009
    107  CD2     -106.8380 -173.8730  319.2590 C.ar  134  TYR134     -0.0009
    108  CE1     -108.8480 -174.6790  320.9970 C.ar  134  TYR134      0.0417
    109  CE2     -107.6380 -172.9280  319.8880 C.ar  134  TYR134      0.0417
    110  CZ      -108.6270 -173.3340  320.7690 C.ar  134  TYR134      0.1957
    111  OH      -109.4320 -172.3740  321.3730 O.3   134  TYR134     -0.2866
    112  N       -103.7790 -178.5630  318.5620 N.am  135  MET135     -0.1979
    113  CA      -103.3110 -179.8070  317.9810 C.3   135  MET135      0.1605
    114  C       -103.3660 -180.9100  319.0550 C.2   135  MET135      0.2287
    115  O       -103.7650 -182.0330  318.7520 O.2   135  MET135     -0.2864
    116  CB      -101.9160 -179.6160  317.4620 C.3   135  MET135      0.0413
    117  CG      -101.8970 -178.8040  316.1910 C.3   135  MET135      0.0598
    118  SD      -102.3230 -179.8660  314.7770 S.3   135  MET135     -0.1393
    119  CE      -100.9050 -181.0420  314.8170 C.3   135  MET135      0.0692
    120  N       -106.8100 -182.2250  319.2850 N.3   138  ILE138     -0.1245
    121  CA      -107.1690 -183.0970  318.1480 C.3   138  ILE138      0.1561
    122  C       -106.5510 -184.4620  318.4120 C.2   138  ILE138      0.2260
    123  O       -107.1890 -185.4890  318.1720 O.2   138  ILE138     -0.2867
    124  CB      -106.6780 -182.5300  316.8190 C.3   138  ILE138      0.0252
    125  CG1     -107.4120 -181.2100  316.5100 C.3   138  ILE138      0.0019
    126  CG2     -106.9230 -183.5490  315.6690 C.3   138  ILE138      0.0019
    127  CD1     -106.8100 -180.4430  315.2640 C.3   138  ILE138      0.0001
    128  N       -109.2380 -179.2720  308.3810 N.3   157  PRO157     -0.2102
    129  CA      -109.7890 -178.1230  309.1210 C.3   157  PRO157      0.1504
    130  C       -111.3170 -178.0600  309.1470 C.2   157  PRO157      0.2575
    131  O       -111.8960 -177.7150  310.1700 O.2   157  PRO157     -0.2718
    132  CB      -109.2090 -176.9200  308.3780 C.3   157  PRO157      0.0282
    133  CG      -107.9390 -177.4330  307.7980 C.3   157  PRO157      0.0208
    134  CD      -108.2480 -178.8430  307.3780 C.3   157  PRO157      0.0893
    135  N       -111.9640 -178.4400  308.0490 N.am  158  HIS158     -0.1976
    136  CA      -113.4210 -178.4690  307.9510 C.3   158  HIS158      0.1656
    137  C       -114.0780 -179.4860  308.9020 C.2   158  HIS158      0.2291
    138  O       -115.2290 -179.3550  309.2340 O.2   158  HIS158     -0.2864
    139  CB      -113.8780 -178.7020  306.5090 C.3   158  HIS158      0.0771
    140  CG      -115.3440 -178.4820  306.2990 C.ar  158  HIS158      0.0820
    141  ND1     -115.9380 -177.2450  306.4260 N.ar  158  HIS158     -0.2267
    142  CD2     -116.3340 -179.3420  305.9690 C.ar  158  HIS158      0.1154
    143  CE1     -117.2330 -177.3540  306.1870 C.ar  158  HIS158      0.1986
    144  NE2     -117.5000 -178.6170  305.9080 N.ar  158  HIS158     -0.2212
    145  N       -113.0060 -180.1430  311.9630 N.3   160  VAL160     -0.1231
    146  CA      -112.6530 -179.7940  313.3340 C.3   160  VAL160      0.1692
    147  C       -113.4080 -178.5420  313.7740 C.2   160  VAL160      0.2592
    148  O       -113.3360 -177.5070  313.1190 O.2   160  VAL160     -0.2718
    149  CB      -111.1420 -179.5630  313.5020 C.3   160  VAL160      0.0266
    150  CG1     -110.8430 -179.0280  314.8930 C.3   160  VAL160      0.0020
    151  CG2     -110.3850 -180.8560  313.2560 C.3   160  VAL160      0.0020
    152  N       -114.3070 -178.5810  314.7650 N.am  161  MET161     -0.1965
    153  CA      -115.0510 -177.4150  315.2390 C.3   161  MET161      0.1736
    154  C       -114.3530 -176.9130  316.4860 C.2   161  MET161      0.2616
    155  O       -114.0150 -177.6980  317.3690 O.2   161  MET161     -0.2715
    156  CB      -116.5160 -177.7880  315.5160 C.3   161  MET161      0.0427
    157  CG      -117.1660 -178.4220  314.3050 C.3   161  MET161      0.0599
    158  SD      -118.9010 -178.0510  313.9780 S.3   161  MET161     -0.1393
    159  CE      -119.6910 -179.0830  315.1500 C.3   161  MET161      0.0692
    160  N       -114.0940 -175.6080  316.5450 N.am  162  ILE162     -0.1977
    161  CA      -113.4360 -175.0410  317.7060 C.3   162  ILE162      0.1596
    162  C       -114.3370 -174.0290  318.4340 C.2   162  ILE162      0.2287
    163  O       -114.8140 -173.1260  317.7830 O.2   162  ILE162     -0.2864
    164  CB      -112.1060 -174.3650  317.3180 C.3   162  ILE162      0.0276
    165  CG1     -111.1070 -175.3840  316.7320 C.3   162  ILE162      0.0022
    166  CG2     -111.4960 -173.6780  318.5600 C.3   162  ILE162      0.0022
    167  CD1     -109.8630 -174.7320  316.1490 C.3   162  ILE162      0.0001
    168  N       -112.5880 -178.1830  321.5480 N.3   169  LEU169     -0.1245
    169  CA      -112.5950 -178.5670  320.1690 C.3   169  LEU169      0.1561
    170  C       -113.3870 -179.8770  320.0390 C.2   169  LEU169      0.2260
    171  O       -113.4150 -180.6820  320.9650 O.2   169  LEU169     -0.2867
    172  CB      -111.0700 -178.7370  319.8820 C.3   169  LEU169      0.0270
    173  CG      -110.5780 -179.2720  318.6250 C.3   169  LEU169      0.0019
    174  CD1     -109.2920 -178.5880  318.2600 C.3   169  LEU169      0.0001
    175  CD2     -110.4230 -180.7670  318.7330 C.3   169  LEU169      0.0001
    176  N       -115.3910 -183.7910  314.0760 N.3   172  ILE172     -0.1245
    177  CA      -116.7050 -184.0780  313.5180 C.3   172  ILE172      0.1561
    178  C       -116.6110 -184.8070  312.1810 C.2   172  ILE172      0.2260
    179  O       -115.5100 -185.1530  311.7130 O.2   172  ILE172     -0.2867
    180  CB      -117.5100 -182.7490  313.3540 C.3   172  ILE172      0.0252
    181  CG1     -116.9250 -181.8770  312.2230 C.3   172  ILE172      0.0019
    182  CG2     -117.6040 -181.9840  314.6810 C.3   172  ILE172      0.0019
    183  CD1     -117.9150 -180.8640  311.6020 C.3   172  ILE172      0.0001
    184  N       -102.3070 -180.5400  308.0100 N.3   219  MET219     -0.1230
    185  CA      -102.9180 -179.3910  308.6780 C.3   219  MET219      0.1702
    186  C       -101.8790 -178.5720  309.3950 C.2   219  MET219      0.2592
    187  O       -101.8790 -177.3300  309.2690 O.2   219  MET219     -0.2718
    188  CB      -103.9180 -179.9080  309.7110 C.3   219  MET219      0.0401
    189  CG      -105.2020 -180.3060  309.0890 C.3   219  MET219      0.0596
    190  SD      -106.3450 -180.8910  310.3830 S.3   219  MET219     -0.1393
    191  CE      -106.5220 -179.5230  311.3430 C.3   219  MET219      0.0692
    192  N       -101.0100 -179.2380  310.1350 N.am  220  LEU220     -0.1980
    193  CA       -99.9860 -178.5410  310.9000 C.3   220  LEU220      0.1596
    194  C        -99.0880 -177.7410  309.9440 C.2   220  LEU220      0.2287
    195  O        -98.7950 -176.5690  310.2040 O.2   220  LEU220     -0.2864
    196  CB       -99.1700 -179.4910  311.7610 C.3   220  LEU220      0.0297
    197  CG       -98.0330 -178.8680  312.5870 C.3   220  LEU220      0.0022
    198  CD1      -98.5880 -177.9270  313.6690 C.3   220  LEU220      0.0001
    199  CD2      -97.0950 -179.9580  313.1350 C.3   220  LEU220      0.0001
    200  N        -99.6610 -176.5330  306.9850 N.3   222  SER222     -0.1202
    201  CA      -100.3700 -175.4060  306.4000 C.3   222  SER222      0.2020
    202  C       -100.4420 -174.2550  307.4010 C.2   222  SER222      0.2618
    203  O       -100.2290 -173.0960  307.0270 O.2   222  SER222     -0.2717
    204  CB      -101.7650 -175.8520  305.9740 C.3   222  SER222      0.2103
    205  OG      -102.5310 -174.7830  305.4460 O.3   222  SER222     -0.2182
    206  N       -100.6590 -174.5810  308.6760 N.am  223  MET223     -0.1979
    207  CA      -100.7740 -173.5850  309.7500 C.3   223  MET223      0.1605
    208  C        -99.4410 -172.9390  310.1220 C.2   223  MET223      0.2287
    209  O        -99.3810 -171.7170  310.1390 O.2   223  MET223     -0.2864
    210  CB      -101.4010 -174.2600  310.9600 C.3   223  MET223      0.0413
    211  CG      -101.7710 -173.3360  312.0740 C.3   223  MET223      0.0598
    212  SD      -102.6740 -171.8080  311.7050 S.3   223  MET223     -0.1393
    213  CE      -104.3260 -172.4170  311.5300 C.3   223  MET223      0.0692
    214  N       -101.7790 -172.4280  302.5430 N.3   228  GLU228     -0.1245
    215  CA      -103.0560 -173.1260  302.4050 C.3   228  GLU228      0.1567
    216  C       -103.3940 -173.5670  300.9680 C.2   228  GLU228      0.2260
    217  O       -103.6960 -172.7060  300.1420 O.2   228  GLU228     -0.2867
    218  CB      -104.1880 -172.1980  302.9160 C.3   228  GLU228      0.0388
    219  CG      -104.5980 -172.4320  304.3590 C.3   228  GLU228      0.1160
    220  CD      -105.7100 -173.4450  304.5440 C.2   228  GLU228      0.3649
    221  OE1     -106.8270 -173.2030  304.0330 O.co2 228  GLU228     -0.2457
    222  OE2     -105.4740 -174.4670  305.2270 O.co2 228  GLU228     -0.2457
@<TRIPOS>BOND
     1    23    21    1
     2    22    21    1
     3    21    20    2
     4   217   216    2
     5    20    19    1
     6   216   215    1
     7    19    18    1
     8    18    17    1
     9   215   214    1
    10   215   218    1
    11   218   219    1
    12    17    14    1
    13   221   220   ar
    14    16    15    2
    15    15    14    1
    16   219   220    1
    17    14    13    1
    18   220   222   ar
    19   205   204    1
    20    13    11   am
    21   144   142   ar
    22   144   143   ar
    23   142   140   ar
    24   204   201    1
    25   143   141   ar
    26   140   141   ar
    27   140   139    1
    28    64    62    1
    29   201   200    1
    30   201   202    1
    31    11    12    2
    32    11    10    1
    33    74    72   ar
    34    74    75   ar
    35   139   136    1
    36    72    70   ar
    37   203   202    2
    38    76    75    1
    39   134   133    1
    40   134   128    1
    41   202   206   am
    42    75    73   ar
    43    24    25    1
    44    10     9    1
    45    62    63    1
    46    62    61    1
    47   133   132    1
    48    57    58    1
    49   136   135    1
    50   136   137    1
    51   184   185    1
    52    58    61    1
    53    58    59    1
    54   135   130   am
    55    70    69    1
    56    70    71   ar
    57   132   129    1
    58   128   129    1
    59    69    66    1
    60    65    59   am
    61    65    66    1
    62     9     3   am
    63   206   207    1
    64   185   186    1
    65   185   188    1
    66    73    71   ar
    67    25    28    1
    68    25    26    1
    69    30    28    1
    70   137   138    2
    71    27    26    2
    72    59    60    2
    73   189   188    1
    74   189   190    1
    75   129   130    1
    76   130   131    2
    77    66    67    1
    78   187   186    2
    79   186   192   am
    80    28    29    1
    81     3     4    2
    82     3     2    1
    83   207   208    1
    84   207   210    1
    85    67    68    2
    86   194   195    2
    87   194   193    1
    88    49    48    2
    89     1     2    1
    90   208   209    2
    91   192   193    1
    92   190   191    1
    93    48    47    1
    94     2     5    1
    95   193   196    1
    96   210   211    1
    97   213   212    1
    98     5     6    1
    99   183   181    1
   100   212   211    1
   101   179   178    2
   102   196   197    1
   103    47    50    1
   104    47    46    1
   105   145   146    1
   106    83    81    1
   107    50    51    1
   108   178   177    1
   109    77    78    1
   110   181   180    1
   111   197   199    1
   112   197   198    1
   113    82    81    1
   114     6     8    1
   115     6     7    1
   116    81    78    1
   117   148   147    2
   118   151   149    1
   119   146   149    1
   120   146   147    1
   121    78    79    1
   122   180   177    1
   123   180   182    1
   124    51    53   ar
   125    51    52   ar
   126   149   150    1
   127   177   176    1
   128   147   152   am
   129    38    36   am
   130   158   157    1
   131   158   159    1
   132    53    55   ar
   133    52    54   ar
   134   157   156    1
   135    42    41    2
   136    84    79   am
   137    84    85    1
   138    79    80    2
   139    99    97    1
   140   152   153    1
   141   118   119    1
   142   118   117    1
   143    36    37    2
   144    36    35    1
   145    41    40    1
   146   153   156    1
   147   153   154    1
   148   127   125    1
   149    55    56   ar
   150    87    86    2
   151    54    56   ar
   152    98    96    1
   153    97    96    1
   154    90    89    1
   155   126   124    1
   156    89    88    1
   157    89    91    1
   158    88    85    1
   159    85    86    1
   160    35    32    1
   161   167   165    1
   162   117   116    1
   163    96    93    1
   164    34    33    2
   165   154   160   am
   166   154   155    2
   167   125   124    1
   168   160   161    1
   169    40    39    1
   170    40    43    1
   171   165   164    1
   172   124   121    1
   173    33    39   am
   174    33    32    1
   175    45    43    1
   176    32    31    1
   177    43    44    1
   178   164   161    1
   179   164   166    1
   180   116   113    1
   181    93    94    1
   182    93    92    1
   183   161   162    1
   184   163   162    2
   185   113   112    1
   186   113   114    1
   187    95    94    2
   188   121   122    1
   189   121   120    1
   190   123   122    2
   191   174   173    1
   192   112   102   am
   193   173   175    1
   194   173   172    1
   195   104   105    1
   196   104   101    1
   197   115   114    2
   198   103   102    2
   199   102   101    1
   200   107   105   ar
   201   107   109   ar
   202   105   106   ar
   203   101   100    1
   204   172   169    1
   205   109   110   ar
   206   170   169    1
   207   170   171    2
   208   169   168    1
   209   106   108   ar
   210   110   108   ar
   211   110   111    1
