@<TRIPOS>MOLECULE
tmp/5otqA01.pdb
 108 100 0 0 0
SMALL
GASTEIGER

@<TRIPOS>ATOM
      1  N       -138.6100 -186.6560  314.4460 N.3    34  GLN34      -0.1231
      2  CA      -138.1920 -185.4560  313.7310 C.3    34  GLN34       0.1698
      3  C       -138.9330 -184.1990  314.2000 C.2    34  GLN34       0.2592
      4  O       -138.3670 -183.1100  314.1560 O.2    34  GLN34      -0.2718
      5  CB      -138.2860 -185.6500  312.2010 C.3    34  GLN34       0.0381
      6  CG      -139.7180 -185.7540  311.6090 C.3    34  GLN34       0.0905
      7  CD      -140.5000 -187.0170  311.9120 C.2    34  GLN34       0.2608
      8  OE1     -139.9820 -188.0260  312.4080 O.2    34  GLN34      -0.2717
      9  NE2     -141.7900 -187.0000  311.5970 N.am   34  GLN34      -0.0878
     10  N       -140.1740 -184.3690  314.7050 N.am   35  ASP35      -0.1974
     11  CA      -141.0160 -183.2840  315.2000 C.3    35  ASP35       0.1709
     12  C       -140.5710 -182.7600  316.5720 C.2    35  ASP35       0.2293
     13  O       -141.1360 -181.7690  317.0500 O.2    35  ASP35      -0.2864
     14  CB      -142.5020 -183.6950  315.1810 C.3    35  ASP35       0.1436
     15  CG      -143.0000 -184.0860  313.7930 C.2    35  ASP35       0.3671
     16  OD1     -142.5990 -183.4180  312.8010 O.co2  35  ASP35      -0.2456
     17  OD2     -143.7790 -185.0600  313.6960 O.co2  35  ASP35      -0.2456
     18  N       -137.7100 -181.4310  316.9580 N.3    37  TYR37      -0.1241
     19  CA      -136.7690 -180.3450  316.6490 C.3    37  TYR37       0.1605
     20  C       -137.2470 -179.2630  315.6820 C.2    37  TYR37       0.2264
     21  O       -137.9170 -179.5480  314.6930 O.2    37  TYR37      -0.2867
     22  CB      -135.4600 -180.9300  316.0900 C.3    37  TYR37       0.0534
     23  CG      -134.9190 -182.0740  316.9080 C.ar   37  TYR37      -0.0201
     24  CD1     -134.0820 -181.8410  317.9830 C.ar   37  TYR37      -0.0009
     25  CD2     -135.2900 -183.3800  316.6350 C.ar   37  TYR37      -0.0009
     26  CE1     -133.6050 -182.8790  318.7490 C.ar   37  TYR37       0.0417
     27  CE2     -134.8180 -184.4250  317.3960 C.ar   37  TYR37       0.0417
     28  CZ      -133.9750 -184.1640  318.4510 C.ar   37  TYR37       0.1957
     29  OH      -133.5030 -185.1900  319.2190 O.3    37  TYR37      -0.2866
     30  N       -135.7540 -176.0370  313.3590 N.3    39  LEU39      -0.1245
     31  CA      -134.5410 -175.4330  312.8130 C.3    39  LEU39       0.1561
     32  C       -134.4620 -173.9330  313.0890 C.2    39  LEU39       0.2260
     33  O       -135.4210 -173.2020  312.8510 O.2    39  LEU39      -0.2867
     34  CB      -134.4560 -175.6930  311.3080 C.3    39  LEU39       0.0270
     35  CG      -134.5310 -177.1630  310.8920 C.3    39  LEU39       0.0019
     36  CD1     -134.6300 -177.3100  309.3820 C.3    39  LEU39       0.0001
     37  CD2     -133.3390 -177.9360  311.4330 C.3    39  LEU39       0.0001
     38  N       -128.1730 -180.1300  313.7160 N.3    65  VAL65      -0.1245
     39  CA      -128.8200 -181.0870  312.8160 C.3    65  VAL65       0.1561
     40  C       -128.0520 -181.2060  311.5080 C.2    65  VAL65       0.2260
     41  O       -127.8090 -180.2030  310.8420 O.2    65  VAL65      -0.2867
     42  CB      -130.3490 -180.8050  312.6010 C.3    65  VAL65       0.0252
     43  CG1     -130.9740 -181.8270  311.6600 C.3    65  VAL65       0.0019
     44  CG2     -131.0970 -180.8070  313.9340 C.3    65  VAL65       0.0019
     45  N       -128.2790 -182.8810  307.9300 N.3    67  ILE67      -0.1245
     46  CA      -129.1570 -183.5810  307.0050 C.3    67  ILE67       0.1561
     47  C       -128.2900 -184.2490  305.9630 C.2    67  ILE67       0.2260
     48  O       -127.4280 -183.5770  305.3890 O.2    67  ILE67      -0.2867
     49  CB      -130.2070 -182.6210  306.3900 C.3    67  ILE67       0.0252
     50  CG1     -130.9730 -181.8570  307.4960 C.3    67  ILE67       0.0019
     51  CG2     -131.1580 -183.4060  305.4750 C.3    67  ILE67       0.0019
     52  CD1     -131.5540 -180.5060  307.0510 C.3    67  ILE67       0.0001
     53  N       -133.0110 -189.1120  312.9900 N.3    99  VAL99      -0.1231
     54  CA      -134.4060 -188.8290  312.5580 C.3    99  VAL99       0.1692
     55  C       -134.5590 -188.9240  311.0590 C.2    99  VAL99       0.2592
     56  O       -133.5750 -188.9040  310.3260 O.2    99  VAL99      -0.2718
     57  CB      -134.9310 -187.4680  313.1240 C.3    99  VAL99       0.0266
     58  CG1     -134.9920 -187.4600  314.6560 C.3    99  VAL99       0.0020
     59  CG2     -134.1660 -186.2450  312.5760 C.3    99  VAL99       0.0020
     60  N       -135.8140 -189.0040  310.5850 N.am  100  LYS100     -0.1966
     61  CA      -136.0860 -189.1220  309.1610 C.3   100  LYS100      0.1728
     62  C       -137.2450 -188.2110  308.8170 C.2   100  LYS100      0.2616
     63  O       -138.1860 -188.1170  309.6070 O.2   100  LYS100     -0.2715
     64  CB      -136.3700 -190.6060  308.8400 C.3   100  LYS100      0.0311
     65  CG      -136.6290 -190.9330  307.3610 C.3   100  LYS100      0.0038
     66  CD      -136.3460 -192.4230  307.0310 C.3   100  LYS100      0.0206
     67  CE      -137.3980 -193.3960  307.5420 C.3   100  LYS100      0.1093
     68  NZ      -137.0400 -194.8190  307.2780 N.3   100  LYS100     -0.1314
     69  N       -137.1090 -187.4480  307.7250 N.am  101  ASP101     -0.1958
     70  CA      -138.1420 -186.5150  307.2580 C.3   101  ASP101      0.1825
     71  C       -139.1130 -187.3200  306.4400 C.2   101  ASP101      0.2464
     72  O       -138.6950 -187.9010  305.4490 O.2   101  ASP101     -0.2730
     73  CB      -137.5200 -185.4120  306.4040 C.3   101  ASP101      0.1450
     74  CG      -138.4870 -184.4380  305.7620 C.2   101  ASP101      0.3671
     75  OD1     -139.5370 -184.1370  306.3810 O.co2 101  ASP101     -0.2456
     76  OD2     -138.1830 -183.9560  304.6690 O.co2 101  ASP101     -0.2456
     77  N       -140.3900 -187.4550  306.8590 N.am  102  PRO102     -0.2727
     78  CA      -141.3410 -188.2630  306.0570 C.3   102  PRO102      0.1402
     79  C       -141.6940 -187.5930  304.7280 C.2   102  PRO102      0.2269
     80  O       -142.2000 -188.2560  303.8180 O.2   102  PRO102     -0.2865
     81  CB      -142.5720 -188.3690  306.9660 C.3   102  PRO102      0.0296
     82  CG      -142.5080 -187.1410  307.8080 C.3   102  PRO102      0.0237
     83  CD      -141.0440 -186.8430  308.0310 C.3   102  PRO102      0.0939
     84  N       -139.3650 -185.7160  302.5760 N.3   104  SER104     -0.1217
     85  CA      -138.3460 -186.0210  301.5750 C.3   104  SER104      0.1889
     86  C       -137.7160 -187.4060  301.7210 C.2   104  SER104      0.2288
     87  O       -136.9330 -187.8070  300.8520 O.2   104  SER104     -0.2866
     88  CB      -137.2620 -184.9510  301.5870 C.3   104  SER104      0.2089
     89  OG      -136.5740 -184.9910  302.8260 O.3   104  SER104     -0.2183
     90  N       -135.4980 -188.2960  303.7910 N.3   106  THR106     -0.1218
     91  CA      -134.0640 -188.1040  303.9750 C.3   106  THR106      0.1862
     92  C       -133.7440 -188.1950  305.4630 C.2   106  THR106      0.2287
     93  O       -134.4430 -187.6260  306.2710 O.2   106  THR106     -0.2866
     94  CB      -133.6170 -186.7670  303.3610 C.3   106  THR106      0.1770
     95  OG1     -133.8640 -186.7130  301.9560 O.3   106  THR106     -0.2211
     96  CG2     -132.2360 -186.6450  303.4910 C.3   106  THR106      0.0375
     97  N       -131.3960 -187.6090  309.0150 N.3   108  ALA108     -0.1245
     98  CA      -130.5730 -186.5850  309.6120 C.3   108  ALA108      0.1562
     99  C       -130.0260 -187.0940  310.9140 C.2   108  ALA108      0.2260
    100  O       -130.6550 -187.9050  311.6100 O.2   108  ALA108     -0.2867
    101  CB      -131.3480 -185.2830  309.8470 C.3   108  ALA108      0.0290
    102  N       -128.6990 -185.9020  314.6260 N.3   110  VAL110     -0.1245
    103  CA      -128.8050 -184.8080  315.5720 C.3   110  VAL110      0.1561
    104  C       -127.6590 -184.9460  316.5700 C.2   110  VAL110      0.2260
    105  O       -127.5120 -185.9950  317.1780 O.2   110  VAL110     -0.2867
    106  CB      -130.1830 -184.7750  316.2810 C.3   110  VAL110      0.0252
    107  CG1     -130.3260 -183.5300  317.1500 C.3   110  VAL110      0.0019
    108  CG2     -131.3220 -184.8560  315.2620 C.3   110  VAL110      0.0019
@<TRIPOS>BOND
     1    87    86    2
     2    85    88    1
     3    85    86    1
     4    85    84    1
     5    88    89    1
     6    95    94    1
     7    94    96    1
     8    94    91    1
     9    90    91    1
    10    80    79    2
    11    91    92    1
    12    76    74   ar
    13    79    78    1
    14    48    47    2
    15    72    71    2
    16    92    93    2
    17    51    49    1
    18    74    75   ar
    19    74    73    1
    20    47    46    1
    21    78    77    1
    22    78    81    1
    23    49    46    1
    24    49    50    1
    25    73    70    1
    26    71    77   am
    27    71    70    1
    28    77    83    1
    29    81    82    1
    30    46    45    1
    31    66    65    1
    32    66    67    1
    33    52    50    1
    34    70    69    1
    35    68    67    1
    36    65    64    1
    37    69    62   am
    38    82    83    1
    39    62    61    1
    40    62    63    2
    41    64    61    1
    42    97    98    1
    43    61    60    1
    44    36    35    1
    45    98   101    1
    46    98    99    1
    47    56    55    2
    48    60    55   am
    49    41    40    2
    50    35    34    1
    51    35    37    1
    52    99   100    2
    53    55    54    1
    54    34    31    1
    55    40    39    1
    56     9     7   am
    57     6     7    1
    58     6     5    1
    59    43    42    1
    60     7     8    2
    61     5     2    1
    62    54    53    1
    63    54    57    1
    64    59    57    1
    65    42    39    1
    66    42    44    1
    67    16    15   ar
    68    31    32    1
    69    31    30    1
    70    39    38    1
    71    33    32    2
    72    57    58    1
    73    17    15   ar
    74     2     3    1
    75     2     1    1
    76    15    14    1
    77     4     3    2
    78     3    10   am
    79   102   103    1
    80    21    20    2
    81    10    11    1
    82    14    11    1
    83    11    12    1
    84   108   106    1
    85   103   106    1
    86   103   104    1
    87    20    19    1
    88    22    19    1
    89    22    23    1
    90   106   107    1
    91   104   105    2
    92    12    13    2
    93    25    23   ar
    94    25    27   ar
    95    19    18    1
    96    23    24   ar
    97    27    28   ar
    98    24    26   ar
    99    28    26   ar
   100    28    29    1
