@<TRIPOS>MOLECULE
tmp/5otrA00.pdb
 147 141 0 0 0
SMALL
GASTEIGER

@<TRIPOS>ATOM
      1  N       -121.7320 -173.1210  312.2740 N.3   116  ASN116     -0.1240
      2  CA      -120.4620 -173.0740  311.5710 C.3   116  ASN116      0.1653
      3  C       -120.0350 -171.6700  311.2030 C.2   116  ASN116      0.2266
      4  O       -120.7560 -170.9200  310.5490 O.2   116  ASN116     -0.2867
      5  CB      -120.5420 -173.9580  310.3140 C.3   116  ASN116      0.1155
      6  CG      -119.2290 -174.0340  309.5390 C.2   116  ASN116      0.2627
      7  OD1     -118.1360 -174.0770  310.1100 O.2   116  ASN116     -0.2716
      8  ND2     -119.3410 -174.0700  308.2160 N.am  116  ASN116     -0.0877
      9  N       -116.2850 -170.2630  306.4850 N.3   119  PHE119     -0.1241
     10  CA      -115.0640 -171.0020  306.1430 C.3   119  PHE119      0.1605
     11  C       -113.9430 -170.1270  305.5780 C.2   119  PHE119      0.2264
     12  O       -112.7720 -170.3780  305.8780 O.2   119  PHE119     -0.2867
     13  CB      -115.3500 -172.2050  305.2290 C.3   119  PHE119      0.0534
     14  CG      -115.8360 -171.9330  303.8290 C.ar  119  PHE119     -0.0203
     15  CD1     -117.1950 -171.7980  303.5590 C.ar  119  PHE119     -0.0042
     16  CD2     -114.9450 -171.8890  302.7620 C.ar  119  PHE119     -0.0042
     17  CE1     -117.6470 -171.5740  302.2520 C.ar  119  PHE119     -0.0003
     18  CE2     -115.4000 -171.6650  301.4560 C.ar  119  PHE119     -0.0003
     19  CZ      -116.7440 -171.4990  301.2110 C.ar  119  PHE119     -0.0000
     20  N       -112.3390 -168.3980  308.5180 N.3   122  LEU122     -0.1231
     21  CA      -111.4370 -169.2680  309.2680 C.3   122  LEU122      0.1693
     22  C       -110.1420 -169.4680  308.4760 C.2   122  LEU122      0.2592
     23  O       -109.0620 -169.3460  309.0490 O.2   122  LEU122     -0.2718
     24  CB      -112.0940 -170.6460  309.5500 C.3   122  LEU122      0.0284
     25  CG      -113.3240 -170.6490  310.4770 C.3   122  LEU122      0.0019
     26  CD1     -114.0600 -171.9900  310.3990 C.3   122  LEU122      0.0001
     27  CD2     -112.9330 -170.4030  311.9180 C.3   122  LEU122      0.0001
     28  N       -110.2380 -169.7570  307.1650 N.am  123  TYR123     -0.1976
     29  CA      -108.9980 -169.9250  306.3850 C.3   123  TYR123      0.1639
     30  C       -108.0910 -168.6840  306.4890 C.2   123  TYR123      0.2290
     31  O       -106.8680 -168.7950  306.6880 O.2   123  TYR123     -0.2864
     32  CB      -109.3210 -170.2260  304.9160 C.3   123  TYR123      0.0560
     33  CG      -108.0740 -170.4950  304.0940 C.ar  123  TYR123     -0.0198
     34  CD1     -107.3980 -169.4600  303.4540 C.ar  123  TYR123     -0.0009
     35  CD2     -107.5640 -171.7850  303.9680 C.ar  123  TYR123     -0.0009
     36  CE1     -106.2030 -169.6930  302.7710 C.ar  123  TYR123      0.0417
     37  CE2     -106.3720 -172.0260  303.2910 C.ar  123  TYR123      0.0417
     38  CZ      -105.7040 -170.9810  302.6790 C.ar  123  TYR123      0.1957
     39  OH      -104.5680 -171.2360  301.9490 O.3   123  TYR123     -0.2866
     40  N       -107.4630 -167.9060  311.0950 N.3   126  LEU126     -0.1245
     41  CA      -106.9950 -168.7840  312.1710 C.3   126  LEU126      0.1561
     42  C       -105.5120 -168.5550  312.3840 C.2   126  LEU126      0.2260
     43  O       -104.7400 -168.4280  311.4300 O.2   126  LEU126     -0.2867
     44  CB      -107.2490 -170.2760  311.8630 C.3   126  LEU126      0.0270
     45  CG      -108.6930 -170.7570  312.0170 C.3   126  LEU126      0.0019
     46  CD1     -108.8070 -172.2480  311.6640 C.3   126  LEU126      0.0001
     47  CD2     -109.2150 -170.5520  313.4440 C.3   126  LEU126      0.0001
     48  N       -104.7260 -173.3290  314.4150 N.3   131  ILE131     -0.1245
     49  CA      -104.5830 -174.4160  313.4420 C.3   131  ILE131      0.1561
     50  C       -104.1890 -175.7080  314.1860 C.2   131  ILE131      0.2260
     51  O       -104.7580 -176.7840  313.9380 O.2   131  ILE131     -0.2867
     52  CB      -103.5950 -174.0340  312.3470 C.3   131  ILE131      0.0252
     53  CG1     -104.2010 -172.9180  311.4750 C.3   131  ILE131      0.0019
     54  CG2     -103.2020 -175.2650  311.4960 C.3   131  ILE131      0.0019
     55  CD1     -103.1280 -172.1970  310.6770 C.3   131  ILE131      0.0001
     56  N       -107.2800 -177.0160  316.2780 N.3   134  TYR134     -0.1227
     57  CA      -108.3060 -177.6950  315.4910 C.3   134  TYR134      0.1736
     58  C       -107.8020 -178.9570  314.8410 C.2   134  TYR134      0.2595
     59  O       -108.5610 -179.9320  314.7730 O.2   134  TYR134     -0.2718
     60  CB      -108.9830 -176.7550  314.5080 C.3   134  TYR134      0.0548
     61  CG      -109.8660 -175.7360  315.2010 C.ar  134  TYR134     -0.0200
     62  CD1     -110.9250 -176.1370  316.0110 C.ar  134  TYR134     -0.0009
     63  CD2     -109.6820 -174.3700  314.9940 C.ar  134  TYR134     -0.0009
     64  CE1     -111.7390 -175.2080  316.6520 C.ar  134  TYR134      0.0417
     65  CE2     -110.5200 -173.4300  315.5930 C.ar  134  TYR134      0.0417
     66  CZ      -111.5320 -173.8580  316.4410 C.ar  134  TYR134      0.1957
     67  OH      -112.3780 -172.9470  317.0290 O.3   134  TYR134     -0.2866
     68  N       -106.5230 -178.9920  314.4460 N.am  135  MET135     -0.1979
     69  CA      -105.9660 -180.2320  313.9180 C.3   135  MET135      0.1605
     70  C       -106.0130 -181.3370  314.9670 C.2   135  MET135      0.2287
     71  O       -106.3220 -182.4780  314.6300 O.2   135  MET135     -0.2864
     72  CB      -104.5360 -180.0200  313.4250 C.3   135  MET135      0.0413
     73  CG      -104.4730 -179.2210  312.1500 C.3   135  MET135      0.0598
     74  SD      -104.8980 -180.2300  310.6970 S.3   135  MET135     -0.1393
     75  CE      -103.4760 -181.4110  310.7260 C.3   135  MET135      0.0692
     76  N       -109.5350 -182.6530  315.1470 N.3   138  ILE138     -0.1245
     77  CA      -109.8180 -183.5700  314.0120 C.3   138  ILE138      0.1561
     78  C       -109.1900 -184.9510  314.2920 C.2   138  ILE138      0.2260
     79  O       -109.8150 -185.9840  314.0440 O.2   138  ILE138     -0.2867
     80  CB      -109.3090 -183.0050  312.6610 C.3   138  ILE138      0.0252
     81  CG1     -110.0610 -181.7060  312.3080 C.3   138  ILE138      0.0019
     82  CG2     -109.4910 -184.0560  311.5440 C.3   138  ILE138      0.0019
     83  CD1     -109.3710 -180.8770  311.1880 C.3   138  ILE138      0.0001
     84  N       -111.7370 -179.7380  304.3530 N.3   157  PRO157     -0.2102
     85  CA      -112.3350 -178.7140  305.2220 C.3   157  PRO157      0.1504
     86  C       -113.8510 -178.5670  305.1300 C.2   157  PRO157      0.2575
     87  O       -114.4750 -178.2660  306.1310 O.2   157  PRO157     -0.2718
     88  CB      -111.6430 -177.4180  304.7670 C.3   157  PRO157      0.0282
     89  CG      -110.3480 -177.8580  304.1720 C.3   157  PRO157      0.0208
     90  CD      -110.6420 -179.1830  303.5200 C.3   157  PRO157      0.0893
     91  N       -114.4420 -178.7910  303.9440 N.am  158  HIS158     -0.1976
     92  CA      -115.9020 -178.6730  303.7510 C.3   158  HIS158      0.1656
     93  C       -116.6390 -179.6870  304.6170 C.2   158  HIS158      0.2291
     94  O       -117.8130 -179.5050  304.9380 O.2   158  HIS158     -0.2864
     95  CB      -116.2560 -178.8480  302.2620 C.3   158  HIS158      0.0771
     96  CG      -117.6950 -178.6370  301.9020 C.ar  158  HIS158      0.0820
     97  ND1     -118.4860 -179.6870  301.4290 N.ar  158  HIS158     -0.2267
     98  CD2     -118.4330 -177.4970  301.8890 C.ar  158  HIS158      0.1154
     99  CE1     -119.6740 -179.1530  301.1640 C.ar  158  HIS158      0.1986
    100  NE2     -119.7030 -177.8450  301.4500 N.ar  158  HIS158     -0.2212
    101  N       -115.6980 -180.4720  307.7180 N.3   160  VAL160     -0.1231
    102  CA      -115.3960 -180.2080  309.1160 C.3   160  VAL160      0.1692
    103  C       -116.0790 -178.9120  309.4760 C.2   160  VAL160      0.2592
    104  O       -115.6860 -177.8610  308.9660 O.2   160  VAL160     -0.2718
    105  CB      -113.8800 -180.1270  309.4010 C.3   160  VAL160      0.0266
    106  CG1     -113.6250 -179.8760  310.8920 C.3   160  VAL160      0.0020
    107  CG2     -113.1520 -181.3980  308.9280 C.3   160  VAL160      0.0020
    108  N       -117.0650 -178.9840  310.3710 N.am  161  MET161     -0.1965
    109  CA      -117.8040 -177.8000  310.8340 C.3   161  MET161      0.1736
    110  C       -117.1230 -177.2320  312.0570 C.2   161  MET161      0.2616
    111  O       -116.8570 -177.9740  313.0080 O.2   161  MET161     -0.2715
    112  CB      -119.2590 -178.1970  311.1770 C.3   161  MET161      0.0427
    113  CG      -119.9840 -178.8380  310.0100 C.3   161  MET161      0.0599
    114  SD      -120.6040 -177.6580  308.7800 S.3   161  MET161     -0.1393
    115  CE      -119.3360 -177.7520  307.5320 C.3   161  MET161      0.0692
    116  N       -116.7810 -175.9220  312.0360 N.am  162  ILE162     -0.1977
    117  CA      -116.1670 -175.3180  313.2110 C.3   162  ILE162      0.1596
    118  C       -117.0430 -174.1860  313.7120 C.2   162  ILE162      0.2287
    119  O       -117.3500 -173.2680  312.9490 O.2   162  ILE162     -0.2864
    120  CB      -114.7280 -174.8080  312.9440 C.3   162  ILE162      0.0276
    121  CG1     -113.8160 -175.9640  312.4740 C.3   162  ILE162      0.0022
    122  CG2     -114.1750 -174.0920  314.1920 C.3   162  ILE162      0.0022
    123  CD1     -112.4100 -175.5950  312.1650 C.3   162  ILE162      0.0001
    124  N       -104.8770 -180.9550  303.7940 N.3   219  MET219     -0.1230
    125  CA      -105.5570 -179.8440  304.4740 C.3   219  MET219      0.1702
    126  C       -104.5540 -178.9860  305.2500 C.2   219  MET219      0.2592
    127  O       -104.6260 -177.7370  305.1960 O.2   219  MET219     -0.2718
    128  CB      -106.5710 -180.3960  305.4770 C.3   219  MET219      0.0401
    129  CG      -107.7490 -180.9830  304.8540 C.3   219  MET219      0.0596
    130  SD      -108.8810 -181.4940  306.1730 S.3   219  MET219     -0.1393
    131  CE      -108.9760 -180.1430  307.1150 C.3   219  MET219      0.0692
    132  N       -103.6420 -179.6190  306.0030 N.am  220  LEU220     -0.1980
    133  CA      -102.6730 -178.8590  306.7670 C.3   220  LEU220      0.1596
    134  C       -101.7480 -178.0660  305.8390 C.2   220  LEU220      0.2287
    135  O       -101.4880 -176.8980  306.1070 O.2   220  LEU220     -0.2864
    136  CB      -101.8540 -179.7780  307.6660 C.3   220  LEU220      0.0297
    137  CG      -100.8860 -179.0380  308.5930 C.3   220  LEU220      0.0022
    138  CD1     -101.6550 -178.0480  309.5270 C.3   220  LEU220      0.0001
    139  CD2     -100.0360 -180.0170  309.3620 C.3   220  LEU220      0.0001
    140  N       -103.3990 -174.9310  304.4640 N.3   223  MET223     -0.1245
    141  CA      -103.5970 -173.9690  305.5420 C.3   223  MET223      0.1570
    142  C       -102.3210 -173.2290  305.9570 C.2   223  MET223      0.2261
    143  O       -102.3260 -171.9940  306.0410 O.2   223  MET223     -0.2867
    144  CB      -104.2190 -174.7020  306.7410 C.3   223  MET223      0.0387
    145  CG      -104.4690 -173.8380  307.9550 C.3   223  MET223      0.0595
    146  SD      -105.5120 -172.3680  307.7340 S.3   223  MET223     -0.1393
    147  CE      -106.3470 -172.7940  306.3180 C.3   223  MET223      0.0692
@<TRIPOS>BOND
     1    99    97   ar
     2    99   100   ar
     3    19    18   ar
     4    19    17   ar
     5    97    96   ar
     6   100    98   ar
     7    18    16   ar
     8    98    96   ar
     9    96    95    1
    10    39    38    1
    11    17    15   ar
    12    95    92    1
    13    38    36   ar
    14    38    37   ar
    15    16    14   ar
    16    36    34   ar
    17    37    35   ar
    18    34    33   ar
    19    90    89    1
    20    90    84    1
    21    15    14   ar
    22    92    91    1
    23    92    93    1
    24   124   125    1
    25    14    13    1
    26    91    86   am
    27    35    33   ar
    28    33    32    1
    29    89    88    1
    30    84    85    1
    31   140   141    1
    32   125   126    1
    33   125   128    1
    34    93    94    2
    35    88    85    1
    36   129   128    1
    37   129   130    1
    38    32    29    1
    39    86    85    1
    40    86    87    2
    41   127   126    2
    42    13    10    1
    43   126   132   am
    44   141   142    1
    45   141   144    1
    46    11    12    2
    47    11    10    1
    48   134   135    2
    49   134   133    1
    50   142   143    2
    51   132   133    1
    52    10     9    1
    53   130   131    1
    54   147   146    1
    55    29    30    1
    56    29    28    1
    57    30    31    2
    58   144   145    1
    59   133   136    1
    60    28    22   am
    61   115   114    1
    62   136   137    1
    63   101   102    1
    64   146   145    1
    65     8     6   am
    66    22    23    2
    67    22    21    1
    68    20    21    1
    69   137   139    1
    70   137   138    1
    71   114   113    1
    72   107   105    1
    73   104   103    2
    74   102   105    1
    75   102   103    1
    76    21    24    1
    77   105   106    1
    78   103   108   am
    79     6     7    2
    80     6     5    1
    81    24    25    1
    82   113   112    1
    83     5     2    1
    84   108   109    1
    85    26    25    1
    86    25    27    1
    87     4     3    2
    88    55    53    1
    89    74    75    1
    90    74    73    1
    91   109   112    1
    92   109   110    1
    93    40    41    1
    94    83    81    1
    95     3     2    1
    96    43    42    2
    97    53    52    1
    98    54    52    1
    99    82    80    1
   100     2     1    1
   101    46    45    1
   102    44    45    1
   103    44    41    1
   104    45    47    1
   105   116   110   am
   106   116   117    1
   107   110   111    2
   108    73    72    1
   109   123   121    1
   110    41    42    1
   111    81    80    1
   112    52    49    1
   113   121   120    1
   114    80    77    1
   115   120   117    1
   116   120   122    1
   117   119   118    2
   118   117   118    1
   119    72    69    1
   120    49    50    1
   121    49    48    1
   122    69    68    1
   123    69    70    1
   124    51    50    2
   125    77    78    1
   126    77    76    1
   127    79    78    2
   128    68    58   am
   129    60    61    1
   130    60    57    1
   131    71    70    2
   132    59    58    2
   133    58    57    1
   134    63    61   ar
   135    63    65   ar
   136    61    62   ar
   137    57    56    1
   138    65    66   ar
   139    62    64   ar
   140    66    64   ar
   141    66    67    1
