@<TRIPOS>MOLECULE
tmp/5otrA02.pdb
 136 128 0 0 0
SMALL
GASTEIGER

@<TRIPOS>ATOM
      1  N       -129.8520 -174.9640  302.8600 N.3    43  LEU43      -0.1231
      2  CA      -128.4480 -174.5650  303.0470 C.3    43  LEU43       0.1693
      3  C       -127.6010 -174.9050  301.8200 C.2    43  LEU43       0.2592
      4  O       -126.5850 -174.2610  301.5660 O.2    43  LEU43      -0.2718
      5  CB      -127.8110 -175.1820  304.3060 C.3    43  LEU43       0.0284
      6  CG      -128.4250 -174.8690  305.6640 C.3    43  LEU43       0.0019
      7  CD1     -127.7220 -175.6700  306.7610 C.3    43  LEU43       0.0001
      8  CD2     -128.3910 -173.3850  305.9860 C.3    43  LEU43       0.0001
      9  N       -128.0040 -175.9200  301.0810 N.am   44  GLY44      -0.1957
     10  CA      -127.2700 -176.3160  299.8900 C.3    44  GLY44       0.1869
     11  C       -127.6600 -177.6590  299.3280 C.2    44  GLY44       0.2309
     12  O       -128.5100 -178.3590  299.8840 O.2    44  GLY44      -0.2863
     13  N       -127.1110 -185.1230  298.2320 N.3    49  SER49      -0.1217
     14  CA      -128.2600 -184.7050  299.0400 C.3    49  SER49       0.1889
     15  C       -128.5780 -183.2330  298.9180 C.2    49  SER49       0.2288
     16  O       -127.7850 -182.4760  298.3650 O.2    49  SER49      -0.2866
     17  CB      -127.9900 -185.0200  300.5150 C.3    49  SER49       0.2089
     18  OG      -126.9630 -184.1840  301.0320 O.3    49  SER49      -0.2183
     19  N       -129.5150 -180.1840  301.7040 N.3    51  VAL51      -0.1245
     20  CA      -129.3740 -179.9130  303.1340 C.3    51  VAL51       0.1561
     21  C       -130.2130 -178.7170  303.5360 C.2    51  VAL51       0.2260
     22  O       -130.1790 -177.6880  302.8600 O.2    51  VAL51      -0.2867
     23  CB      -127.8720 -179.7210  303.4830 C.3    51  VAL51       0.0252
     24  CG1     -127.6750 -179.5230  304.9790 C.3    51  VAL51       0.0019
     25  CG2     -127.0420 -180.9120  303.0010 C.3    51  VAL51       0.0019
     26  N       -130.3200 -180.0860  311.4640 N.3    64  VAL64      -0.1245
     27  CA      -129.9770 -180.0570  310.0450 C.3    64  VAL64       0.1561
     28  C       -130.5690 -181.3140  309.4140 C.2    64  VAL64       0.2260
     29  O       -130.3990 -182.4010  309.9490 O.2    64  VAL64      -0.2867
     30  CB      -128.4510 -179.9170  309.8150 C.3    64  VAL64       0.0252
     31  CG1     -128.0600 -180.3240  308.4010 C.3    64  VAL64       0.0019
     32  CG2     -128.0170 -178.4860  310.0970 C.3    64  VAL64       0.0019
     33  N       -130.6660 -183.6930  306.0390 N.3    66  LYS66      -0.1245
     34  CA      -129.9960 -184.0700  304.8170 C.3    66  LYS66       0.1561
     35  C       -130.9460 -185.0260  304.0530 C.2    66  LYS66       0.2260
     36  O       -131.1000 -186.1800  304.4400 O.2    66  LYS66      -0.2867
     37  CB      -128.6050 -184.6860  305.1530 C.3    66  LYS66       0.0271
     38  CG      -127.8610 -185.3040  303.9940 C.3    66  LYS66       0.0035
     39  CD      -126.4720 -185.7970  304.4290 C.3    66  LYS66       0.0206
     40  CE      -125.6380 -186.2750  303.2600 C.3    66  LYS66       0.1093
     41  NZ      -124.4440 -187.0400  303.7160 N.3    66  LYS66      -0.1314
     42  N       -120.2570 -185.8380  314.3540 N.3    93  ILE93      -0.1245
     43  CA      -121.6080 -185.2680  314.2740 C.3    93  ILE93       0.1561
     44  C       -122.6320 -186.2880  314.8180 C.2    93  ILE93       0.2260
     45  O       -122.4410 -187.4950  314.6350 O.2    93  ILE93      -0.2867
     46  CB      -121.8730 -184.8530  312.7960 C.3    93  ILE93       0.0252
     47  CG1     -123.0510 -183.8400  312.6960 C.3    93  ILE93       0.0019
     48  CG2     -122.0790 -186.0860  311.8580 C.3    93  ILE93       0.0019
     49  CD1     -122.7190 -182.4390  313.2670 C.3    93  ILE93       0.0001
     50  N       -129.5960 -184.3180  311.7680 N.3   111  PHE111     -0.1227
     51  CA      -128.4050 -184.1260  312.5880 C.3   111  PHE111      0.1736
     52  C       -128.5260 -182.9770  313.5670 C.2   111  PHE111      0.2595
     53  O       -129.3270 -182.0470  313.3990 O.2   111  PHE111     -0.2718
     54  CB      -127.2100 -183.8180  311.6740 C.3   111  PHE111      0.0547
     55  CG      -126.8580 -184.8780  310.6710 C.ar  111  PHE111     -0.0202
     56  CD1     -126.0130 -185.9340  311.0160 C.ar  111  PHE111     -0.0042
     57  CD2     -127.3520 -184.8230  309.3730 C.ar  111  PHE111     -0.0042
     58  CE1     -125.6770 -186.9050  310.0790 C.ar  111  PHE111     -0.0003
     59  CE2     -127.0550 -185.8220  308.4550 C.ar  111  PHE111     -0.0003
     60  CZ      -126.2020 -186.8470  308.8030 C.ar  111  PHE111     -0.0000
     61  N       -127.6430 -182.9880  314.5700 N.am  112  GLU112     -0.1965
     62  CA      -127.5300 -181.8560  315.4840 C.3   112  GLU112      0.1733
     63  C       -127.0030 -180.7080  314.6560 C.2   112  GLU112      0.2616
     64  O       -126.2420 -180.9250  313.7000 O.2   112  GLU112     -0.2715
     65  CB      -126.5240 -182.1710  316.6060 C.3   112  GLU112      0.0429
     66  CG      -125.1350 -182.4520  316.0590 C.3   112  GLU112      0.1163
     67  CD      -124.0180 -182.4920  317.0700 C.2   112  GLU112      0.3649
     68  OE1     -124.0120 -181.6750  318.0180 O.co2 112  GLU112     -0.2457
     69  OE2     -123.1190 -183.3340  316.8820 O.co2 112  GLU112     -0.2457
     70  N       -127.4240 -179.4840  314.9930 N.am  113  HIS113     -0.1959
     71  CA      -126.9920 -178.3070  314.2670 C.3   113  HIS113      0.1787
     72  C       -125.6990 -177.8020  314.8890 C.2   113  HIS113      0.2620
     73  O       -125.5490 -177.8490  316.1130 O.2   113  HIS113     -0.2715
     74  CB      -128.0780 -177.2080  314.3560 C.3   113  HIS113      0.0785
     75  CG      -127.7030 -175.9510  313.6430 C.ar  113  HIS113      0.0821
     76  ND1     -127.1870 -174.8720  314.3240 N.ar  113  HIS113     -0.2267
     77  CD2     -127.7470 -175.6570  312.3220 C.ar  113  HIS113      0.1154
     78  CE1     -126.9520 -173.9430  313.4080 C.ar  113  HIS113      0.1986
     79  NE2     -127.2790 -174.3660  312.1860 N.ar  113  HIS113     -0.2212
     80  N       -124.7780 -177.3320  314.0360 N.am  114  VAL114     -0.1977
     81  CA      -123.5220 -176.6860  314.4060 C.3   114  VAL114      0.1596
     82  C       -123.5550 -175.2920  313.7830 C.2   114  VAL114      0.2287
     83  O       -123.7830 -175.1670  312.5810 O.2   114  VAL114     -0.2864
     84  CB      -122.2690 -177.4810  313.9310 C.3   114  VAL114      0.0276
     85  CG1     -120.9640 -176.7890  314.3590 C.3   114  VAL114      0.0022
     86  CG2     -122.3130 -178.9130  314.4350 C.3   114  VAL114      0.0022
     87  N       -121.7320 -173.1210  312.2740 N.3   116  ASN116     -0.1240
     88  CA      -120.4620 -173.0740  311.5710 C.3   116  ASN116      0.1653
     89  C       -120.0350 -171.6700  311.2030 C.2   116  ASN116      0.2266
     90  O       -120.7560 -170.9200  310.5490 O.2   116  ASN116     -0.2867
     91  CB      -120.5420 -173.9580  310.3140 C.3   116  ASN116      0.1155
     92  CG      -119.2290 -174.0340  309.5390 C.2   116  ASN116      0.2627
     93  OD1     -118.1360 -174.0770  310.1100 O.2   116  ASN116     -0.2716
     94  ND2     -119.3410 -174.0700  308.2160 N.am  116  ASN116     -0.0877
     95  N       -114.4420 -178.7910  303.9440 N.3   158  HIS158     -0.1226
     96  CA      -115.9020 -178.6730  303.7510 C.3   158  HIS158      0.1752
     97  C       -116.6390 -179.6870  304.6170 C.2   158  HIS158      0.2596
     98  O       -117.8130 -179.5050  304.9380 O.2   158  HIS158     -0.2718
     99  CB      -116.2560 -178.8480  302.2620 C.3   158  HIS158      0.0759
    100  CG      -117.6950 -178.6370  301.9020 C.ar  158  HIS158      0.0818
    101  ND1     -118.4860 -179.6870  301.4290 N.ar  158  HIS158     -0.2268
    102  CD2     -118.4330 -177.4970  301.8890 C.ar  158  HIS158      0.1154
    103  CE1     -119.6740 -179.1530  301.1640 C.ar  158  HIS158      0.1986
    104  NE2     -119.7030 -177.8450  301.4500 N.ar  158  HIS158     -0.2212
    105  N       -115.9540 -180.7900  304.9840 N.am  159  ASN159     -0.1974
    106  CA      -116.5750 -181.7950  305.8420 C.3   159  ASN159      0.1688
    107  C       -116.2430 -181.6380  307.3250 C.2   159  ASN159      0.2292
    108  O       -116.4800 -182.5610  308.1160 O.2   159  ASN159     -0.2864
    109  CB      -116.2530 -183.2080  305.3520 C.3   159  ASN159      0.1181
    110  CG      -116.9620 -183.5000  304.0650 C.2   159  ASN159      0.2629
    111  OD1     -117.9820 -182.8650  303.7360 O.2   159  ASN159     -0.2716
    112  ND2     -116.4340 -184.4330  303.3110 N.am  159  ASN159     -0.0877
    113  N       -117.0650 -178.9840  310.3710 N.3   161  MET161     -0.1245
    114  CA      -117.8040 -177.8000  310.8340 C.3   161  MET161      0.1570
    115  C       -117.1230 -177.2320  312.0570 C.2   161  MET161      0.2261
    116  O       -116.8570 -177.9740  313.0080 O.2   161  MET161     -0.2867
    117  CB      -119.2590 -178.1970  311.1770 C.3   161  MET161      0.0387
    118  CG      -119.9840 -178.8380  310.0100 C.3   161  MET161      0.0595
    119  SD      -120.6040 -177.6580  308.7800 S.3   161  MET161     -0.1393
    120  CE      -119.3360 -177.7520  307.5320 C.3   161  MET161      0.0692
    121  N       -118.2540 -184.2430  309.6720 N.3   172  ILE172     -0.1231
    122  CA      -119.5480 -184.5710  309.0790 C.3   172  ILE172      0.1692
    123  C       -119.3830 -185.3320  307.7720 C.2   172  ILE172      0.2592
    124  O       -118.2410 -185.6530  307.3460 O.2   172  ILE172     -0.2718
    125  CB      -120.3310 -183.2320  308.8150 C.3   172  ILE172      0.0266
    126  CG1     -119.6830 -182.3860  307.6980 C.3   172  ILE172      0.0019
    127  CG2     -120.5670 -182.4060  310.0600 C.3   172  ILE172      0.0020
    128  CD1     -120.6520 -181.3280  307.0530 C.3   172  ILE172      0.0001
    129  N       -120.5330 -185.5830  307.1080 N.am  173  ASP173     -0.1974
    130  CA      -120.6130 -186.2390  305.8130 C.3   173  ASP173      0.1709
    131  C       -119.9060 -187.5710  305.7680 C.2   173  ASP173      0.2293
    132  O       -118.8530 -187.7240  305.1180 O.2   173  ASP173     -0.2864
    133  CB      -120.1630 -185.3710  304.6340 C.3   173  ASP173      0.1436
    134  CG      -120.6640 -185.9240  303.2930 C.2   173  ASP173      0.3671
    135  OD1     -121.2820 -187.0280  303.2840 O.co2 173  ASP173     -0.2456
    136  OD2     -120.3480 -185.3320  302.2590 O.co2 173  ASP173     -0.2456
@<TRIPOS>BOND
     1    13    14    1
     2    16    15    2
     3    15    14    1
     4    14    17    1
     5    11    12    2
     6    11    10    1
     7    10     9    1
     8    17    18    1
     9     9     3   am
    10   103   101   ar
    11   103   104   ar
    12   101   100   ar
    13   104   102   ar
    14     4     3    2
    15    19    20    1
    16     3     2    1
    17   102   100   ar
    18   100    99    1
    19   136   134   ar
    20    99    96    1
    21    22    21    2
    22     1     2    1
    23    25    23    1
    24     2     5    1
    25    20    23    1
    26    20    21    1
    27    40    41    1
    28    40    39    1
    29   135   134   ar
    30   134   133    1
    31   112   110   am
    32    23    24    1
    33   111   110    2
    34    96    95    1
    35    96    97    1
    36    38    39    1
    37    38    37    1
    38    35    36    2
    39    35    34    1
    40   110   109    1
    41     5     6    1
    42    97    98    2
    43    97   105   am
    44   133   130    1
    45    34    37    1
    46    34    33    1
    47   105   106    1
    48   132   131    2
    49   109   106    1
    50     6     8    1
    51     6     7    1
    52   131   130    1
    53   130   129    1
    54   106   107    1
    55   128   126    1
    56   129   123   am
    57   107   108    2
    58   124   123    2
    59   120   119    1
    60   126   125    1
    61   123   122    1
    62    94    92   am
    63    31    30    1
    64    59    60   ar
    65    59    57   ar
    66   119   118    1
    67    60    58   ar
    68   125   122    1
    69   125   127    1
    70   122   121    1
    71    57    55   ar
    72    28    29    2
    73    28    27    1
    74    92    93    2
    75    92    91    1
    76    30    27    1
    77    30    32    1
    78   118   117    1
    79    27    26    1
    80    58    56   ar
    81    91    88    1
    82   113   114    1
    83    90    89    2
    84    55    56   ar
    85    55    54    1
    86   114   117    1
    87   114   115    1
    88    89    88    1
    89    88    87    1
    90    54    51    1
    91    50    51    1
    92    48    46    1
    93   115   116    2
    94    79    77   ar
    95    79    78   ar
    96    77    75   ar
    97    83    82    2
    98    51    52    1
    99    47    46    1
   100    47    49    1
   101    46    43    1
   102    53    52    2
   103    78    76   ar
   104    52    61   am
   105    75    76   ar
   106    75    74    1
   107    64    63    2
   108    82    81    1
   109    84    85    1
   110    84    81    1
   111    84    86    1
   112    80    81    1
   113    80    72   am
   114    71    74    1
   115    71    72    1
   116    71    70    1
   117    43    42    1
   118    43    44    1
   119    61    62    1
   120    45    44    2
   121    63    70   am
   122    63    62    1
   123    72    73    2
   124    62    65    1
   125    66    65    1
   126    66    67    1
   127    69    67   ar
   128    67    68   ar
