@<TRIPOS>MOLECULE
tmp/5otsA01.pdb
 117 112 0 0 0
SMALL
GASTEIGER

@<TRIPOS>ATOM
      1  N       -137.7860 -186.0930  315.5490 N.3    34  GLN34      -0.1231
      2  CA      -137.2750 -184.8740  314.9500 C.3    34  GLN34       0.1698
      3  C       -138.0020 -183.6410  315.4850 C.2    34  GLN34       0.2592
      4  O       -137.4230 -182.5630  315.5790 O.2    34  GLN34      -0.2718
      5  CB      -137.3680 -184.9400  313.4230 C.3    34  GLN34       0.0381
      6  CG      -138.7790 -184.8510  312.8630 C.3    34  GLN34       0.0905
      7  CD      -139.5190 -186.1750  312.9000 C.2    34  GLN34       0.2608
      8  OE1     -138.9850 -187.1870  313.3440 O.2    34  GLN34      -0.2717
      9  NE2     -140.7570 -186.1690  312.4280 N.am   34  GLN34      -0.0878
     10  N       -139.2790 -183.8020  315.8070 N.am   35  ASP35      -0.1974
     11  CA      -140.1030 -182.6890  316.2700 C.3    35  ASP35       0.1709
     12  C       -139.6120 -182.1210  317.6170 C.2    35  ASP35       0.2293
     13  O       -140.0120 -181.0140  318.0020 O.2    35  ASP35      -0.2864
     14  CB      -141.5800 -183.0840  316.2610 C.3    35  ASP35       0.1436
     15  CG      -142.0300 -183.4030  314.8330 C.2    35  ASP35       0.3671
     16  OD1     -141.7590 -182.5760  313.9200 O.co2  35  ASP35      -0.2456
     17  OD2     -142.5620 -184.5160  314.6110 O.co2  35  ASP35      -0.2456
     18  N       -136.6930 -180.9180  317.8710 N.3    37  TYR37      -0.1227
     19  CA      -135.6800 -179.9080  317.5270 C.3    37  TYR37       0.1736
     20  C       -136.1310 -178.7720  316.6290 C.2    37  TYR37       0.2595
     21  O       -136.6680 -179.0050  315.5560 O.2    37  TYR37      -0.2718
     22  CB      -134.4400 -180.5910  316.9020 C.3    37  TYR37       0.0548
     23  CG      -133.9730 -181.7540  317.7450 C.ar   37  TYR37      -0.0200
     24  CD1     -133.1850 -181.5490  318.8710 C.ar   37  TYR37      -0.0009
     25  CD2     -134.3440 -183.0580  317.4360 C.ar   37  TYR37      -0.0009
     26  CE1     -132.7810 -182.6090  319.6740 C.ar   37  TYR37       0.0417
     27  CE2     -133.9630 -184.1250  318.2410 C.ar   37  TYR37       0.0417
     28  CZ      -133.1690 -183.8940  319.3510 C.ar   37  TYR37       0.1957
     29  OH      -132.7850 -184.9130  320.1630 O.3    37  TYR37      -0.2866
     30  N       -135.8340 -177.5430  317.0380 N.am   38  GLN38      -0.1965
     31  CA      -136.1410 -176.3390  316.2560 C.3    38  GLN38       0.1733
     32  C       -134.8230 -175.8460  315.6800 C.2    38  GLN38       0.2616
     33  O       -133.9040 -175.5280  316.4420 O.2    38  GLN38      -0.2715
     34  CB      -136.7830 -175.2400  317.1300 C.3    38  GLN38       0.0408
     35  CG      -138.2530 -175.4880  317.4660 C.3    38  GLN38       0.0908
     36  CD      -138.9160 -174.3620  318.2380 C.2    38  GLN38       0.2608
     37  OE1     -138.2630 -173.4520  318.7800 O.2    38  GLN38      -0.2717
     38  NE2     -140.2450 -174.4130  318.3230 N.am   38  GLN38      -0.0878
     39  N       -134.7220 -175.8140  314.3440 N.am   39  LEU39      -0.1977
     40  CA      -133.5260 -175.3630  313.6240 C.3    39  LEU39       0.1596
     41  C       -133.5070 -173.8390  313.6450 C.2    39  LEU39       0.2287
     42  O       -134.4620 -173.2210  313.1820 O.2    39  LEU39      -0.2864
     43  CB      -133.4980 -175.9460  312.1930 C.3    39  LEU39       0.0297
     44  CG      -133.5880 -177.4930  312.1010 C.3    39  LEU39       0.0022
     45  CD1     -133.8900 -177.9530  310.6830 C.3    39  LEU39       0.0001
     46  CD2     -132.3310 -178.1730  312.6370 C.3    39  LEU39       0.0001
     47  N       -127.3160 -179.9900  314.7050 N.3    65  VAL65      -0.1245
     48  CA      -127.9890 -180.9800  313.8810 C.3    65  VAL65       0.1561
     49  C       -127.2380 -181.0710  312.5400 C.2    65  VAL65       0.2260
     50  O       -127.0540 -180.0630  311.8630 O.2    65  VAL65      -0.2867
     51  CB      -129.5280 -180.7080  313.7070 C.3    65  VAL65       0.0252
     52  CG1     -130.1930 -181.7880  312.8490 C.3    65  VAL65       0.0019
     53  CG2     -130.2380 -180.6050  315.0620 C.3    65  VAL65       0.0019
     54  N       -127.3840 -182.7770  308.9420 N.3    67  ILE67      -0.1245
     55  CA      -128.2810 -183.4330  307.9980 C.3    67  ILE67       0.1561
     56  C       -127.4190 -184.1260  306.9730 C.2    67  ILE67       0.2260
     57  O       -126.6460 -183.4640  306.2790 O.2    67  ILE67      -0.2867
     58  CB      -129.3020 -182.4490  307.3550 C.3    67  ILE67       0.0252
     59  CG1     -130.0430 -181.6450  308.4440 C.3    67  ILE67       0.0019
     60  CG2     -130.2990 -183.2300  306.4880 C.3    67  ILE67       0.0019
     61  CD1     -130.7680 -180.3340  307.9580 C.3    67  ILE67       0.0001
     62  N       -132.2460 -188.8590  314.1280 N.3    99  VAL99      -0.1231
     63  CA      -133.6050 -188.5570  313.6100 C.3    99  VAL99       0.1692
     64  C       -133.7170 -188.7510  312.0870 C.2    99  VAL99       0.2592
     65  O       -132.7160 -188.8010  311.3860 O.2    99  VAL99      -0.2718
     66  CB      -134.1350 -187.1530  314.0420 C.3    99  VAL99       0.0266
     67  CG1     -134.2080 -187.0280  315.5670 C.3    99  VAL99       0.0020
     68  CG2     -133.3150 -186.0190  313.4170 C.3    99  VAL99       0.0020
     69  N       -134.9470 -188.8310  311.5840 N.am  100  LYS100     -0.1966
     70  CA      -135.2160 -189.0260  310.1650 C.3   100  LYS100      0.1728
     71  C       -136.3370 -188.1070  309.7640 C.2   100  LYS100      0.2616
     72  O       -137.3240 -188.0270  310.4840 O.2   100  LYS100     -0.2715
     73  CB      -135.5930 -190.4910  309.8960 C.3   100  LYS100      0.0311
     74  CG      -135.6470 -190.8330  308.4040 C.3   100  LYS100      0.0038
     75  CD      -135.7750 -192.3420  308.1690 C.3   100  LYS100      0.0206
     76  CE      -134.6140 -192.8820  307.3630 C.3   100  LYS100      0.1093
     77  NZ      -134.6540 -194.3650  307.2490 N.3   100  LYS100     -0.1314
     78  N       -136.1750 -187.3860  308.6380 N.am  101  ASP101     -0.1958
     79  CA      -137.2170 -186.4830  308.1340 C.3   101  ASP101      0.1825
     80  C       -138.3010 -187.3400  307.4840 C.2   101  ASP101      0.2464
     81  O       -137.9990 -188.0040  306.5050 O.2   101  ASP101     -0.2730
     82  CB      -136.6290 -185.5090  307.0980 C.3   101  ASP101      0.1450
     83  CG      -137.6340 -184.6360  306.3570 C.2   101  ASP101      0.3671
     84  OD1     -138.7730 -184.4750  306.8540 O.co2 101  ASP101     -0.2456
     85  OD2     -137.2780 -184.1050  305.2920 O.co2 101  ASP101     -0.2456
     86  N       -139.5610 -187.3610  307.9790 N.am  102  PRO102     -0.2715
     87  CA      -140.5870 -188.1580  307.2810 C.3   102  PRO102      0.1536
     88  C       -140.8880 -187.6860  305.8480 C.2   102  PRO102      0.2598
     89  O       -141.2940 -188.5220  305.0520 O.2   102  PRO102     -0.2715
     90  CB      -141.8220 -188.0400  308.1840 C.3   102  PRO102      0.0310
     91  CG      -141.6210 -186.7870  308.9440 C.3   102  PRO102      0.0237
     92  CD      -140.1320 -186.6260  309.1280 C.3   102  PRO102      0.0939
     93  N       -140.7010 -186.3870  305.5020 N.am  103  VAL103     -0.1964
     94  CA      -141.0360 -185.9460  304.1400 C.3   103  VAL103      0.1727
     95  C       -139.9220 -186.3590  303.1250 C.2   103  VAL103      0.2616
     96  O       -140.2720 -186.9160  302.0780 O.2   103  VAL103     -0.2715
     97  CB      -141.5280 -184.4650  303.9490 C.3   103  VAL103      0.0290
     98  CG1     -141.7750 -183.7220  305.2610 C.3   103  VAL103      0.0023
     99  CG2     -140.6900 -183.6500  302.9620 C.3   103  VAL103      0.0023
    100  N       -138.6100 -186.1370  303.4250 N.am  104  SER104     -0.1950
    101  CA      -137.5810 -186.5220  302.4530 C.3   104  SER104      0.1924
    102  C       -136.9020 -187.8600  302.7510 C.2   104  SER104      0.2314
    103  O       -136.1160 -188.3300  301.9230 O.2   104  SER104     -0.2863
    104  CB      -136.5180 -185.4350  302.3240 C.3   104  SER104      0.2116
    105  OG      -135.7450 -185.4230  303.5130 O.3   104  SER104     -0.2180
    106  N       -134.5900 -188.2870  304.7210 N.3   106  THR106     -0.1218
    107  CA      -133.1750 -187.9790  304.9730 C.3   106  THR106      0.1862
    108  C       -132.9000 -188.1580  306.4970 C.2   106  THR106      0.2287
    109  O       -133.6790 -187.6510  307.3070 O.2   106  THR106     -0.2866
    110  CB      -132.8880 -186.5260  304.5510 C.3   106  THR106      0.1770
    111  OG1     -133.2820 -186.3580  303.1980 O.3   106  THR106     -0.2211
    112  CG2     -131.4220 -186.1330  304.6820 C.3   106  THR106      0.0375
    113  N       -130.6270 -187.4630  310.1480 N.3   108  ALA108     -0.1245
    114  CA      -129.7840 -186.4330  310.7230 C.3   108  ALA108      0.1562
    115  C       -129.2040 -186.9350  312.0190 C.2   108  ALA108      0.2260
    116  O       -129.8310 -187.7500  312.6850 O.2   108  ALA108     -0.2867
    117  CB      -130.5490 -185.1260  310.9350 C.3   108  ALA108      0.0290
@<TRIPOS>BOND
     1   103   102    2
     2    96    95    2
     3   104   101    1
     4   104   105    1
     5   101   102    1
     6   101   100    1
     7    99    97    1
     8    95   100   am
     9    95    94    1
    10   111   110    1
    11    97    94    1
    12    97    98    1
    13    94    93    1
    14   110   112    1
    15   110   107    1
    16   106   107    1
    17   107   108    1
    18    89    88    2
    19    85    83   ar
    20    93    88   am
    21    88    87    1
    22    57    56    2
    23    83    84   ar
    24    83    82    1
    25    60    58    1
    26   108   109    2
    27    81    80    2
    28    56    55    1
    29    82    79    1
    30    77    76    1
    31    87    86    1
    32    87    90    1
    33    58    55    1
    34    58    59    1
    35    76    75    1
    36    80    86   am
    37    80    79    1
    38    61    59    1
    39    86    92    1
    40    55    54    1
    41    79    78    1
    42    75    74    1
    43    90    91    1
    44    74    73    1
    45    78    71   am
    46    91    92    1
    47    71    70    1
    48    71    72    2
    49    73    70    1
    50   113   114    1
    51    70    69    1
    52    45    44    1
    53   114   117    1
    54   114   115    1
    55    65    64    2
    56    69    64   am
    57    50    49    2
    58   115   116    2
    59    64    63    1
    60    44    43    1
    61    44    46    1
    62    43    40    1
    63     9     7   am
    64    49    48    1
    65    52    51    1
    66     6     7    1
    67     6     5    1
    68     7     8    2
    69    42    41    2
    70    68    66    1
    71     5     2    1
    72    63    66    1
    73    63    62    1
    74    40    41    1
    75    40    39    1
    76    51    48    1
    77    51    53    1
    78    48    47    1
    79    16    15   ar
    80    66    67    1
    81    39    32   am
    82    17    15   ar
    83    15    14    1
    84     2     3    1
    85     2     1    1
    86     3     4    2
    87     3    10   am
    88    21    20    2
    89    32    31    1
    90    32    33    2
    91    10    11    1
    92    31    30    1
    93    31    34    1
    94    14    11    1
    95    11    12    1
    96    20    30   am
    97    20    19    1
    98    22    19    1
    99    22    23    1
   100    34    35    1
   101    25    23   ar
   102    25    27   ar
   103    35    36    1
   104    19    18    1
   105    12    13    2
   106    23    24   ar
   107    36    38   am
   108    36    37    2
   109    27    28   ar
   110    24    26   ar
   111    28    26   ar
   112    28    29    1
