@<TRIPOS>MOLECULE
tmp/5otsA02.pdb
 110 107 0 0 0
SMALL
GASTEIGER

@<TRIPOS>ATOM
      1  N       -101.9280 -192.8790  298.5590 N.3   201  LEU201     -0.1231
      2  CA      -101.5140 -192.3850  297.2420 C.3   201  LEU201      0.1693
      3  C       -100.8780 -193.4390  296.3550 C.2   201  LEU201      0.2592
      4  O       -100.9490 -193.3230  295.1200 O.2   201  LEU201     -0.2718
      5  CB      -100.5870 -191.1770  297.4280 C.3   201  LEU201      0.0284
      6  CG      -101.2200 -190.0310  298.2550 C.3   201  LEU201      0.0019
      7  CD1     -100.2240 -188.9300  298.5360 C.3   201  LEU201      0.0001
      8  CD2     -102.4900 -189.4780  297.5840 C.3   201  LEU201      0.0001
      9  N       -100.2260 -194.4410  296.9880 N.am  202  VAL202     -0.1966
     10  CA       -99.5500 -195.5680  296.3230 C.3   202  VAL202      0.1727
     11  C       -100.4310 -196.8160  296.3280 C.2   202  VAL202      0.2616
     12  O        -99.9630 -197.8900  295.9240 O.2   202  VAL202     -0.2715
     13  CB       -98.1290 -195.8720  296.8990 C.3   202  VAL202      0.0290
     14  CG1      -97.2370 -194.6540  296.8070 C.3   202  VAL202      0.0023
     15  CG2      -98.1870 -196.4280  298.3460 C.3   202  VAL202      0.0023
     16  N       -101.7000 -196.6850  296.7730 N.am  203  ASP203     -0.1971
     17  CA      -102.6520 -197.7970  296.8160 C.3   203  ASP203      0.1709
     18  C       -102.2400 -198.9400  297.7320 C.2   203  ASP203      0.2293
     19  O       -102.4100 -200.1240  297.3780 O.2   203  ASP203     -0.2864
     20  CB      -102.9320 -198.3360  295.3770 C.3   203  ASP203      0.1436
     21  CG      -103.8990 -197.4700  294.6190 C.2   203  ASP203      0.3671
     22  OD1     -105.0580 -197.3320  295.0780 O.co2 203  ASP203     -0.2456
     23  OD2     -103.5080 -196.9330  293.5650 O.co2 203  ASP203     -0.2456
     24  N       -104.4950 -186.7940  293.0700 N.3   236  ASN236     -0.1225
     25  CA      -103.8400 -187.8080  293.9360 C.3   236  ASN236      0.1785
     26  C       -102.3800 -188.1780  293.5260 C.2   236  ASN236      0.2597
     27  O       -101.5500 -188.4540  294.4060 O.2   236  ASN236     -0.2718
     28  CB      -104.7090 -189.0720  294.0870 C.3   236  ASN236      0.1169
     29  CG      -106.0350 -188.8010  294.7730 C.2   236  ASN236      0.2627
     30  OD1     -106.2730 -187.7290  295.3450 O.2   236  ASN236     -0.2716
     31  ND2     -106.9500 -189.7490  294.6990 N.am  236  ASN236     -0.0877
     32  N       -102.0660 -188.1690  292.2080 N.am  237  TYR237     -0.1976
     33  CA      -100.7290 -188.4550  291.7020 C.3   237  TYR237      0.1639
     34  C        -99.8270 -187.2550  291.9960 C.2   237  TYR237      0.2290
     35  O        -98.7120 -187.4260  292.5030 O.2   237  TYR237     -0.2864
     36  CB      -100.7580 -188.7400  290.1800 C.3   237  TYR237      0.0560
     37  CG      -101.5420 -189.9840  289.8290 C.ar  237  TYR237     -0.0198
     38  CD1     -102.9300 -189.9440  289.6940 C.ar  237  TYR237     -0.0009
     39  CD2     -100.9010 -191.2050  289.6350 C.ar  237  TYR237     -0.0009
     40  CE1     -103.6630 -191.0920  289.3870 C.ar  237  TYR237      0.0417
     41  CE2     -101.6230 -192.3630  289.3380 C.ar  237  TYR237      0.0417
     42  CZ      -103.0050 -192.2980  289.2060 C.ar  237  TYR237      0.1957
     43  OH      -103.7300 -193.4200  288.8880 O.3   237  TYR237     -0.2866
     44  N        -98.6430 -187.0100  295.6220 N.3   240  LEU240     -0.1245
     45  CA       -97.4190 -187.7210  295.9790 C.3   240  LEU240      0.1561
     46  C        -96.1830 -186.9650  295.5100 C.2   240  LEU240      0.2260
     47  O        -95.2010 -186.9420  296.2320 O.2   240  LEU240     -0.2867
     48  CB       -97.4140 -189.1910  295.5250 C.3   240  LEU240      0.0270
     49  CG       -96.2230 -190.0440  296.0370 C.3   240  LEU240      0.0019
     50  CD1      -96.2890 -190.2760  297.5630 C.3   240  LEU240      0.0001
     51  CD2      -96.2240 -191.4100  295.3560 C.3   240  LEU240      0.0001
     52  N        -96.2170 -201.8190  294.0400 N.3   262  GLU262     -0.1231
     53  CA       -96.1260 -201.5470  292.6170 C.3   262  GLU262      0.1699
     54  C        -96.7580 -200.1810  292.3430 C.2   262  GLU262      0.2592
     55  O        -97.8950 -199.9200  292.7500 O.2   262  GLU262     -0.2718
     56  CB       -96.8680 -202.6420  291.8170 C.3   262  GLU262      0.0402
     57  CG       -96.3730 -204.0670  292.0030 C.3   262  GLU262      0.1161
     58  CD       -95.0080 -204.4380  291.4430 C.2   262  GLU262      0.3649
     59  OE1      -94.4640 -203.6770  290.6100 O.co2 262  GLU262     -0.2457
     60  OE2      -94.5010 -205.5230  291.8120 O.co2 262  GLU262     -0.2457
     61  N        -96.0250 -199.3220  291.6590 N.am  263  LEU263     -0.1966
     62  CA       -96.4780 -197.9980  291.2480 C.3   263  LEU263      0.1728
     63  C        -96.9570 -198.0370  289.7920 C.2   263  LEU263      0.2616
     64  O        -96.6410 -198.9820  289.0740 O.2   263  LEU263     -0.2715
     65  CB       -95.3220 -196.9910  291.3530 C.3   263  LEU263      0.0311
     66  CG       -94.7990 -196.6040  292.7410 C.3   263  LEU263      0.0022
     67  CD1      -93.6410 -195.5980  292.5990 C.3   263  LEU263      0.0001
     68  CD2      -95.9140 -195.9900  293.6190 C.3   263  LEU263      0.0001
     69  N        -97.6570 -196.9680  289.3510 N.am  264  ASP264     -0.1958
     70  CA       -98.1410 -196.7470  287.9810 C.3   264  ASP264      0.1825
     71  C        -96.9500 -196.7650  286.9720 C.2   264  ASP264      0.2464
     72  O        -95.8560 -196.3220  287.3410 O.2   264  ASP264     -0.2730
     73  CB       -98.8810 -195.3990  287.9250 C.3   264  ASP264      0.1450
     74  CG       -99.5310 -195.0600  286.5990 C.2   264  ASP264      0.3671
     75  OD1      -98.8050 -194.6460  285.6680 O.co2 264  ASP264     -0.2456
     76  OD2     -100.7680 -195.1700  286.5050 O.co2 264  ASP264     -0.2456
     77  N        -97.1360 -197.2640  285.7150 N.am  265  PRO265     -0.2727
     78  CA       -96.0140 -197.3410  284.7560 C.3   265  PRO265      0.1402
     79  C        -95.0970 -196.1150  284.6050 C.2   265  PRO265      0.2269
     80  O        -93.8790 -196.2860  284.4820 O.2   265  PRO265     -0.2865
     81  CB       -96.7130 -197.6420  283.4170 C.3   265  PRO265      0.0296
     82  CG       -98.2020 -197.5230  283.6860 C.3   265  PRO265      0.0237
     83  CD       -98.3460 -197.8680  285.1250 C.3   265  PRO265      0.0939
     84  N        -94.1720 -193.8560  286.7660 N.3   267  PHE267     -0.1241
     85  CA       -93.6440 -193.4550  288.0860 C.3   267  PHE267      0.1605
     86  C        -92.3660 -192.5970  288.0470 C.2   267  PHE267      0.2264
     87  O        -92.2890 -191.6140  288.7850 O.2   267  PHE267     -0.2867
     88  CB       -93.4440 -194.6710  289.0190 C.3   267  PHE267      0.0534
     89  CG       -92.2770 -195.5960  288.7370 C.ar  267  PHE267     -0.0203
     90  CD1      -91.0170 -195.3350  289.2660 C.ar  267  PHE267     -0.0042
     91  CD2      -92.4570 -196.7710  288.0160 C.ar  267  PHE267     -0.0042
     92  CE1      -89.9380 -196.1910  289.0090 C.ar  267  PHE267     -0.0003
     93  CE2      -91.3820 -197.6370  287.7750 C.ar  267  PHE267     -0.0003
     94  CZ       -90.1290 -197.3360  288.2660 C.ar  267  PHE267     -0.0000
     95  N        -93.2120 -189.1280  286.4220 N.3   270  ILE270     -0.1231
     96  CA       -94.0650 -188.3060  287.2810 C.3   270  ILE270      0.1692
     97  C        -93.2760 -187.7970  288.5170 C.2   270  ILE270      0.2591
     98  O        -93.2020 -186.5910  288.7620 O.2   270  ILE270     -0.2718
     99  CB       -95.3900 -189.0720  287.6590 C.3   270  ILE270      0.0266
    100  CG1      -96.1230 -189.6170  286.3900 C.3   270  ILE270      0.0019
    101  CG2      -96.3370 -188.1910  288.4920 C.3   270  ILE270      0.0020
    102  CD1      -97.0200 -190.8900  286.6130 C.3   270  ILE270      0.0001
    103  N        -92.6730 -188.7210  289.2620 N.am  271  LEU271     -0.1980
    104  CA       -91.9370 -188.4170  290.4910 C.3   271  LEU271      0.1596
    105  C        -90.5710 -187.7650  290.2980 C.2   271  LEU271      0.2287
    106  O        -90.1610 -186.9800  291.1530 O.2   271  LEU271     -0.2864
    107  CB       -91.7890 -189.6800  291.3680 C.3   271  LEU271      0.0297
    108  CG       -93.1060 -190.2210  291.9380 C.3   271  LEU271      0.0022
    109  CD1      -92.9050 -191.6000  292.5290 C.3   271  LEU271      0.0001
    110  CD2      -93.7160 -189.2510  292.9550 C.3   271  LEU271      0.0001
@<TRIPOS>BOND
     1    81    82    1
     2    81    78    1
     3    82    83    1
     4    80    79    2
     5    79    78    1
     6    78    77    1
     7    83    77    1
     8    75    74   ar
     9    77    71   am
    10   100   102    1
    11   100    99    1
    12    95    96    1
    13    76    74   ar
    14    74    73    1
    15    84    85    1
    16    71    72    2
    17    71    70    1
    18    96    99    1
    19    96    97    1
    20    99   101    1
    21    93    91   ar
    22    93    94   ar
    23    73    70    1
    24    70    69    1
    25    91    89   ar
    26    86    85    1
    27    86    87    2
    28    85    88    1
    29    94    92   ar
    30    97    98    2
    31    97   103   am
    32    89    88    1
    33    89    90   ar
    34    43    42    1
    35    92    90   ar
    36    64    63    2
    37    42    41   ar
    38    42    40   ar
    39   103   104    1
    40    41    39   ar
    41    69    63   am
    42    40    38   ar
    43    39    37   ar
    44    38    37   ar
    45    63    62    1
    46    37    36    1
    47    36    33    1
    48   105   104    1
    49   105   106    2
    50   104   107    1
    51    59    58   ar
    52    62    65    1
    53    62    61    1
    54    65    66    1
    55   107   108    1
    56    58    60   ar
    57    58    57    1
    58    61    54   am
    59    33    34    1
    60    33    32    1
    61    56    57    1
    62    56    53    1
    63   108   109    1
    64   108   110    1
    65    34    35    2
    66    32    26   am
    67    54    53    1
    68    54    55    2
    69    67    66    1
    70    53    52    1
    71    66    68    1
    72    24    25    1
    73    26    25    1
    74    26    27    2
    75    23    21   ar
    76    25    28    1
    77    28    29    1
    78    21    22   ar
    79    21    20    1
    80    31    29   am
    81    29    30    2
    82     4     3    2
    83    51    49    1
    84    20    17    1
    85    46    45    1
    86    46    47    2
    87    48    45    1
    88    48    49    1
    89    44    45    1
    90    12    11    2
    91    49    50    1
    92    10    11    1
    93    10    13    1
    94    10     9    1
    95    11    16   am
    96     3     9   am
    97     3     2    1
    98    16    17    1
    99    14    13    1
   100    17    18    1
   101    13    15    1
   102     2     5    1
   103     2     1    1
   104    19    18    2
   105     5     6    1
   106     8     6    1
   107     6     7    1
