@<TRIPOS>MOLECULE
tmp/5otzA01.pdb
 169 162 0 0 0
SMALL
GASTEIGER

@<TRIPOS>ATOM
      1  N       -124.7500 -173.0430  312.6010 N.3   116  ASN116     -0.1225
      2  CA      -123.4850 -173.0130  311.9090 C.3   116  ASN116      0.1785
      3  C       -123.0290 -171.6250  311.5510 C.2   116  ASN116      0.2597
      4  O       -123.6850 -170.8740  310.8360 O.2   116  ASN116     -0.2718
      5  CB      -123.5080 -173.9060  310.6680 C.3   116  ASN116      0.1169
      6  CG      -124.6510 -173.5850  309.7370 C.2   116  ASN116      0.2627
      7  OD1     -125.7470 -173.2310  310.1760 O.2   116  ASN116     -0.2716
      8  ND2     -124.4080 -173.7170  308.4390 N.am  116  ASN116     -0.0877
      9  N       -121.8460 -171.3340  312.0520 N.am  117  THR117     -0.1953
     10  CA      -121.1480 -170.0530  311.8070 C.3   117  THR117      0.1897
     11  C       -120.7130 -170.0210  310.3470 C.2   117  THR117      0.2313
     12  O       -120.2940 -171.0530  309.8070 O.2   117  THR117     -0.2863
     13  CB      -119.9390 -169.8820  312.7330 C.3   117  THR117      0.1794
     14  OG1     -120.3440 -170.0680  314.0800 O.3   117  THR117     -0.2208
     15  CG2     -119.2670 -168.5000  312.6010 C.3   117  THR117      0.0378
     16  N       -118.9390 -170.0880  306.9880 N.3   119  PHE119     -0.1241
     17  CA      -117.6700 -170.7630  306.6120 C.3   119  PHE119      0.1605
     18  C       -116.5430 -169.7820  306.2800 C.2   119  PHE119      0.2264
     19  O       -115.3820 -170.0540  306.5990 O.2   119  PHE119     -0.2867
     20  CB      -117.8500 -171.7440  305.4170 C.3   119  PHE119      0.0534
     21  CG      -116.5380 -172.1940  304.7750 C.ar  119  PHE119     -0.0203
     22  CD1     -115.7300 -173.1470  305.3910 C.ar  119  PHE119     -0.0042
     23  CD2     -116.0790 -171.6070  303.5990 C.ar  119  PHE119     -0.0042
     24  CE1     -114.4950 -173.5190  304.8340 C.ar  119  PHE119     -0.0003
     25  CE2     -114.8370 -171.9790  303.0440 C.ar  119  PHE119     -0.0003
     26  CZ      -114.0630 -172.9450  303.6600 C.ar  119  PHE119     -0.0000
     27  N       -115.2390 -168.2070  309.4040 N.3   122  LEU122     -0.1231
     28  CA      -114.3710 -169.1210  310.1500 C.3   122  LEU122      0.1693
     29  C       -113.0230 -169.2580  309.4590 C.2   122  LEU122      0.2592
     30  O       -111.9990 -169.1200  310.1000 O.2   122  LEU122     -0.2718
     31  CB      -115.0310 -170.5090  310.2780 C.3   122  LEU122      0.0284
     32  CG      -116.2880 -170.5700  311.1400 C.3   122  LEU122      0.0019
     33  CD1     -116.9350 -171.9310  311.0250 C.3   122  LEU122      0.0001
     34  CD2     -115.9620 -170.2860  312.5950 C.3   122  LEU122      0.0001
     35  N       -113.0320 -169.5100  308.1630 N.am  123  TYR123     -0.1976
     36  CA      -111.7910 -169.6890  307.4230 C.3   123  TYR123      0.1639
     37  C       -110.8660 -168.4850  307.5160 C.2   123  TYR123      0.2290
     38  O       -109.6620 -168.6220  307.7030 O.2   123  TYR123     -0.2864
     39  CB      -112.0880 -169.9930  305.9560 C.3   123  TYR123      0.0560
     40  CG      -110.8510 -170.3610  305.1750 C.ar  123  TYR123     -0.0198
     41  CD1     -110.3920 -171.6650  305.1450 C.ar  123  TYR123     -0.0009
     42  CD2     -110.1290 -169.3960  304.4880 C.ar  123  TYR123     -0.0009
     43  CE1     -109.2570 -172.0020  304.4390 C.ar  123  TYR123      0.0417
     44  CE2     -108.9930 -169.7250  303.7820 C.ar  123  TYR123      0.0417
     45  CZ      -108.5620 -171.0300  303.7630 C.ar  123  TYR123      0.1957
     46  OH      -107.4370 -171.3640  303.0610 O.3   123  TYR123     -0.2866
     47  N       -110.4400 -167.7210  312.1470 N.3   126  LEU126     -0.1245
     48  CA      -109.9830 -168.5650  313.2490 C.3   126  LEU126      0.1561
     49  C       -108.4790 -168.3720  313.4750 C.2   126  LEU126      0.2260
     50  O       -107.6900 -168.2240  312.5310 O.2   126  LEU126     -0.2867
     51  CB      -110.2710 -170.0460  312.9940 C.3   126  LEU126      0.0270
     52  CG      -111.7500 -170.5010  313.0960 C.3   126  LEU126      0.0019
     53  CD1     -111.8970 -172.0160  312.8040 C.3   126  LEU126      0.0001
     54  CD2     -112.3600 -170.1720  314.4700 C.3   126  LEU126      0.0001
     55  N       -107.7280 -173.1790  315.4350 N.3   131  ILE131     -0.1245
     56  CA      -107.5490 -174.2760  314.4870 C.3   131  ILE131      0.1561
     57  C       -107.1790 -175.5550  315.2290 C.2   131  ILE131      0.2260
     58  O       -107.7870 -176.6100  314.9780 O.2   131  ILE131     -0.2867
     59  CB      -106.4950 -173.8920  313.4440 C.3   131  ILE131      0.0252
     60  CG1     -107.0280 -172.7240  312.5790 C.3   131  ILE131      0.0019
     61  CG2     -106.1640 -175.1280  312.5510 C.3   131  ILE131      0.0019
     62  CD1     -105.8440 -172.0050  311.8780 C.3   131  ILE131      0.0001
     63  N       -110.3610 -176.8810  317.1970 N.3   134  TYR134     -0.1227
     64  CA      -111.3710 -177.5520  316.3800 C.3   134  TYR134      0.1736
     65  C       -110.8520 -178.8100  315.7370 C.2   134  TYR134      0.2595
     66  O       -111.5900 -179.7890  315.6140 O.2   134  TYR134     -0.2718
     67  CB      -111.9750 -176.5890  315.3790 C.3   134  TYR134      0.0548
     68  CG      -112.9140 -175.5940  316.0210 C.ar  134  TYR134     -0.0200
     69  CD1     -113.9670 -176.0210  316.8260 C.ar  134  TYR134     -0.0009
     70  CD2     -112.6980 -174.2250  315.8980 C.ar  134  TYR134     -0.0009
     71  CE1     -114.8590 -175.1130  317.4000 C.ar  134  TYR134      0.0417
     72  CE2     -113.5480 -173.3060  316.5110 C.ar  134  TYR134      0.0417
     73  CZ      -114.6280 -173.7540  317.2650 C.ar  134  TYR134      0.1957
     74  OH      -115.4940 -172.8380  317.8390 O.3   134  TYR134     -0.2866
     75  N       -109.5640 -178.8320  315.3770 N.am  135  MET135     -0.1979
     76  CA      -108.9590 -180.0590  314.8390 C.3   135  MET135      0.1605
     77  C       -109.0420 -181.1740  315.8900 C.2   135  MET135      0.2287
     78  O       -109.3450 -182.3110  315.5410 O.2   135  MET135     -0.2864
     79  CB      -107.5010 -179.8210  314.4330 C.3   135  MET135      0.0413
     80  CG      -107.3650 -179.0300  313.1200 C.3   135  MET135      0.0598
     81  SD      -107.8310 -180.0290  311.6750 S.3   135  MET135     -0.1393
     82  CE      -106.4980 -181.2680  311.7260 C.3   135  MET135      0.0692
     83  N       -112.5690 -182.5180  315.9760 N.3   138  ILE138     -0.1245
     84  CA      -112.8260 -183.4200  314.8290 C.3   138  ILE138      0.1561
     85  C       -112.2160 -184.7770  315.1300 C.2   138  ILE138      0.2260
     86  O       -112.8500 -185.7900  314.8360 O.2   138  ILE138     -0.2867
     87  CB      -112.3070 -182.8620  313.4880 C.3   138  ILE138      0.0252
     88  CG1     -112.9680 -181.5200  313.1500 C.3   138  ILE138      0.0019
     89  CG2     -112.5220 -183.8880  312.3350 C.3   138  ILE138      0.0019
     90  CD1     -112.2560 -180.7430  312.0100 C.3   138  ILE138      0.0001
     91  N       -114.7350 -179.6820  304.8030 N.3   157  PRO157     -0.2102
     92  CA      -115.2350 -178.5760  305.6340 C.3   157  PRO157      0.1504
     93  C       -116.7590 -178.4460  305.6880 C.2   157  PRO157      0.2575
     94  O       -117.2770 -178.2330  306.7660 O.2   157  PRO157     -0.2718
     95  CB      -114.5540 -177.3450  305.0330 C.3   157  PRO157      0.0282
     96  CG      -113.2670 -177.8940  304.4760 C.3   157  PRO157      0.0208
     97  CD      -113.6480 -179.2320  303.9010 C.3   157  PRO157      0.0893
     98  N       -117.4500 -178.6610  304.5580 N.am  158  HIS158     -0.1976
     99  CA      -118.9140 -178.5700  304.4730 C.3   158  HIS158      0.1656
    100  C       -119.6360 -179.6800  305.2640 C.2   158  HIS158      0.2291
    101  O       -120.8550 -179.5960  305.4630 O.2   158  HIS158     -0.2864
    102  CB      -119.3820 -178.4870  303.0160 C.3   158  HIS158      0.0771
    103  CG      -119.6440 -177.0770  302.5790 C.ar  158  HIS158      0.0820
    104  ND1     -118.6710 -176.3180  301.9500 N.ar  158  HIS158     -0.2267
    105  CD2     -120.7520 -176.3170  302.7430 C.ar  158  HIS158      0.1154
    106  CE1     -119.2250 -175.1340  301.7350 C.ar  158  HIS158      0.1986
    107  NE2     -120.4750 -175.0880  302.1990 N.ar  158  HIS158     -0.2212
    108  N       -118.4100 -180.4490  308.3840 N.3   160  VAL160     -0.1231
    109  CA      -118.0960 -180.1620  309.7930 C.3   160  VAL160      0.1692
    110  C       -118.7840 -178.8500  310.1540 C.2   160  VAL160      0.2592
    111  O       -118.3550 -177.7920  309.7120 O.2   160  VAL160     -0.2718
    112  CB      -116.5620 -180.0890  310.0490 C.3   160  VAL160      0.0266
    113  CG1     -116.2800 -179.7230  311.4990 C.3   160  VAL160      0.0020
    114  CG2     -115.8720 -181.4010  309.6690 C.3   160  VAL160      0.0020
    115  N       -119.8290 -178.9280  310.9700 N.am  161  MET161     -0.1965
    116  CA      -120.5690 -177.7430  311.4090 C.3   161  MET161      0.1736
    117  C       -119.8890 -177.1710  312.6240 C.2   161  MET161      0.2616
    118  O       -119.5010 -177.9300  313.5080 O.2   161  MET161     -0.2715
    119  CB      -122.0330 -178.1050  311.7150 C.3   161  MET161      0.0427
    120  CG      -122.7870 -178.5710  310.4930 C.3   161  MET161      0.0599
    121  SD      -123.1160 -177.2420  309.3110 S.3   161  MET161     -0.1393
    122  CE      -121.9610 -177.6410  308.0130 C.3   161  MET161      0.0692
    123  N       -119.6910 -175.8420  312.6510 N.am  162  ILE162     -0.1977
    124  CA      -119.0550 -175.1790  313.7850 C.3   162  ILE162      0.1596
    125  C       -119.9360 -174.0180  314.1920 C.2   162  ILE162      0.2287
    126  O       -120.1940 -173.1290  313.3800 O.2   162  ILE162     -0.2864
    127  CB      -117.5870 -174.6990  313.5140 C.3   162  ILE162      0.0276
    128  CG1     -116.6660 -175.8760  313.0990 C.3   162  ILE162      0.0022
    129  CG2     -117.0230 -173.9450  314.7290 C.3   162  ILE162      0.0022
    130  CD1     -115.2030 -175.4810  312.7120 C.3   162  ILE162      0.0001
    131  N       -107.7000 -180.7380  304.8330 N.3   219  MET219     -0.1230
    132  CA      -108.3560 -179.6100  305.4840 C.3   219  MET219      0.1702
    133  C       -107.3740 -178.7640  306.2810 C.2   219  MET219      0.2592
    134  O       -107.3580 -177.5460  306.1520 O.2   219  MET219     -0.2718
    135  CB      -109.4650 -180.1040  306.4100 C.3   219  MET219      0.0401
    136  CG      -110.6300 -180.7410  305.6800 C.3   219  MET219      0.0596
    137  SD      -111.8890 -181.3750  306.7980 S.3   219  MET219     -0.1393
    138  CE      -112.3730 -179.8870  307.6550 C.3   219  MET219      0.0692
    139  N       -106.5200 -179.4180  307.0610 N.am  220  LEU220     -0.1980
    140  CA      -105.5250 -178.6970  307.8420 C.3   220  LEU220      0.1596
    141  C       -104.5790 -177.9280  306.9230 C.2   220  LEU220      0.2287
    142  O       -104.2840 -176.7650  307.2160 O.2   220  LEU220     -0.2864
    143  CB      -104.7500 -179.6590  308.7420 C.3   220  LEU220      0.0297
    144  CG      -103.7020 -179.0400  309.6410 C.3   220  LEU220      0.0022
    145  CD1     -104.3320 -178.0890  310.6500 C.3   220  LEU220      0.0001
    146  CD2     -102.7980 -180.0970  310.2400 C.3   220  LEU220      0.0001
    147  N       -104.9740 -176.7010  303.9090 N.3   222  SER222     -0.1202
    148  CA      -105.6420 -175.5620  303.3310 C.3   222  SER222      0.2020
    149  C       -105.7760 -174.4240  304.3300 C.2   222  SER222      0.2618
    150  O       -105.5220 -173.2790  304.0050 O.2   222  SER222     -0.2717
    151  CB      -107.0240 -175.9610  302.8370 C.3   222  SER222      0.2103
    152  OG      -107.7170 -174.8190  302.4040 O.3   222  SER222     -0.2182
    153  N       -106.1440 -174.7630  305.5540 N.am  223  MET223     -0.1979
    154  CA      -106.3200 -173.7760  306.6110 C.3   223  MET223      0.1605
    155  C       -105.0270 -173.0490  306.9680 C.2   223  MET223      0.2287
    156  O       -105.0140 -171.8040  306.9960 O.2   223  MET223     -0.2864
    157  CB      -106.9190 -174.4640  307.8410 C.3   223  MET223      0.0413
    158  CG      -107.4180 -173.5200  308.9010 C.3   223  MET223      0.0598
    159  SD      -108.7880 -172.4630  308.3020 S.3   223  MET223     -0.1393
    160  CE      -109.0970 -171.5040  309.7660 C.3   223  MET223      0.0692
    161  N       -106.8330 -172.6810  299.4000 N.3   228  GLU228     -0.1245
    162  CA      -108.0610 -173.4770  299.3390 C.3   228  GLU228      0.1567
    163  C       -108.4200 -173.8220  297.9050 C.2   228  GLU228      0.2260
    164  O       -108.5550 -172.9290  297.0800 O.2   228  GLU228     -0.2867
    165  CB      -109.2210 -172.6740  299.9440 C.3   228  GLU228      0.0388
    166  CG      -110.1700 -173.4430  300.8590 C.3   228  GLU228      0.1160
    167  CD      -111.1360 -174.3700  300.1450 C.2   228  GLU228      0.3649
    168  OE1     -111.7860 -173.9470  299.1730 O.co2 228  GLU228     -0.2457
    169  OE2     -111.2790 -175.5240  300.5890 O.co2 228  GLU228     -0.2457
@<TRIPOS>BOND
     1   164   163    2
     2   163   162    1
     3   168   167   ar
     4   162   161    1
     5   162   165    1
     6   165   166    1
     7   167   169   ar
     8   167   166    1
     9   106   104   ar
    10   106   107   ar
    11   104   103   ar
    12   107   105   ar
    13   152   151    1
    14   103   105   ar
    15   103   102    1
    16   151   148    1
    17   102    99    1
    18    25    23   ar
    19    25    26   ar
    20    46    45    1
    21   148   147    1
    22   148   149    1
    23    23    21   ar
    24    26    24   ar
    25    45    44   ar
    26    45    43   ar
    27    44    42   ar
    28    97    96    1
    29    97    91    1
    30   150   149    2
    31   149   153   am
    32    43    41   ar
    33    99    98    1
    34    99   100    1
    35    96    95    1
    36    42    40   ar
    37    98    93   am
    38    21    22   ar
    39    21    20    1
    40    91    92    1
    41   131   132    1
    42    24    22   ar
    43    95    92    1
    44    41    40   ar
    45    40    39    1
    46   100   101    2
    47    20    17    1
    48   132   133    1
    49   132   135    1
    50   153   154    1
    51    92    93    1
    52   136   135    1
    53   136   137    1
    54    93    94    2
    55    39    36    1
    56   134   133    2
    57    18    19    2
    58    18    17    1
    59   133   139   am
    60   154   155    1
    61   154   157    1
    62    17    16    1
    63   137   138    1
    64   141   142    2
    65   141   140    1
    66   155   156    2
    67   139   140    1
    68    36    37    1
    69    36    35    1
    70    37    38    2
    71   157   158    1
    72   140   143    1
    73   122   121    1
    74    35    29   am
    75   159   158    1
    76   159   160    1
    77   108   109    1
    78     8     6   am
    79   143   144    1
    80   121   120    1
    81    27    28    1
    82    29    30    2
    83    29    28    1
    84   144   146    1
    85   144   145    1
    86   114   112    1
    87   111   110    2
    88     6     7    2
    89     6     5    1
    90   109   112    1
    91   109   110    1
    92    12    11    2
    93   112   113    1
    94    28    31    1
    95   110   115   am
    96    31    32    1
    97    11    10    1
    98   120   119    1
    99     5     2    1
   100     4     3    2
   101   115   116    1
   102    33    32    1
   103    32    34    1
   104   116   119    1
   105   116   117    1
   106     3     2    1
   107     3     9   am
   108    81    82    1
   109    81    80    1
   110    10     9    1
   111    10    13    1
   112    62    60    1
   113     2     1    1
   114    90    88    1
   115    47    48    1
   116    89    87    1
   117    50    49    2
   118    61    59    1
   119    60    59    1
   120    15    13    1
   121   117   123   am
   122   117   118    2
   123   123   124    1
   124   130   128    1
   125    13    14    1
   126    53    52    1
   127    51    52    1
   128    51    48    1
   129    52    54    1
   130   128   127    1
   131    80    79    1
   132    88    87    1
   133    48    49    1
   134   126   125    2
   135    59    56    1
   136    87    84    1
   137   127   124    1
   138   127   129    1
   139   124   125    1
   140    79    76    1
   141    56    57    1
   142    56    55    1
   143    84    85    1
   144    84    83    1
   145    86    85    2
   146    76    75    1
   147    76    77    1
   148    58    57    2
   149    75    65   am
   150    67    68    1
   151    67    64    1
   152    78    77    2
   153    66    65    2
   154    65    64    1
   155    70    68   ar
   156    70    72   ar
   157    68    69   ar
   158    64    63    1
   159    72    73   ar
   160    69    71   ar
   161    73    71   ar
   162    73    74    1
