@<TRIPOS>MOLECULE
tmp/5ou1A01.pdb
 122 112 0 0 0
SMALL
GASTEIGER

@<TRIPOS>ATOM
      1  N         33.5770  166.9120   -2.9650 N.3   129  ASP129     -0.1225
      2  CA        34.0270  165.7770   -3.7500 C.3   129  ASP129      0.1805
      3  C         35.5560  165.7810   -3.8420 C.2   129  ASP129      0.2598
      4  O         36.1240  166.4760   -4.6730 O.2   129  ASP129     -0.2718
      5  CB        33.3540  165.8690   -5.1370 C.3   129  ASP129      0.1424
      6  CG        33.9930  164.9790   -6.1890 C.2   129  ASP129      0.3668
      7  OD1       34.3700  163.8340   -5.8630 O.co2 129  ASP129     -0.2456
      8  OD2       34.0860  165.4320   -7.3620 O.co2 129  ASP129     -0.2456
      9  N         36.2260  165.0470   -2.9550 N.am  130  THR130     -0.1939
     10  CA        37.6930  165.0440   -2.9480 C.3   130  THR130      0.2028
     11  C         38.2320  163.6270   -2.8940 C.2   130  THR130      0.2642
     12  O         37.5010  162.6890   -2.5950 O.2   130  THR130     -0.2714
     13  CB        38.2840  165.8470   -1.7570 C.3   130  THR130      0.1808
     14  OG1       38.0000  165.1760   -0.5220 O.3   130  THR130     -0.2208
     15  CG2       37.7120  167.2540   -1.7070 C.3   130  THR130      0.0379
     16  N         39.5130  163.4870   -3.2040 N.am  131  ALA131     -0.1963
     17  CA        40.1970  162.1990   -3.1290 C.3   131  ALA131      0.1728
     18  C         40.4480  161.7870   -1.6860 C.2   131  ALA131      0.2616
     19  O         40.5390  160.5970   -1.3740 O.2   131  ALA131     -0.2715
     20  CB        41.5160  162.2630   -3.8840 C.3   131  ALA131      0.0334
     21  N         40.5910  162.7750   -0.8110 N.am  132  HIS132     -0.1973
     22  CA        40.9720  162.5100    0.5720 C.3   132  HIS132      0.1656
     23  C         40.3650  163.5550    1.4960 C.2   132  HIS132      0.2291
     24  O         40.9180  164.6360    1.6580 O.2   132  HIS132     -0.2864
     25  CB        42.4910  162.5130    0.6930 C.3   132  HIS132      0.0771
     26  CG        43.0030  162.1360    2.0510 C.ar  132  HIS132      0.0820
     27  ND1       42.3900  161.1910    2.8340 N.ar  132  HIS132     -0.2267
     28  CD2       44.0830  162.5680    2.7390 C.ar  132  HIS132      0.1154
     29  CE1       43.0830  161.0500    3.9670 C.ar  132  HIS132      0.1986
     30  NE2       44.1050  161.8740    3.9230 N.ar  132  HIS132     -0.2212
     31  N         41.1950  166.1100    5.9110 N.3   135  ASN135     -0.1240
     32  CA        42.0430  167.2490    5.6210 C.3   135  ASN135      0.1653
     33  C         41.3310  168.5050    6.1100 C.2   135  ASN135      0.2266
     34  O         40.1370  168.6620    5.8660 O.2   135  ASN135     -0.2867
     35  CB        42.3260  167.3030    4.1140 C.3   135  ASN135      0.1155
     36  CG        42.9470  168.6030    3.6780 C.2   135  ASN135      0.2627
     37  OD1       42.2600  169.6120    3.5510 O.2   135  ASN135     -0.2716
     38  ND2       44.2460  168.5860    3.4290 N.am  135  ASN135     -0.0877
     39  N         36.0880  161.7670   -0.0850 N.3   159  ASN159     -0.1240
     40  CA        35.8490  160.3930    0.3130 C.3   159  ASN159      0.1653
     41  C         36.7490  160.0020    1.4710 C.2   159  ASN159      0.2266
     42  O         37.8470  160.5450    1.6280 O.2   159  ASN159     -0.2867
     43  CB        36.0740  159.4500   -0.8770 C.3   159  ASN159      0.1155
     44  CG        34.8830  159.3920   -1.7980 C.2   159  ASN159      0.2627
     45  OD1       34.0050  160.2590   -1.7500 O.2   159  ASN159     -0.2716
     46  ND2       34.8330  158.3620   -2.6470 N.am  159  ASN159     -0.0877
     47  N         35.1490  155.5130    0.0710 N.3   180  GLY180     -0.1210
     48  CA        35.7970  154.8850   -1.0630 C.3   180  GLY180      0.1956
     49  C         37.1110  155.5470   -1.4020 C.2   180  GLY180      0.2611
     50  O         37.1360  156.6130   -2.0330 O.2   180  GLY180     -0.2717
     51  N         38.2060  154.9350   -0.9480 N.am  181  VAL181     -0.1979
     52  CA        39.5520  155.3580   -1.3420 C.3   181  VAL181      0.1595
     53  C         40.2450  154.1240   -1.8650 C.2   181  VAL181      0.2287
     54  O         40.5940  153.2380   -1.0890 O.2   181  VAL181     -0.2864
     55  CB        40.3630  155.9590   -0.1710 C.3   181  VAL181      0.0276
     56  CG1       41.7990  156.3400   -0.6300 C.3   181  VAL181      0.0022
     57  CG2       39.6550  157.1590    0.4050 C.3   181  VAL181      0.0022
     58  N         39.9340  153.1830  -11.0920 N.3   187  CYS187     -0.1235
     59  CA        40.8640  153.7700  -10.1340 C.3   187  CYS187      0.1677
     60  C         42.2240  153.0770  -10.1370 C.2   187  CYS187      0.2270
     61  O         42.3000  151.8490  -10.1270 O.2   187  CYS187     -0.2867
     62  CB        40.2550  153.7140   -8.7320 C.3   187  CYS187      0.0956
     63  SG        41.4140  154.0130   -7.3860 S.3   187  CYS187     -0.0801
     64  N         44.6560  154.3870   -7.9030 N.3   189  THR189     -0.1218
     65  CA        45.2290  154.8900   -6.6670 C.3   189  THR189      0.1862
     66  C         46.0150  153.8170   -5.9450 C.2   189  THR189      0.2287
     67  O         47.0690  154.0790   -5.3730 O.2   189  THR189     -0.2866
     68  CB        44.1300  155.4270   -5.7370 C.3   189  THR189      0.1770
     69  OG1       43.4620  156.5150   -6.3920 O.3   189  THR189     -0.2211
     70  CG2       44.7000  155.8950   -4.4120 C.3   189  THR189      0.0375
     71  N         30.8570  154.1660   -2.0890 N.3   220  ASP220     -0.1239
     72  CA        31.2220  154.7060   -3.3930 C.3   220  ASP220      0.1674
     73  C         32.4040  153.9880   -4.0320 C.2   220  ASP220      0.2266
     74  O         33.5420  154.1380   -3.5920 O.2   220  ASP220     -0.2867
     75  CB        31.5430  156.1910   -3.2290 C.3   220  ASP220      0.1410
     76  CG        31.9750  156.8570   -4.5250 C.2   220  ASP220      0.3668
     77  OD1       31.6810  156.3240   -5.6130 O.co2 220  ASP220     -0.2456
     78  OD2       32.5940  157.9440   -4.4350 O.co2 220  ASP220     -0.2456
     79  N         38.0360  160.4820  -13.1700 N.3   270  MET270     -0.1230
     80  CA        38.2170  161.9300  -13.1420 C.3   270  MET270      0.1702
     81  C         39.6720  162.2810  -12.8390 C.2   270  MET270      0.2592
     82  O         40.0880  163.4350  -12.9770 O.2   270  MET270     -0.2718
     83  CB        37.2830  162.5700  -12.1240 C.3   270  MET270      0.0401
     84  CG        35.8170  162.3650  -12.4750 C.3   270  MET270      0.0596
     85  SD        35.4090  162.9590  -14.1450 S.3   270  MET270     -0.1393
     86  CE        35.0580  164.6700  -13.7700 C.3   270  MET270      0.0692
     87  N         40.4440  161.2790  -12.4260 N.am  271  GLY271     -0.1957
     88  CA        41.8610  161.4690  -12.1810 C.3   271  GLY271      0.1869
     89  C         42.6990  160.8810  -13.3020 C.2   271  GLY271      0.2309
     90  O         43.9030  160.6770  -13.1370 O.2   271  GLY271     -0.2863
     91  N         41.9320  165.3130  -16.8800 N.3   276  MET276     -0.1245
     92  CA        42.6260  166.4590  -16.3090 C.3   276  MET276      0.1570
     93  C         43.1620  167.3860  -17.4090 C.2   276  MET276      0.2261
     94  O         43.6710  168.4690  -17.1180 O.2   276  MET276     -0.2867
     95  CB        43.7570  165.9850  -15.3910 C.3   276  MET276      0.0387
     96  CG        43.2760  165.0760  -14.2520 C.3   276  MET276      0.0595
     97  SD        44.5430  164.5760  -13.0540 S.3   276  MET276     -0.1393
     98  CE        45.6560  163.6280  -14.0950 C.3   276  MET276      0.0692
     99  N         50.1200  166.6440  -10.1910 N.3   278  LEU278     -0.1231
    100  CA        49.5630  165.3610   -9.7700 C.3   278  LEU278      0.1693
    101  C         49.5740  164.3690  -10.9240 C.2   278  LEU278      0.2591
    102  O         49.0630  164.6700  -12.0030 O.2   278  LEU278     -0.2718
    103  CB        48.1330  165.5370   -9.2410 C.3   278  LEU278      0.0284
    104  CG        47.5260  164.5010   -8.3180 C.3   278  LEU278      0.0019
    105  CD1       48.2820  164.3970   -7.0000 C.3   278  LEU278      0.0001
    106  CD2       46.0600  164.8550   -8.0570 C.3   278  LEU278      0.0001
    107  N         50.1630  163.1920  -10.7060 N.am  279  VAL279     -0.1980
    108  CA        50.1590  162.1550  -11.7400 C.3   279  VAL279      0.1595
    109  C         48.8020  161.4460  -11.7490 C.2   279  VAL279      0.2287
    110  O         48.0830  161.4710  -10.7560 O.2   279  VAL279     -0.2864
    111  CB        51.3140  161.1510  -11.5340 C.3   279  VAL279      0.0276
    112  CG1       52.6530  161.8870  -11.6640 C.3   279  VAL279      0.0022
    113  CG2       51.2030  160.4570  -10.1810 C.3   279  VAL279      0.0022
    114  N         45.6060  159.0960  -11.4730 N.3   281  GLU281     -0.1245
    115  CA        45.1990  158.0230  -10.5580 C.3   281  GLU281      0.1567
    116  C         43.9520  157.3070  -11.0760 C.2   281  GLU281      0.2260
    117  O         43.2260  156.6600  -10.3120 O.2   281  GLU281     -0.2867
    118  CB        44.9410  158.5710   -9.1470 C.3   281  GLU281      0.0388
    119  CG        46.1990  158.9210   -8.3510 C.3   281  GLU281      0.1160
    120  CD        45.8770  159.3990   -6.9330 C.2   281  GLU281      0.3649
    121  OE1       45.0570  158.7420   -6.2390 O.co2 281  GLU281     -0.2457
    122  OE2       46.4280  160.4460   -6.5220 O.co2 281  GLU281     -0.2457
@<TRIPOS>BOND
     1    93    94    2
     2    93    92    1
     3    91    92    1
     4    92    95    1
     5    95    96    1
     6    96    97    1
     7    85    86    1
     8    85    84    1
     9    98    97    1
    10    89    90    2
    11    89    88    1
    12    79    80    1
    13    80    81    1
    14    80    83    1
    15    82    81    2
    16    81    87   am
    17    84    83    1
    18    87    88    1
    19   102   101    2
    20   109   108    1
    21   109   110    2
    22   108   111    1
    23   108   107    1
    24   112   111    1
    25   111   113    1
    26   114   115    1
    27    58    59    1
    28   116   115    1
    29   116   117    2
    30   101   107   am
    31   101   100    1
    32   115   118    1
    33    99   100    1
    34    60    59    1
    35    60    61    2
    36    59    62    1
    37   100   103    1
    38   103   104    1
    39   118   119    1
    40    62    63    1
    41   119   120    1
    42   104   106    1
    43   104   105    1
    44    64    65    1
    45     8     6   ar
    46   120   122   ar
    47   120   121   ar
    48    65    66    1
    49    65    68    1
    50    69    68    1
    51     6     7   ar
    52     6     5    1
    53    66    67    2
    54    68    70    1
    55    77    76   ar
    56     5     2    1
    57     4     3    2
    58    76    78   ar
    59    76    75    1
    60    73    74    2
    61    73    72    1
    62    20    17    1
    63     3     2    1
    64     3     9   am
    65     2     1    1
    66    72    75    1
    67    72    71    1
    68    16    17    1
    69    16    11   am
    70    17    18    1
    71     9    10    1
    72    10    11    1
    73    10    13    1
    74    11    12    2
    75    46    44   am
    76    50    49    2
    77    53    52    1
    78    53    54    2
    79    44    45    2
    80    44    43    1
    81    13    15    1
    82    13    14    1
    83    18    19    2
    84    18    21   am
    85    49    48    1
    86    49    51   am
    87    52    51    1
    88    52    55    1
    89    48    47    1
    90    43    40    1
    91    21    22    1
    92    56    55    1
    93    55    57    1
    94    39    40    1
    95    40    41    1
    96    22    25    1
    97    22    23    1
    98    25    26    1
    99    41    42    2
   100    23    24    2
   101    26    28   ar
   102    26    27   ar
   103    28    30   ar
   104    27    29   ar
   105    38    36   am
   106    37    36    2
   107    36    35    1
   108    30    29   ar
   109    35    32    1
   110    32    31    1
   111    32    33    1
   112    34    33    2
