@<TRIPOS>MOLECULE
tmp/5ou2A01.pdb
 101 93 0 0 0
SMALL
GASTEIGER

@<TRIPOS>ATOM
      1  N        -77.9960   54.9390    0.6540 N.3   129  ASP129     -0.1225
      2  CA       -76.8610   54.5520    1.4720 C.3   129  ASP129      0.1805
      3  C        -76.8510   53.0470    1.6510 C.2   129  ASP129      0.2598
      4  O        -77.4860   52.5510    2.4980 O.2   129  ASP129     -0.2718
      5  CB       -76.9980   55.2730    2.8260 C.3   129  ASP129      0.1424
      6  CG       -76.1830   54.6490    3.9520 C.2   129  ASP129      0.3668
      7  OD1      -74.9930   54.4570    3.7470 O.co2 129  ASP129     -0.2456
      8  OD2      -76.7020   54.4410    5.0790 O.co2 129  ASP129     -0.2456
      9  N        -76.1230   52.3480    0.8040 N.am  130  THR130     -0.1939
     10  CA       -76.1160   50.8860    0.8030 C.3   130  THR130      0.2028
     11  C        -74.7180   50.3040    0.6830 C.2   130  THR130      0.2642
     12  O        -73.8210   50.9620    0.2720 O.2   130  THR130     -0.2714
     13  CB       -76.9860   50.2740   -0.3350 C.3   130  THR130      0.1808
     14  OG1      -76.3670   50.4910   -1.5850 O.3   130  THR130     -0.2208
     15  CG2      -78.3600   50.8830   -0.3910 C.3   130  THR130      0.0379
     16  N        -74.5910   49.0480    1.0730 N.am  131  ALA131     -0.1977
     17  CA       -73.3370   48.3160    0.9690 C.3   131  ALA131      0.1597
     18  C        -73.0220   47.9710   -0.4810 C.2   131  ALA131      0.2287
     19  O        -71.8650   47.7610   -0.8480 O.2   131  ALA131     -0.2864
     20  CB       -73.4220   47.0440    1.7900 C.3   131  ALA131      0.0319
     21  N        -72.9270   52.5560   -2.0850 N.3   159  ASN159     -0.1240
     22  CA       -71.5600   52.7740   -2.5400 C.3   159  ASN159      0.1653
     23  C        -71.1860   51.8460   -3.6750 C.2   159  ASN159      0.2266
     24  O        -71.7470   50.7630   -3.8220 O.2   159  ASN159     -0.2867
     25  CB       -70.5660   52.5790   -1.3930 C.3   159  ASN159      0.1155
     26  CG       -70.4740   53.7840   -0.5100 C.2   159  ASN159      0.2627
     27  OD1      -71.3280   54.6730   -0.5600 O.2   159  ASN159     -0.2716
     28  ND2      -69.4220   53.8390    0.3000 N.am  159  ASN159     -0.0877
     29  N        -71.0830   57.8140   -4.7000 N.3   178  LYS178     -0.1245
     30  CA       -70.2140   57.6190   -3.5510 C.3   178  LYS178      0.1561
     31  C        -69.4450   56.3110   -3.6850 C.2   178  LYS178      0.2260
     32  O        -70.0300   55.2530   -3.9200 O.2   178  LYS178     -0.2867
     33  CB       -71.0090   57.6730   -2.2480 C.3   178  LYS178      0.0271
     34  CG       -70.1250   57.7640   -1.0180 C.3   178  LYS178      0.0035
     35  CD       -70.7370   58.6290    0.0960 C.3   178  LYS178      0.0206
     36  CE       -71.9940   58.0160    0.7040 C.3   178  LYS178      0.1093
     37  NZ       -71.7210   56.6970    1.3570 N.3   178  LYS178     -0.1314
     38  N        -66.6470   53.4470   -2.3800 N.3   180  GLY180     -0.1210
     39  CA       -65.9930   52.7920   -1.2610 C.3   180  GLY180      0.1956
     40  C        -66.6610   51.4820   -0.9050 C.2   180  GLY180      0.2612
     41  O        -67.7310   51.4590   -0.2750 O.2   180  GLY180     -0.2717
     42  N        -66.0510   50.3770   -1.3260 N.am  181  VAL181     -0.1965
     43  CA       -66.4770   49.0610   -0.8660 C.3   181  VAL181      0.1727
     44  C        -65.2410   48.3560   -0.3360 C.2   181  VAL181      0.2617
     45  O        -64.2990   48.0770   -1.0850 O.2   181  VAL181     -0.2715
     46  CB       -67.1340   48.2360   -1.9810 C.3   181  VAL181      0.0290
     47  CG1      -67.5320   46.8550   -1.4340 C.3   181  VAL181      0.0023
     48  CG2      -68.3390   48.9590   -2.5260 C.3   181  VAL181      0.0023
     49  N        -65.2020   48.1670    0.9800 N.am  182  GLY182     -0.1941
     50  CA       -64.0330   47.6050    1.6280 C.3   182  GLY182      0.1998
     51  C        -63.0270   48.4810    2.3830 C.2   182  GLY182      0.2480
     52  O        -62.3070   47.9430    3.2170 O.2   182  GLY182     -0.2729
     53  N        -62.9390   49.8060    2.1040 N.am  183  PRO183     -0.2726
     54  CA       -61.7810   50.5130    2.6750 C.3   183  PRO183      0.1402
     55  C        -61.9690   51.1140    4.0690 C.2   183  PRO183      0.2269
     56  O        -60.9750   51.5650    4.6550 O.2   183  PRO183     -0.2865
     57  CB       -61.5640   51.6510    1.6760 C.3   183  PRO183      0.0296
     58  CG       -62.9300   51.9900    1.2480 C.3   183  PRO183      0.0237
     59  CD       -63.6700   50.6750    1.1590 C.3   183  PRO183      0.0939
     60  N        -64.3720   48.6010    8.7340 N.3   187  CYS187     -0.1235
     61  CA       -64.9700   47.6590    7.7950 C.3   187  CYS187      0.1677
     62  C        -64.3010   46.2920    7.8610 C.2   187  CYS187      0.2270
     63  O        -63.0770   46.2030    7.9100 O.2   187  CYS187     -0.2867
     64  CB       -64.8550   48.2220    6.3740 C.3   187  CYS187      0.0956
     65  SG       -64.9860   47.0150    5.0310 S.3   187  CYS187     -0.0801
     66  N        -65.6730   43.8520    5.6420 N.3   189  THR189     -0.1218
     67  CA       -66.1100   43.2610    4.3800 C.3   189  THR189      0.1862
     68  C        -64.9900   42.4990    3.6870 C.2   189  THR189      0.2287
     69  O        -65.2110   41.3920    3.1780 O.2   189  THR189     -0.2866
     70  CB       -66.6790   44.3290    3.4330 C.3   189  THR189      0.1770
     71  OG1      -67.8030   44.9530    4.0680 O.3   189  THR189     -0.2211
     72  CG2      -67.1140   43.7290    2.1110 C.3   189  THR189      0.0375
     73  N        -65.3600   57.7440   -0.1700 N.3   220  ASP220     -0.1239
     74  CA       -65.8930   57.3750    1.1390 C.3   220  ASP220      0.1674
     75  C        -65.1810   56.1700    1.7450 C.2   220  ASP220      0.2266
     76  O        -65.3780   55.0390    1.3050 O.2   220  ASP220     -0.2867
     77  CB       -67.3800   57.0580    0.9890 C.3   220  ASP220      0.1410
     78  CG       -68.0320   56.6550    2.2860 C.2   220  ASP220      0.3668
     79  OD1      -67.4820   56.9550    3.3650 O.co2 220  ASP220     -0.2456
     80  OD2      -69.1200   56.0550    2.2070 O.co2 220  ASP220     -0.2456
     81  N        -71.5630   50.5580   10.9310 N.3   270  MET270     -0.1230
     82  CA       -73.0150   50.4150   10.9160 C.3   270  MET270      0.1702
     83  C        -73.4160   48.9690   10.6510 C.2   270  MET270      0.2592
     84  O        -74.5730   48.5940   10.8440 O.2   270  MET270     -0.2718
     85  CB       -73.6420   51.3670    9.9040 C.3   270  MET270      0.0401
     86  CG       -73.4010   52.8200   10.2740 C.3   270  MET270      0.0596
     87  SD       -74.0680   53.2270   11.9060 S.3   270  MET270     -0.1393
     88  CE       -75.7850   53.3570   11.4880 C.3   270  MET270      0.0692
     89  N        -72.4460   48.1610   10.2300 N.am  271  GLY271     -0.1957
     90  CA       -72.6390   46.7320   10.0770 C.3   271  GLY271      0.1869
     91  C        -72.0100   45.9450   11.2160 C.2   271  GLY271      0.2309
     92  O        -71.8180   44.7350   11.0960 O.2   271  GLY271     -0.2863
     93  N        -70.2960   42.9610    9.2670 N.3   280  GLU280     -0.1245
     94  CA       -69.2320   43.3650    8.3600 C.3   280  GLU280      0.1567
     95  C        -68.5970   44.6530    8.8450 C.2   280  GLU280      0.2260
     96  O        -68.0060   45.3940    8.0680 O.2   280  GLU280     -0.2867
     97  CB       -69.7700   43.5470    6.9500 C.3   280  GLU280      0.0388
     98  CG       -70.1070   42.2320    6.2780 C.3   280  GLU280      0.1160
     99  CD       -70.5850   42.4250    4.8580 C.2   280  GLU280      0.3649
    100  OE1      -69.9340   43.1970    4.1220 O.co2 280  GLU280     -0.2457
    101  OE2      -71.6210   41.8180    4.4950 O.co2 280  GLU280     -0.2457
@<TRIPOS>BOND
     1    29    30    1
     2    32    31    2
     3    24    23    2
     4    31    30    1
     5    23    22    1
     6    30    33    1
     7    22    21    1
     8    22    25    1
     9    48    46    1
    10    38    39    1
    11    33    34    1
    12    46    47    1
    13    46    43    1
    14    14    13    1
    15    25    26    1
    16    42    40   am
    17    42    43    1
    18    39    40    1
    19    45    44    2
    20    34    35    1
    21    40    41    2
    22    43    44    1
    23    19    18    2
    24    27    26    2
    25    26    28   am
    26    18    17    1
    27    15    13    1
    28    44    49   am
    29    13    10    1
    30    73    74    1
    31    35    36    1
    32    12    11    2
    33     1     2    1
    34    11    10    1
    35    11    16   am
    36    36    37    1
    37    10     9    1
    38     9     3   am
    39    17    16    1
    40    17    20    1
    41    49    50    1
    42    77    74    1
    43    77    78    1
    44    74    75    1
    45    59    58    1
    46    59    53    1
    47    58    57    1
    48    76    75    2
    49     2     3    1
    50     2     5    1
    51    50    51    1
    52     3     4    2
    53    57    54    1
    54    53    51   am
    55    53    54    1
    56    72    70    1
    57    80    78   ar
    58    78    79   ar
    59    51    52    2
    60    54    55    1
    61     5     6    1
    62    69    68    2
    63    70    71    1
    64    70    67    1
    65    68    67    1
    66     7     6   ar
    67     6     8   ar
    68    55    56    2
    69   100    99   ar
    70    67    66    1
    71   101    99   ar
    72    99    98    1
    73    65    64    1
    74    98    97    1
    75    64    61    1
    76    97    94    1
    77    61    62    1
    78    61    60    1
    79    62    63    2
    80    96    95    2
    81    94    95    1
    82    94    93    1
    83    85    86    1
    84    85    82    1
    85    90    89    1
    86    90    91    1
    87    89    83   am
    88    86    87    1
    89    83    84    2
    90    83    82    1
    91    82    81    1
    92    92    91    2
    93    88    87    1
