@<TRIPOS>MOLECULE
tmp/5ou3A01.pdb
 127 115 0 0 0
SMALL
GASTEIGER

@<TRIPOS>ATOM
      1  N        121.1160   -9.4190   -6.8680 N.3    80  ARG80      -0.1245
      2  CA       121.5770   -8.0350   -6.7870 C.3    80  ARG80       0.1563
      3  C        122.7340   -7.7170   -7.7280 C.2    80  ARG80       0.2260
      4  O        123.4120   -6.7000   -7.5520 O.2    80  ARG80      -0.2867
      5  CB       121.9890   -7.7030   -5.3510 C.3    80  ARG80       0.0307
      6  CG       123.1740   -8.5040   -4.8240 C.3    80  ARG80       0.0489
      7  CD       123.4250   -8.1510   -3.3670 C.3    80  ARG80       0.2205
      8  NE       124.4230   -8.9940   -2.7180 N.pl3  80  ARG80      -0.0865
      9  CZ       125.7230   -8.7260   -2.6770 C.cat  80  ARG80       0.5346
     10  NH1      126.2100   -7.6400   -3.2710 N.pl3  80  ARG80       0.1354
     11  NH2      126.5400   -9.5510   -2.0390 N.pl3  80  ARG80       0.1354
     12  N        123.0060  -10.7340    2.1950 N.3   130  ASP130     -0.1225
     13  CA       123.4460  -11.9540    1.5830 C.3   130  ASP130      0.1805
     14  C        124.9380  -11.9200    1.2110 C.2   130  ASP130      0.2598
     15  O        125.3430  -11.1960    0.3250 O.2   130  ASP130     -0.2718
     16  CB       122.5820  -12.1860    0.3670 C.3   130  ASP130      0.1424
     17  CG       122.6180  -13.6060   -0.1430 C.2   130  ASP130      0.3668
     18  OD1      122.3340  -14.5230    0.6130 O.co2 130  ASP130     -0.2456
     19  OD2      122.9150  -13.7840   -1.3140 O.co2 130  ASP130     -0.2456
     20  N        125.7250  -12.6930    1.9470 N.am  131  THR131     -0.1939
     21  CA       127.1680  -12.6610    1.8320 C.3   131  THR131      0.2028
     22  C        127.8400  -14.0070    1.9910 C.2   131  THR131      0.2642
     23  O        127.2940  -14.8910    2.5720 O.2   131  THR131     -0.2714
     24  CB       127.7980  -11.7410    2.8880 C.3   131  THR131      0.1808
     25  OG1      127.5920  -12.2850    4.1770 O.3   131  THR131     -0.2208
     26  CG2      127.1860  -10.4090    2.8680 C.3   131  THR131      0.0379
     27  N        129.0510  -14.1100    1.4610 N.am  132  ALA132     -0.1963
     28  CA       129.8330  -15.3350    1.5570 C.3   132  ALA132      0.1728
     29  C        130.0870  -15.7190    3.0110 C.2   132  ALA132      0.2616
     30  O        130.1410  -16.9010    3.3550 O.2   132  ALA132     -0.2715
     31  CB       131.1520  -15.1640    0.8190 C.3   132  ALA132      0.0334
     32  N        130.2370  -14.7120    3.8650 N.am  133  HIS133     -0.1973
     33  CA       130.6000  -14.9390    5.2560 C.3   133  HIS133      0.1656
     34  C        129.9140  -13.9290    6.1760 C.2   133  HIS133      0.2291
     35  O        130.3330  -12.7770    6.2520 O.2   133  HIS133     -0.2864
     36  CB       132.1240  -14.8550    5.4010 C.3   133  HIS133      0.0771
     37  CG       132.6270  -15.2210    6.7600 C.ar  133  HIS133      0.0820
     38  ND1      132.2430  -16.3690    7.4150 N.ar  133  HIS133     -0.2267
     39  CD2      133.4950  -14.5920    7.5870 C.ar  133  HIS133      0.1154
     40  CE1      132.8560  -16.4350    8.5850 C.ar  133  HIS133      0.1986
     41  NE2      133.6150  -15.3650    8.7130 N.ar  133  HIS133     -0.2212
     42  N        130.6520  -11.5670   10.9080 N.3   136  ASN136     -0.1240
     43  CA       131.4750  -10.4070   10.5800 C.3   136  ASN136      0.1653
     44  C        130.7570   -9.1510   11.0410 C.2   136  ASN136      0.2266
     45  O        129.5460   -9.0470   10.8590 O.2   136  ASN136     -0.2867
     46  CB       131.7240  -10.3730    9.0700 C.3   136  ASN136      0.1155
     47  CG       132.2490   -9.0320    8.5750 C.2   136  ASN136      0.2627
     48  OD1      131.4780   -8.1100    8.3000 O.2   136  ASN136     -0.2716
     49  ND2      133.5640   -8.9290    8.4330 N.am  136  ASN136     -0.0877
     50  N        125.4550  -15.8430    4.7600 N.3   160  ASN160     -0.1240
     51  CA       125.2610  -17.2200    5.2020 C.3   160  ASN160      0.1653
     52  C        126.1810  -17.5780    6.3780 C.2   160  ASN160      0.2266
     53  O        127.2880  -17.0250    6.5200 O.2   160  ASN160     -0.2867
     54  CB       125.5020  -18.1880    4.0490 C.3   160  ASN160      0.1155
     55  CG       124.2960  -18.3180    3.1350 C.2   160  ASN160      0.2627
     56  OD1      123.4490  -17.4340    3.0910 O.2   160  ASN160     -0.2716
     57  ND2      124.2290  -19.4070    2.3850 N.am  160  ASN160     -0.0877
     58  N        120.2810  -17.7400    7.3970 N.3   179  LYS179     -0.1245
     59  CA       120.4760  -18.6230    6.2380 C.3   179  LYS179      0.1561
     60  C        121.7910  -19.3850    6.3440 C.2   179  LYS179      0.2260
     61  O        122.8450  -18.8100    6.6050 O.2   179  LYS179     -0.2867
     62  CB       120.4010  -17.8250    4.9270 C.3   179  LYS179      0.0271
     63  CG       120.3020  -18.6750    3.6810 C.3   179  LYS179      0.0035
     64  CD       119.4220  -18.0180    2.5770 C.3   179  LYS179      0.0206
     65  CE       120.0080  -16.7180    1.9990 C.3   179  LYS179      0.1093
     66  NZ       121.3580  -16.8710    1.3960 N.3   179  LYS179     -0.1314
     67  N        124.6350  -22.1350    4.9780 N.3   181  GLY181     -0.1225
     68  CA       125.2880  -22.7890    3.8650 C.3   181  GLY181      0.1811
     69  C        126.5830  -22.1070    3.4890 C.2   181  GLY181      0.2280
     70  O        126.5850  -21.0750    2.8280 O.2   181  GLY181     -0.2866
     71  N        129.4820  -24.3270   -6.2070 N.3   188  CYS188     -0.1235
     72  CA       130.4110  -23.7380   -5.2610 C.3   188  CYS188      0.1677
     73  C        131.7740  -24.4310   -5.2950 C.2   188  CYS188      0.2270
     74  O        131.8530  -25.6600   -5.3330 O.2   188  CYS188     -0.2867
     75  CB       129.8160  -23.8060   -3.8430 C.3   188  CYS188      0.0956
     76  SG       130.9330  -23.2830   -2.5150 S.3   188  CYS188     -0.0801
     77  N        134.2260  -23.1560   -3.0710 N.3   190  THR190     -0.1218
     78  CA       134.8040  -22.7230   -1.7930 C.3   190  THR190      0.1862
     79  C        135.6100  -23.8230   -1.1130 C.2   190  THR190      0.2287
     80  O        136.6920  -23.5680   -0.5740 O.2   190  THR190     -0.2866
     81  CB       133.7130  -22.2310   -0.8210 C.3   190  THR190      0.1770
     82  OG1      133.0140  -21.1280   -1.4220 O.3   190  THR190     -0.2211
     83  CG2      134.3060  -21.8060    0.5090 C.3   190  THR190      0.0375
     84  N        120.2890  -23.4190    2.7940 N.3   221  ASP221     -0.1239
     85  CA       120.7030  -22.8880    1.4910 C.3   221  ASP221      0.1674
     86  C        121.8900  -23.6110    0.8580 C.2   221  ASP221      0.2266
     87  O        123.0360  -23.4340    1.2800 O.2   221  ASP221     -0.2867
     88  CB       121.0470  -21.4010    1.6470 C.3   221  ASP221      0.1410
     89  CG       121.4960  -20.7540    0.3420 C.2   221  ASP221      0.3668
     90  OD1      121.2230  -21.3210   -0.7400 O.co2 221  ASP221     -0.2456
     91  OD2      122.1310  -19.6630    0.3880 O.co2 221  ASP221     -0.2456
     92  N        127.5810  -17.0820   -8.2680 N.3   271  MET271     -0.1230
     93  CA       127.7520  -15.6580   -8.1910 C.3   271  MET271      0.1702
     94  C        129.2120  -15.2880   -8.0240 C.2   271  MET271      0.2592
     95  O        129.6020  -14.1950   -8.3040 O.2   271  MET271     -0.2718
     96  CB       126.8850  -15.0130   -7.1220 C.3   271  MET271      0.0401
     97  CG       125.4170  -15.0410   -7.4780 C.3   271  MET271      0.0596
     98  SD       124.9300  -14.4150   -9.0980 S.3   271  MET271     -0.1393
     99  CE       124.6400  -12.7270   -8.6840 C.3   271  MET271      0.0692
    100  N        130.0120  -16.2510   -7.6300 N.am  272  GLY272     -0.1957
    101  CA       131.4410  -16.0440   -7.4790 C.3   272  GLY272      0.1869
    102  C        132.2340  -16.5930   -8.6510 C.2   272  GLY272      0.2309
    103  O        133.4510  -16.7310   -8.5640 O.2   272  GLY272     -0.2863
    104  N        131.2890  -12.1770  -12.0110 N.3   277  MET277     -0.1245
    105  CA       132.0400  -11.0870  -11.4020 C.3   277  MET277      0.1570
    106  C        132.5040  -10.1010  -12.4720 C.2   277  MET277      0.2261
    107  O        132.6040   -8.9010  -12.2160 O.2   277  MET277     -0.2867
    108  CB       133.2250  -11.6370  -10.6020 C.3   277  MET277      0.0387
    109  CG       132.8050  -12.5540   -9.4490 C.3   277  MET277      0.0595
    110  SD       134.1180  -12.9760   -8.2720 S.3   277  MET277     -0.1393
    111  CE       135.2920  -13.8250   -9.3270 C.3   277  MET277      0.0692
    112  N        139.8710  -14.2070   -8.0010 N.3   281  VAL281     -0.1245
    113  CA       139.9500  -15.6110   -7.6080 C.3   281  VAL281      0.1561
    114  C        138.5410  -16.1390   -7.3230 C.2   281  VAL281      0.2260
    115  O        137.9780  -15.9320   -6.2450 O.2   281  VAL281     -0.2867
    116  CB       140.8720  -15.8030   -6.3930 C.3   281  VAL281      0.0252
    117  CG1      140.8150  -17.2440   -5.8760 C.3   281  VAL281      0.0019
    118  CG2      142.2950  -15.4240   -6.7740 C.3   281  VAL281      0.0019
    119  N        135.1770  -18.4460   -6.6960 N.3   283  GLU283     -0.1245
    120  CA       134.8050  -19.5350   -5.8110 C.3   283  GLU283      0.1567
    121  C        133.5220  -20.1850   -6.2790 C.2   283  GLU283      0.2260
    122  O        132.7980  -20.7320   -5.4890 O.2   283  GLU283     -0.2867
    123  CB       134.6020  -19.0590   -4.3710 C.3   283  GLU283      0.0388
    124  CG       135.8620  -18.7850   -3.6340 C.3   283  GLU283      0.1160
    125  CD       135.6000  -18.2560   -2.2640 C.2   283  GLU283      0.3649
    126  OE1      134.7120  -18.7590   -1.5740 O.co2 283  GLU283     -0.2457
    127  OE2      136.2840  -17.3230   -1.9270 O.co2 283  GLU283     -0.2457
@<TRIPOS>BOND
     1   106   107    2
     2   106   105    1
     3   104   105    1
     4   105   108    1
     5   108   109    1
     6   109   110    1
     7   111   110    1
     8    98    99    1
     9    98    97    1
    10   102   103    2
    11   102   101    1
    12    95    94    2
    13    92    93    1
    14    93    94    1
    15    93    96    1
    16    94   100   am
    17   112   113    1
    18     3     4    2
    19     3     2    1
    20   100   101    1
    21   113   114    1
    22   113   116    1
    23    97    96    1
    24   114   115    2
    25     1     2    1
    26     2     5    1
    27   118   116    1
    28   119   120    1
    29   116   117    1
    30   121   120    1
    31   121   122    2
    32    71    72    1
    33   120   123    1
    34     5     6    1
    35    74    73    2
    36    73    72    1
    37    72    75    1
    38     6     7    1
    39   123   124    1
    40    75    76    1
    41   124   125    1
    42     7     8    1
    43    10     9    1
    44    77    78    1
    45     8     9    2
    46     9    11    1
    47   125   127   ar
    48   125   126   ar
    49    78    79    1
    50    78    81    1
    51    82    81    1
    52    19    17   ar
    53    79    80    2
    54    81    83    1
    55    90    89   ar
    56    17    16    1
    57    17    18   ar
    58    15    14    2
    59    89    91   ar
    60    89    88    1
    61    16    13    1
    62    31    28    1
    63    86    87    2
    64    86    85    1
    65    14    13    1
    66    14    20   am
    67    66    65    1
    68    27    28    1
    69    27    22   am
    70    85    88    1
    71    85    84    1
    72    28    29    1
    73    13    12    1
    74    21    20    1
    75    21    22    1
    76    21    24    1
    77    22    23    2
    78    65    64    1
    79    57    55   am
    80    64    63    1
    81    70    69    2
    82    26    24    1
    83    24    25    1
    84    29    30    2
    85    29    32   am
    86    56    55    2
    87    55    54    1
    88    69    68    1
    89    63    62    1
    90    68    67    1
    91    32    33    1
    92    54    51    1
    93    50    51    1
    94    62    59    1
    95    51    52    1
    96    33    36    1
    97    33    34    1
    98    36    37    1
    99    34    35    2
   100    59    60    1
   101    59    58    1
   102    60    61    2
   103    52    53    2
   104    37    38   ar
   105    37    39   ar
   106    38    40   ar
   107    39    41   ar
   108    48    47    2
   109    49    47   am
   110    47    46    1
   111    40    41   ar
   112    46    43    1
   113    43    42    1
   114    43    44    1
   115    45    44    2
