@<TRIPOS>MOLECULE
tmp/5ou7A00.pdb
 108 104 0 0 0
SMALL
GASTEIGER

@<TRIPOS>ATOM
      1  N        -33.5700   -3.6170  -13.4630 N.3    15  SER15      -0.1202
      2  CA       -33.7140   -2.7430  -12.2870 C.3    15  SER15       0.2020
      3  C        -32.4820   -2.6910  -11.3830 C.2    15  SER15       0.2618
      4  O        -32.4870   -1.9440  -10.4270 O.2    15  SER15      -0.2717
      5  CB       -34.9550   -3.1050  -11.4570 C.3    15  SER15       0.2103
      6  OG       -34.8270   -4.3750  -10.9490 O.3    15  SER15      -0.2182
      7  N        -31.4420   -3.4730  -11.6840 N.am   16  LEU16      -0.1979
      8  CA       -30.1730   -3.4040  -10.9830 C.3    16  LEU16       0.1596
      9  C        -29.2260   -2.6340  -11.8680 C.2    16  LEU16       0.2287
     10  O        -28.7440   -3.1580  -12.8690 O.2    16  LEU16      -0.2864
     11  CB       -29.5890   -4.8140  -10.6920 C.3    16  LEU16       0.0297
     12  CG       -30.4610   -5.7610   -9.8510 C.3    16  LEU16       0.0022
     13  CD1      -29.8100   -7.1350   -9.5530 C.3    16  LEU16       0.0001
     14  CD2      -30.8180   -5.0260   -8.5680 C.3    16  LEU16       0.0001
     15  N        -38.4950   -1.2940   -7.5370 N.3    83  GLU83      -0.1245
     16  CA       -37.3500   -1.0680   -6.6790 C.3    83  GLU83       0.1567
     17  C        -36.0710   -0.8770   -7.4700 C.2    83  GLU83       0.2260
     18  O        -35.4040   -1.8720   -7.8510 O.2    83  GLU83      -0.2867
     19  CB       -37.1920   -2.2500   -5.7250 C.3    83  GLU83       0.0388
     20  CG       -38.2530   -2.2350   -4.6210 C.3    83  GLU83       0.1160
     21  CD       -38.1580   -3.4610   -3.7560 C.2    83  GLU83       0.3649
     22  OE1      -38.1290   -3.3230   -2.5130 O.co2  83  GLU83      -0.2457
     23  OE2      -38.1080   -4.5440   -4.3400 O.co2  83  GLU83      -0.2457
     24  N        -32.3700   -0.0350   -8.1230 N.3    85  VAL85      -0.1245
     25  CA       -31.1760   -0.1940   -7.3340 C.3    85  VAL85       0.1561
     26  C        -29.9830    0.4060   -8.0520 C.2    85  VAL85       0.2260
     27  O        -29.7720    0.1330   -9.2350 O.2    85  VAL85      -0.2867
     28  CB       -30.9100   -1.6920   -7.0810 C.3    85  VAL85       0.0252
     29  CG1      -29.5740   -1.9350   -6.3680 C.3    85  VAL85       0.0019
     30  CG2      -32.0420   -2.3410   -6.3180 C.3    85  VAL85       0.0019
     31  N        -26.8760   -6.6440    4.8550 N.3   117  GLN117     -0.1245
     32  CA       -27.6510   -7.2980    3.7710 C.3   117  GLN117      0.1566
     33  C        -26.7060   -7.7490    2.6320 C.2   117  GLN117      0.2260
     34  O        -25.7240   -7.0610    2.3180 O.2   117  GLN117     -0.2867
     35  CB       -28.7280   -6.4130    3.1920 C.3   117  GLN117      0.0367
     36  CG       -29.7980   -5.9300    4.1250 C.3   117  GLN117      0.0905
     37  CD       -30.8260   -6.9820    4.4280 C.2   117  GLN117      0.2608
     38  OE1      -31.7050   -7.2140    3.6270 O.2   117  GLN117     -0.2717
     39  NE2      -30.7650   -7.5670    5.6120 N.am  117  GLN117     -0.0878
     40  N        -26.6900   -9.9980   -1.2220 N.3   119  ALA119     -0.1245
     41  CA       -27.3650  -10.6290   -2.3410 C.3   119  ALA119      0.1562
     42  C        -26.3100  -11.3470   -3.1530 C.2   119  ALA119      0.2260
     43  O        -25.2760  -10.7620   -3.5180 O.2   119  ALA119     -0.2867
     44  CB       -28.0890   -9.6210   -3.1810 C.3   119  ALA119      0.0290
     45  N        -30.9540  -16.1600   -7.6420 N.3   129  TRP129     -0.1241
     46  CA       -30.6240  -15.1540   -6.6400 C.3   129  TRP129      0.1605
     47  C        -30.8310  -15.6660   -5.2070 C.2   129  TRP129      0.2264
     48  O        -31.7530  -16.4340   -4.9470 O.2   129  TRP129     -0.2867
     49  CB       -31.4550  -13.9040   -6.8810 C.3   129  TRP129      0.0550
     50  CG       -30.8980  -13.0600   -7.9480 C.ar  129  TRP129      0.0003
     51  CD1      -31.1140  -13.1630   -9.2890 C.ar  129  TRP129      0.0946
     52  CD2      -29.9880  -11.9770   -7.7580 C.ar  129  TRP129      0.0152
     53  NE1      -30.3760  -12.2080   -9.9520 N.ar  129  TRP129     -0.2442
     54  CE2      -29.7160  -11.4340   -9.0230 C.ar  129  TRP129      0.0810
     55  CE3      -29.3860  -11.4030   -6.6300 C.ar  129  TRP129      0.0012
     56  CZ2      -28.8300  -10.3500   -9.2010 C.ar  129  TRP129      0.0191
     57  CZ3      -28.5400  -10.2860   -6.8130 C.ar  129  TRP129      0.0001
     58  CH2      -28.2730   -9.7880   -8.0870 C.ar  129  TRP129      0.0015
     59  N        -30.5210  -14.1010   -1.0510 N.3   131  ARG131     -0.1245
     60  CA       -30.3800  -12.8900   -0.2710 C.3   131  ARG131      0.1563
     61  C        -30.4120  -13.2380    1.1840 C.2   131  ARG131      0.2260
     62  O        -31.1150  -14.1590    1.6050 O.2   131  ARG131     -0.2867
     63  CB       -31.4840  -11.8810   -0.6390 C.3   131  ARG131      0.0307
     64  CG       -31.4440  -10.6300    0.2240 C.3   131  ARG131      0.0489
     65  CD       -32.0760   -9.4330   -0.4420 C.3   131  ARG131      0.2205
     66  NE       -32.2170   -8.3520    0.5110 N.pl3 131  ARG131     -0.0865
     67  CZ       -32.9300   -7.2490    0.3080 C.cat 131  ARG131      0.5346
     68  NH1      -33.5770   -7.0630   -0.8170 N.pl3 131  ARG131      0.1354
     69  NH2      -32.9830   -6.3080    1.2420 N.pl3 131  ARG131      0.1354
     70  N        -29.4290   -2.2840    5.2140 N.3   154  SER154     -0.1217
     71  CA       -30.8780   -2.2490    5.3070 C.3   154  SER154      0.1889
     72  C        -31.4410   -0.8390    5.5610 C.2   154  SER154      0.2288
     73  O        -32.6250   -0.6100    5.3790 O.2   154  SER154     -0.2866
     74  CB       -31.3730   -3.2140    6.3850 C.3   154  SER154      0.2089
     75  OG       -30.9930   -2.7380    7.6640 O.3   154  SER154     -0.2183
     76  N        -31.5770    0.2990    1.3360 N.3   157  PRO157     -0.2102
     77  CA       -31.3410   -0.9240    0.6250 C.3   157  PRO157      0.1504
     78  C        -31.2850   -0.7850   -0.8900 C.2   157  PRO157      0.2575
     79  O        -31.1890   -1.7970   -1.5800 O.2   157  PRO157     -0.2718
     80  CB       -32.5230   -1.8100    1.0760 C.3   157  PRO157      0.0282
     81  CG       -33.6130   -0.8320    1.3000 C.3   157  PRO157      0.0208
     82  CD       -32.9270    0.3430    1.9360 C.3   157  PRO157      0.0893
     83  N        -31.3160    0.4370   -1.4240 N.am  158  TYR158     -0.1977
     84  CA       -31.3050    0.6260   -2.8750 C.3   158  TYR158      0.1639
     85  C        -29.9520    1.0850   -3.4020 C.2   158  TYR158      0.2290
     86  O        -29.8150    1.3340   -4.6030 O.2   158  TYR158     -0.2864
     87  CB       -32.4220    1.5930   -3.2980 C.3   158  TYR158      0.0560
     88  CG       -33.7480    1.1480   -2.7730 C.ar  158  TYR158     -0.0198
     89  CD1      -34.3870    0.0580   -3.3220 C.ar  158  TYR158     -0.0009
     90  CD2      -34.3250    1.7590   -1.6630 C.ar  158  TYR158     -0.0009
     91  CE1      -35.5920   -0.4010   -2.8070 C.ar  158  TYR158      0.0417
     92  CE2      -35.5370    1.3160   -1.1620 C.ar  158  TYR158      0.0417
     93  CZ       -36.1620    0.2430   -1.7490 C.ar  158  TYR158      0.1957
     94  OH       -37.3520   -0.2140   -1.2660 O.3   158  TYR158     -0.2866
     95  N        -26.2780   -0.3630   -3.5420 N.3   160  TRP160     -0.1241
     96  CA       -25.4400   -1.5600   -3.3650 C.3   160  TRP160      0.1605
     97  C        -23.9550   -1.3340   -3.6850 C.2   160  TRP160      0.2264
     98  O        -23.5790   -0.4030   -4.3810 O.2   160  TRP160     -0.2867
     99  CB       -25.9660   -2.7220   -4.2380 C.3   160  TRP160      0.0550
    100  CG       -27.3190   -3.2870   -3.8480 C.ar  160  TRP160      0.0003
    101  CD1      -28.2210   -2.7410   -2.9970 C.ar  160  TRP160      0.0946
    102  CD2      -27.9180   -4.4740   -4.3490 C.ar  160  TRP160      0.0152
    103  NE1      -29.3490   -3.5360   -2.9120 N.ar  160  TRP160     -0.2442
    104  CE2      -29.1790   -4.6030   -3.7410 C.ar  160  TRP160      0.0810
    105  CE3      -27.4960   -5.4770   -5.2200 C.ar  160  TRP160      0.0012
    106  CZ2      -30.0330   -5.6910   -4.0030 C.ar  160  TRP160      0.0191
    107  CZ3      -28.3580   -6.5270   -5.4850 C.ar  160  TRP160      0.0001
    108  CH2      -29.6000   -6.6400   -4.8420 C.ar  160  TRP160      0.0015
@<TRIPOS>BOND
     1     1     2    1
     2    10     9    2
     3     2     5    1
     4     2     3    1
     5     9     8    1
     6     7     3   am
     7     7     8    1
     8     5     6    1
     9     3     4    2
    10     8    11    1
    11    11    12    1
    12    53    51   ar
    13    53    54   ar
    14    12    13    1
    15    12    14    1
    16    51    50   ar
    17    27    26    2
    18    56    54   ar
    19    56    58   ar
    20    54    52   ar
    21    24    25    1
    22    58    57   ar
    23    26    25    1
    24    50    52   ar
    25    50    49    1
    26    18    17    2
    27    52    55   ar
    28    45    46    1
    29    15    16    1
    30    17    16    1
    31    25    28    1
    32    28    29    1
    33    28    30    1
    34    49    46    1
    35    57    55   ar
    36    16    19    1
    37    46    47    1
    38    19    20    1
    39   107   105   ar
    40   107   108   ar
    41   105   102   ar
    42    47    48    2
    43   108   106   ar
    44    20    21    1
    45    86    85    2
    46    98    97    2
    47   102   100   ar
    48   102   104   ar
    49    23    21   ar
    50    99   100    1
    51    99    96    1
    52   106   104   ar
    53   100   101   ar
    54    21    22   ar
    55   104   103   ar
    56    97    96    1
    57    95    96    1
    58    43    42    2
    59    85    84    1
    60    89    91   ar
    61    89    88   ar
    62    87    84    1
    63    87    88    1
    64    44    41    1
    65    42    41    1
    66   101   103   ar
    67    84    83    1
    68    91    93   ar
    69    88    90   ar
    70    41    40    1
    71    93    94    1
    72    93    92   ar
    73    90    92   ar
    74    79    78    2
    75    83    78   am
    76    59    60    1
    77    78    77    1
    78    68    67    1
    79    63    60    1
    80    63    64    1
    81    65    64    1
    82    65    66    1
    83    60    61    1
    84    67    66    2
    85    67    69    1
    86    77    80    1
    87    77    76    1
    88    80    81    1
    89    61    62    2
    90    81    82    1
    91    76    82    1
    92    34    33    2
    93    33    32    1
    94    35    32    1
    95    35    36    1
    96    38    37    2
    97    32    31    1
    98    36    37    1
    99    37    39   am
   100    70    71    1
   101    71    72    1
   102    71    74    1
   103    73    72    2
   104    74    75    1
