@<TRIPOS>MOLECULE
tmp/5ou8B01.pdb
 99 98 0 0 0
SMALL
GASTEIGER

@<TRIPOS>ATOM
      1  N        -15.2600    1.6300   21.2780 N.3    12  SER12      -0.1202
      2  CA       -14.7960    2.1840   20.0090 C.3    12  SER12       0.2020
      3  C        -13.3170    2.5110   20.0380 C.2    12  SER12       0.2618
      4  O        -12.7570    2.8490   18.9870 O.2    12  SER12      -0.2717
      5  CB       -15.6200    3.3890   19.5810 C.3    12  SER12       0.2103
      6  OG       -15.6250    4.4010   20.5430 O.3    12  SER12      -0.2182
      7  N        -12.6890    2.4140   21.2200 N.am   13  LEU13      -0.1979
      8  CA       -11.2130    2.4330   21.3080 C.3    13  LEU13       0.1596
      9  C        -10.7340    1.0400   21.4940 C.2    13  LEU13       0.2287
     10  O        -11.0720    0.4130   22.4800 O.2    13  LEU13      -0.2864
     11  CB       -10.6870    3.2350   22.4870 C.3    13  LEU13       0.0297
     12  CG       -11.1040    4.6800   22.6260 C.3    13  LEU13       0.0022
     13  CD1      -10.3470    5.2540   23.7930 C.3    13  LEU13       0.0001
     14  CD2      -10.8190    5.4680   21.3700 C.3    13  LEU13       0.0001
     15  N        -16.6320    6.5730   15.2750 N.3    80  GLU80      -0.1245
     16  CA       -15.2140    6.8420   15.1580 C.3    80  GLU80       0.1567
     17  C        -14.4280    5.6620   15.7110 C.2    80  GLU80       0.2260
     18  O        -14.2240    5.5680   16.9080 O.2    80  GLU80      -0.2867
     19  CB       -14.8550    8.1010   15.9520 C.3    80  GLU80       0.0388
     20  CG       -15.6500    9.3640   15.6030 C.3    80  GLU80       0.1160
     21  CD       -15.0250   10.1540   14.4630 C.2    80  GLU80       0.3649
     22  OE1      -15.0490    9.6540   13.3140 O.co2  80  GLU80      -0.2457
     23  OE2      -14.4940   11.2610   14.7160 O.co2  80  GLU80      -0.2457
     24  N        -11.2850    3.7630   16.6570 N.3    82  VAL82      -0.1245
     25  CA        -9.9120    4.1120   16.9330 C.3    82  VAL82       0.1561
     26  C         -9.1230    2.9050   17.3870 C.2    82  VAL82       0.2260
     27  O         -9.5860    2.1430   18.2340 O.2    82  VAL82      -0.2867
     28  CB        -9.8670    5.1560   18.0600 C.3    82  VAL82       0.0252
     29  CG1       -8.4440    5.3420   18.5730 C.3    82  VAL82       0.0019
     30  CG2      -10.4300    6.4740   17.5620 C.3    82  VAL82       0.0019
     31  N        -13.9760   13.4530   29.1930 N.3   126  TRP126     -0.1241
     32  CA       -12.9300   13.5390   28.1640 C.3   126  TRP126      0.1605
     33  C        -12.4590   14.9590   27.8790 C.2   126  TRP126      0.2264
     34  O        -13.2540   15.8820   27.8560 O.2   126  TRP126     -0.2867
     35  CB       -13.3990   12.8960   26.8700 C.3   126  TRP126      0.0550
     36  CG       -13.2750   11.4460   26.9280 C.ar  126  TRP126      0.0003
     37  CD1      -14.1830   10.5740   27.4510 C.ar  126  TRP126      0.0946
     38  CD2      -12.1570   10.6570   26.4880 C.ar  126  TRP126      0.0152
     39  NE1      -13.7110    9.2790   27.3380 N.ar  126  TRP126     -0.2442
     40  CE2      -12.4700    9.3030   26.7550 C.ar  126  TRP126      0.0810
     41  CE3      -10.9310   10.9580   25.8880 C.ar  126  TRP126      0.0012
     42  CZ2      -11.6010    8.2580   26.4490 C.ar  126  TRP126      0.0191
     43  CZ3      -10.0590    9.9170   25.5900 C.ar  126  TRP126      0.0001
     44  CH2      -10.4060    8.5800   25.8580 C.ar  126  TRP126      0.0015
     45  N         -9.4300   17.3770   25.4800 N.3   128  ARG128     -0.1245
     46  CA        -8.5150   17.3700   24.3410 C.3   128  ARG128      0.1563
     47  C         -7.7020   18.6390   24.1970 C.2   128  ARG128      0.2260
     48  O         -8.0990   19.7000   24.6530 O.2   128  ARG128     -0.2867
     49  CB        -9.2910   17.1910   23.0480 C.3   128  ARG128      0.0307
     50  CG        -9.8890   15.8150   22.8870 C.3   128  ARG128      0.0489
     51  CD       -10.9600   15.8180   21.8120 C.3   128  ARG128      0.2205
     52  NE       -11.8280   14.6580   21.9730 N.pl3 128  ARG128     -0.0865
     53  CZ       -11.5680   13.4480   21.4980 C.cat 128  ARG128      0.5346
     54  NH1      -10.4600   13.2300   20.7970 N.pl3 128  ARG128      0.1354
     55  NH2      -12.4330   12.4560   21.7160 N.pl3 128  ARG128      0.1354
     56  N         -1.6880   11.2560   19.7850 N.3   149  PHE149     -0.1241
     57  CA        -1.7440   10.8500   18.3930 C.3   149  PHE149      0.1605
     58  C         -1.4490   12.0190   17.4630 C.2   149  PHE149      0.2264
     59  O         -1.2030   13.1280   17.9350 O.2   149  PHE149     -0.2867
     60  CB        -3.1000   10.2460   18.0960 C.3   149  PHE149      0.0534
     61  CG        -4.2560   11.1580   18.3720 C.ar  149  PHE149     -0.0203
     62  CD1       -4.8280   11.2180   19.6350 C.ar  149  PHE149     -0.0042
     63  CD2       -4.8160   11.9120   17.3600 C.ar  149  PHE149     -0.0042
     64  CE1       -5.9290   12.0200   19.8810 C.ar  149  PHE149     -0.0003
     65  CE2       -5.9200   12.7130   17.5960 C.ar  149  PHE149     -0.0003
     66  CZ        -6.4750   12.7640   18.8570 C.ar  149  PHE149     -0.0000
     67  N         -5.6830   10.7500   12.7510 N.3   154  PRO154     -0.2102
     68  CA        -6.3740   10.9320   14.0350 C.3   154  PRO154      0.1504
     69  C         -7.0550    9.6820   14.5810 C.2   154  PRO154      0.2575
     70  O         -7.6750    9.7540   15.6280 O.2   154  PRO154     -0.2718
     71  CB        -7.4290   11.9960   13.7070 C.3   154  PRO154      0.0282
     72  CG        -7.7470   11.7420   12.2710 C.3   154  PRO154      0.0208
     73  CD        -6.4420   11.3430   11.6360 C.3   154  PRO154      0.0893
     74  N         -6.9610    8.5640   13.8760 N.am  155  TYR155     -0.1977
     75  CA        -7.5740    7.3310   14.3260 C.3   155  TYR155      0.1639
     76  C         -6.5670    6.2700   14.8380 C.2   155  TYR155      0.2290
     77  O         -6.9770    5.1760   15.2690 O.2   155  TYR155     -0.2864
     78  CB        -8.4150    6.7680   13.1880 C.3   155  TYR155      0.0560
     79  CG        -9.5860    7.6440   12.8280 C.ar  155  TYR155     -0.0198
     80  CD1      -10.7720    7.5560   13.5450 C.ar  155  TYR155     -0.0009
     81  CD2       -9.5280    8.5470   11.7570 C.ar  155  TYR155     -0.0009
     82  CE1      -11.8680    8.3480   13.2320 C.ar  155  TYR155      0.0417
     83  CE2      -10.6260    9.3460   11.4370 C.ar  155  TYR155      0.0417
     84  CZ       -11.7880    9.2380   12.1850 C.ar  155  TYR155      0.1957
     85  OH       -12.8870   10.0060   11.9360 O.3   155  TYR155     -0.2866
     86  N         -4.0410    5.8340   17.7510 N.3   157  TRP157     -0.1241
     87  CA        -3.6220    6.3570   19.0410 C.3   157  TRP157      0.1605
     88  C         -2.5340    5.5070   19.7160 C.2   157  TRP157      0.2264
     89  O         -2.3930    4.3040   19.4790 O.2   157  TRP157     -0.2867
     90  CB        -4.8340    6.4540   19.9610 C.3   157  TRP157      0.0550
     91  CG        -5.8320    7.5180   19.6080 C.ar  157  TRP157      0.0003
     92  CD1       -5.9850    8.1700   18.4030 C.ar  157  TRP157      0.0946
     93  CD2       -6.8460    8.0280   20.4650 C.ar  157  TRP157      0.0152
     94  NE1       -7.0220    9.0580   18.4810 N.ar  157  TRP157     -0.2442
     95  CE2       -7.5750    8.9850   19.7330 C.ar  157  TRP157      0.0810
     96  CE3       -7.2020    7.7830   21.7850 C.ar  157  TRP157      0.0012
     97  CZ2       -8.6370    9.7010   20.2880 C.ar  157  TRP157      0.0191
     98  CZ3       -8.2740    8.4910   22.3340 C.ar  157  TRP157      0.0001
     99  CH2       -8.9710    9.4420   21.5820 C.ar  157  TRP157      0.0015
@<TRIPOS>BOND
     1    83    81   ar
     2    83    84   ar
     3    73    72    1
     4    73    67    1
     5    81    79   ar
     6    85    84    1
     7    84    82   ar
     8    72    71    1
     9    67    68    1
    10    79    78    1
    11    79    80   ar
    12    78    75    1
    13    82    80   ar
    14    22    21   ar
    15    71    68    1
    16    74    75    1
    17    74    69   am
    18    68    69    1
    19    75    76    1
    20    21    23   ar
    21    21    20    1
    22    69    70    2
    23    76    77    2
    24    16    15    1
    25    16    17    1
    26    16    19    1
    27    20    19    1
    28    17    18    2
    29    24    25    1
    30    25    26    1
    31    25    28    1
    32    63    65   ar
    33    63    61   ar
    34    26    27    2
    35    58    59    2
    36    58    57    1
    37    30    28    1
    38    65    66   ar
    39    86    87    1
    40    28    29    1
    41    60    61    1
    42    60    57    1
    43    61    62   ar
    44    57    56    1
    45    92    94   ar
    46    92    91   ar
    47    94    95   ar
    48    66    64   ar
    49     4     3    2
    50    87    88    1
    51    87    90    1
    52    89    88    2
    53     5     2    1
    54     5     6    1
    55    91    90    1
    56    91    93   ar
    57    62    64   ar
    58    95    97   ar
    59    95    93   ar
    60     2     3    1
    61     2     1    1
    62     3     7   am
    63    97    99   ar
    64    93    96   ar
    65    54    53    1
    66     7     8    1
    67     8     9    1
    68     8    11    1
    69    14    12    1
    70     9    10    2
    71    53    55    1
    72    53    52    2
    73    99    98   ar
    74    96    98   ar
    75    51    52    1
    76    51    50    1
    77    11    12    1
    78    12    13    1
    79    50    49    1
    80    49    46    1
    81    47    46    1
    82    47    48    2
    83    46    45    1
    84    43    44   ar
    85    43    41   ar
    86    44    42   ar
    87    41    38   ar
    88    42    40   ar
    89    38    40   ar
    90    38    36   ar
    91    40    39   ar
    92    35    36    1
    93    35    32    1
    94    36    37   ar
    95    39    37   ar
    96    34    33    2
    97    33    32    1
    98    32    31    1
