@<TRIPOS>MOLECULE
tmp/5ou9A01.pdb
 108 106 0 0 0
SMALL
GASTEIGER

@<TRIPOS>ATOM
      1  N        -24.1820   10.7740  -28.7080 N.3    17  SER17      -0.1202
      2  CA       -25.0310   10.8210  -27.5040 C.3    17  SER17       0.2020
      3  C        -25.8910   12.0920  -27.4200 C.2    17  SER17       0.2618
      4  O        -26.7160   12.2230  -26.5110 O.2    17  SER17      -0.2717
      5  CB       -24.1920   10.6560  -26.2270 C.3    17  SER17       0.2103
      6  OG       -23.3150   11.7450  -26.0340 O.3    17  SER17      -0.2182
      7  N        -25.6620   13.0290  -28.3370 N.am   18  LEU18      -0.1979
      8  CA       -26.5450   14.1740  -28.5490 C.3    18  LEU18       0.1596
      9  C        -27.4230   13.8260  -29.7360 C.2    18  LEU18       0.2287
     10  O        -26.9610   13.7860  -30.8740 O.2    18  LEU18      -0.2864
     11  CB       -25.7280   15.4370  -28.8190 C.3    18  LEU18       0.0297
     12  CG       -24.7260   15.7740  -27.7100 C.3    18  LEU18       0.0022
     13  CD1      -23.9070   16.9880  -28.0880 C.3    18  LEU18       0.0001
     14  CD2      -25.4290   16.0060  -26.3870 C.3    18  LEU18       0.0001
     15  N        -24.5150    9.4030  -20.9040 N.3    85  GLU85      -0.1245
     16  CA       -25.4890   10.4720  -20.7780 C.3    85  GLU85       0.1567
     17  C        -26.1150   10.7280  -22.1410 C.2    85  GLU85       0.2260
     18  O        -25.4870   11.3100  -23.0180 O.2    85  GLU85      -0.2867
     19  CB       -24.8190   11.7000  -20.1710 C.3    85  GLU85       0.0388
     20  CG       -24.4120   11.4050  -18.7310 C.3    85  GLU85       0.1160
     21  CD       -24.1270   12.6330  -17.9050 C.2    85  GLU85       0.3649
     22  OE1      -23.1870   13.3720  -18.2630 O.co2  85  GLU85      -0.2457
     23  OE2      -24.8330   12.8370  -16.8900 O.co2  85  GLU85      -0.2457
     24  N        -28.6210   12.5260  -24.4320 N.3    87  VAL87      -0.1245
     25  CA       -29.2960   13.8300  -24.4770 C.3    87  VAL87       0.1561
     26  C        -30.2200   13.9560  -25.6940 C.2    87  VAL87       0.2260
     27  O        -29.8160   13.6620  -26.8190 O.2    87  VAL87      -0.2867
     28  CB       -28.2590   14.9660  -24.5180 C.3    87  VAL87       0.0252
     29  CG1      -28.9350   16.3230  -24.6900 C.3    87  VAL87       0.0019
     30  CG2      -27.4010   14.9310  -23.2560 C.3    87  VAL87       0.0019
     31  N        -13.4200   17.6600  -29.2120 N.3   129  GLU129     -0.1245
     32  CA       -14.3300   18.7820  -29.0930 C.3   129  GLU129      0.1567
     33  C        -14.0100   19.4480  -27.7490 C.2   129  GLU129      0.2260
     34  O        -13.7490   18.7590  -26.7640 O.2   129  GLU129     -0.2867
     35  CB       -15.7900   18.3080  -29.1670 C.3   129  GLU129      0.0388
     36  CG       -16.1890   17.6940  -30.5130 C.3   129  GLU129      0.1160
     37  CD       -17.5770   17.0580  -30.5100 C.2   129  GLU129      0.3649
     38  OE1      -18.0790   16.6770  -29.4330 O.co2 129  GLU129     -0.2457
     39  OE2      -18.1740   16.9200  -31.5960 O.co2 129  GLU129     -0.2457
     40  N        -15.4400   21.3610  -24.8910 N.3   131  TRP131     -0.1241
     41  CA       -16.7090   21.7540  -24.2750 C.3   131  TRP131      0.1605
     42  C        -16.5080   22.7730  -23.1630 C.2   131  TRP131      0.2264
     43  O        -15.4440   22.8190  -22.5470 O.2   131  TRP131     -0.2867
     44  CB       -17.4830   20.5280  -23.8030 C.3   131  TRP131      0.0550
     45  CG       -18.1220   19.8090  -24.9670 C.ar  131  TRP131      0.0003
     46  CD1      -17.5200   18.9340  -25.8200 C.ar  131  TRP131      0.0946
     47  CD2      -19.4760   19.9340  -25.4150 C.ar  131  TRP131      0.0152
     48  NE1      -18.4180   18.4920  -26.7580 N.ar  131  TRP131     -0.2442
     49  CE2      -19.6260   19.0910  -26.5320 C.ar  131  TRP131      0.0810
     50  CE3      -20.5780   20.6720  -24.9750 C.ar  131  TRP131      0.0012
     51  CZ2      -20.8310   18.9680  -27.2210 C.ar  131  TRP131      0.0191
     52  CZ3      -21.7760   20.5490  -25.6600 C.ar  131  TRP131      0.0001
     53  CH2      -21.8910   19.7050  -26.7740 C.ar  131  TRP131      0.0015
     54  N        -19.0520   25.1220  -20.0710 N.3   133  ARG133     -0.1245
     55  CA       -20.3140   25.0820  -19.3120 C.3   133  ARG133      0.1563
     56  C        -20.5250   26.3610  -18.5050 C.2   133  ARG133      0.2260
     57  O        -19.5550   27.0520  -18.1910 O.2   133  ARG133     -0.2867
     58  CB       -20.2700   23.9080  -18.3520 C.3   133  ARG133      0.0307
     59  CG       -20.1940   22.5510  -19.0220 C.3   133  ARG133      0.0489
     60  CD       -21.5630   22.0480  -19.4160 C.3   133  ARG133      0.2205
     61  NE       -21.4860   20.6240  -19.7300 N.pl3 133  ARG133     -0.0865
     62  CZ       -22.4430   19.7230  -19.5040 C.cat 133  ARG133      0.5346
     63  NH1      -23.6090   20.0550  -18.9410 N.pl3 133  ARG133      0.1354
     64  NH2      -22.2220   18.4590  -19.8400 N.pl3 133  ARG133      0.1354
     65  N        -30.3290   24.7060  -21.7950 N.3   154  PHE154     -0.1241
     66  CA       -31.2170   23.7500  -21.1330 C.3   154  PHE154      0.1605
     67  C        -31.4630   24.1550  -19.6810 C.2   154  PHE154      0.2264
     68  O        -30.7570   25.0100  -19.1420 O.2   154  PHE154     -0.2867
     69  CB       -30.6690   22.3110  -21.2290 C.3   154  PHE154      0.0534
     70  CG       -29.3300   22.0990  -20.5620 C.ar  154  PHE154     -0.0203
     71  CD1      -28.1470   22.3910  -21.2320 C.ar  154  PHE154     -0.0042
     72  CD2      -29.2470   21.5630  -19.2710 C.ar  154  PHE154     -0.0042
     73  CE1      -26.9090   22.1840  -20.6230 C.ar  154  PHE154     -0.0003
     74  CE2      -28.0100   21.3520  -18.6600 C.ar  154  PHE154     -0.0003
     75  CZ       -26.8400   21.6630  -19.3380 C.ar  154  PHE154     -0.0000
     76  N        -32.0940   18.0600  -17.1960 N.3   159  PRO159     -0.2102
     77  CA       -30.7650   18.3640  -17.7240 C.3   159  PRO159      0.1504
     78  C        -30.3070   17.4960  -18.9090 C.2   159  PRO159      0.2575
     79  O        -29.1710   17.6510  -19.3660 O.2   159  PRO159     -0.2718
     80  CB       -29.8640   18.1490  -16.5040 C.3   159  PRO159      0.0282
     81  CG       -30.5370   17.0570  -15.7440 C.3   159  PRO159      0.0208
     82  CD       -32.0150   17.2340  -15.9730 C.3   159  PRO159      0.0893
     83  N        -31.1670   16.5920  -19.3850 N.am  160  TYR160     -0.1977
     84  CA       -30.9460   15.8390  -20.6300 C.3   160  TYR160      0.1639
     85  C        -31.8920   16.2400  -21.7810 C.2   160  TYR160      0.2290
     86  O        -31.9270   15.5540  -22.8160 O.2   160  TYR160     -0.2864
     87  CB       -31.0890   14.3430  -20.3440 C.3   160  TYR160      0.0560
     88  CG       -30.1610   13.8650  -19.2650 C.ar  160  TYR160     -0.0198
     89  CD1      -30.5280   13.9330  -17.9140 C.ar  160  TYR160     -0.0009
     90  CD2      -28.9120   13.3460  -19.5800 C.ar  160  TYR160     -0.0009
     91  CE1      -29.6730   13.4980  -16.9120 C.ar  160  TYR160      0.0417
     92  CE2      -28.0520   12.9080  -18.5830 C.ar  160  TYR160      0.0417
     93  CZ       -28.4340   12.9860  -17.2530 C.ar  160  TYR160      0.1957
     94  OH       -27.5660   12.5470  -16.2850 O.3   160  TYR160     -0.2866
     95  N        -32.3300   19.2600  -24.1700 N.3   162  TRP162     -0.1241
     96  CA       -31.5720   20.4170  -24.6220 C.3   162  TRP162      0.1605
     97  C        -32.2790   21.1230  -25.7650 C.2   162  TRP162      0.2264
     98  O        -33.1040   20.5270  -26.4630 O.2   162  TRP162     -0.2867
     99  CB       -30.1760   19.9640  -25.0840 C.3   162  TRP162      0.0550
    100  CG       -29.2130   19.7040  -23.9570 C.ar  162  TRP162      0.0003
    101  CD1      -29.5210   19.4330  -22.6550 C.ar  162  TRP162      0.0946
    102  CD2      -27.7830   19.6800  -24.0410 C.ar  162  TRP162      0.0152
    103  NE1      -28.3750   19.2560  -21.9220 N.ar  162  TRP162     -0.2442
    104  CE2      -27.2920   19.3930  -22.7450 C.ar  162  TRP162      0.0810
    105  CE3      -26.8690   19.8690  -25.0830 C.ar  162  TRP162      0.0012
    106  CZ2      -25.9270   19.2930  -22.4600 C.ar  162  TRP162      0.0191
    107  CZ3      -25.5030   19.7780  -24.8020 C.ar  162  TRP162      0.0001
    108  CH2      -25.0470   19.4900  -23.4960 C.ar  162  TRP162      0.0015
@<TRIPOS>BOND
     1    39    37   ar
     2    10     9    2
     3    36    37    1
     4    36    35    1
     5    37    38   ar
     6     9     8    1
     7    31    32    1
     8    35    32    1
     9    32    33    1
    10    11     8    1
    11    11    12    1
    12     1     2    1
    13     8     7    1
    14     7     3   am
    15    13    12    1
    16    33    34    2
    17    12    14    1
    18     2     3    1
    19     2     5    1
    20     3     4    2
    21    51    53   ar
    22    51    49   ar
    23    27    26    2
    24    53    52   ar
    25    48    49   ar
    26    48    46   ar
    27    49    47   ar
    28    98    97    2
    29     5     6    1
    30    46    45   ar
    31    97    96    1
    32    26    25    1
    33    52    50   ar
    34    47    50   ar
    35    47    45   ar
    36    99    96    1
    37    99   100    1
    38   105   107   ar
    39   105   102   ar
    40    45    44    1
    41    40    41    1
    42   107   108   ar
    43    29    28    1
    44    96    95    1
    45    28    25    1
    46    28    30    1
    47    25    24    1
    48    41    44    1
    49    41    42    1
    50   102   100   ar
    51   102   104   ar
    52   100   101   ar
    53   108   106   ar
    54    42    43    2
    55    18    17    2
    56    86    85    2
    57   104   106   ar
    58   104   103   ar
    59   101   103   ar
    60    17    16    1
    61    65    66    1
    62    85    84    1
    63    71    73   ar
    64    71    70   ar
    65    69    66    1
    66    69    70    1
    67    66    67    1
    68    15    16    1
    69    16    19    1
    70    84    87    1
    71    84    83    1
    72    73    75   ar
    73    70    72   ar
    74    87    88    1
    75    19    20    1
    76    54    55    1
    77    64    62    1
    78    61    62    2
    79    61    60    1
    80    67    68    2
    81    90    88   ar
    82    90    92   ar
    83    62    63    1
    84    60    59    1
    85    83    78   am
    86    79    78    2
    87    75    74   ar
    88    55    56    1
    89    55    58    1
    90    72    74   ar
    91    88    89   ar
    92    59    58    1
    93    78    77    1
    94    20    21    1
    95    92    93   ar
    96    56    57    2
    97    22    21   ar
    98    89    91   ar
    99    21    23   ar
   100    77    76    1
   101    77    80    1
   102    93    91   ar
   103    93    94    1
   104    76    82    1
   105    80    81    1
   106    82    81    1
