@<TRIPOS>MOLECULE
tmp/5oueA00.pdb
 123 116 0 0 0
SMALL
GASTEIGER

@<TRIPOS>ATOM
      1  N          8.0750  124.4200  358.9570 N.3    44  LEU44      -0.1245
      2  CA         7.5200  125.6090  358.3020 C.3    44  LEU44       0.1561
      3  C          8.3410  126.0150  357.0930 C.2    44  LEU44       0.2260
      4  O          7.8360  126.7130  356.2090 O.2    44  LEU44      -0.2867
      5  CB         7.4540  126.7970  359.2860 C.3    44  LEU44       0.0270
      6  CG         6.5360  126.6030  360.4960 C.3    44  LEU44       0.0019
      7  CD1        6.7340  127.7180  361.5110 C.3    44  LEU44       0.0001
      8  CD2        5.0900  126.5720  360.0630 C.3    44  LEU44       0.0001
      9  N         13.1270  125.6350  360.2180 N.3    52  VAL52      -0.1245
     10  CA        12.1290  126.3290  361.0300 C.3    52  VAL52       0.1561
     11  C         10.9250  125.4320  361.2760 C.2    52  VAL52       0.2260
     12  O         10.4280  124.7970  360.3540 O.2    52  VAL52      -0.2867
     13  CB        11.7810  127.7150  360.4180 C.3    52  VAL52       0.0252
     14  CG1       10.8510  128.5110  361.3250 C.3    52  VAL52       0.0019
     15  CG2       13.0510  128.5180  360.1440 C.3    52  VAL52       0.0019
     16  N          7.6700  129.3720  367.5610 N.3    65  VAL65      -0.1245
     17  CA         8.4400  129.0310  366.3730 C.3    65  VAL65       0.1561
     18  C          9.8570  128.6510  366.7990 C.2    65  VAL65       0.2260
     19  O         10.4960  129.3820  367.5500 O.2    65  VAL65      -0.2867
     20  CB         8.4750  130.1900  365.3630 C.3    65  VAL65       0.0252
     21  CG1        9.5480  129.9500  364.3140 C.3    65  VAL65       0.0019
     22  CG2        7.1130  130.3590  364.7110 C.3    65  VAL65       0.0019
     23  N         13.6490  127.7600  365.4840 N.3    67  LYS67      -0.1245
     24  CA        14.5800  127.8300  364.3750 C.3    67  LYS67       0.1561
     25  C         15.8410  127.0580  364.7260 C.2    67  LYS67       0.2260
     26  O         16.7100  127.5630  365.4300 O.2    67  LYS67      -0.2867
     27  CB        14.9270  129.2840  364.0740 C.3    67  LYS67       0.0271
     28  CG        15.8910  129.4790  362.9190 C.3    67  LYS67       0.0035
     29  CD        16.3190  130.9330  362.8300 C.3    67  LYS67       0.0206
     30  CE        17.1820  131.1840  361.6100 C.3    67  LYS67       0.1093
     31  NZ        17.7290  132.5670  361.6050 N.3    67  LYS67      -0.1314
     32  N         23.5420  136.8150  365.7460 N.3    80  GLU80      -0.1245
     33  CA        22.0910  136.8410  365.6090 C.3    80  GLU80       0.1567
     34  C         21.4320  136.9360  366.9760 C.2    80  GLU80       0.2260
     35  O         20.5370  137.7470  367.1860 O.2    80  GLU80      -0.2867
     36  CB        21.5810  135.6140  364.8510 C.3    80  GLU80       0.0388
     37  CG        20.0790  135.6310  364.6220 C.3    80  GLU80       0.1160
     38  CD        19.5930  134.4750  363.7730 C.2    80  GLU80       0.3649
     39  OE1       20.4320  133.7210  363.2480 O.co2  80  GLU80      -0.2457
     40  OE2       18.3640  134.3250  363.6290 O.co2  80  GLU80      -0.2457
     41  N         10.5650  140.4880  365.2870 N.3    94  ILE94      -0.1245
     42  CA        10.2580  139.1680  365.8270 C.3    94  ILE94       0.1561
     43  C         10.8640  139.0480  367.2590 C.2    94  ILE94       0.2260
     44  O         12.0020  139.5050  367.5060 O.2    94  ILE94      -0.2867
     45  CB        10.7620  138.0660  364.8630 C.3    94  ILE94       0.0252
     46  CG1       10.1290  136.7150  365.2480 C.3    94  ILE94       0.0019
     47  CG2       12.3040  137.9860  364.7820 C.3    94  ILE94       0.0019
     48  CD1        8.6780  136.6860  364.9380 C.3    94  ILE94       0.0001
     49  N         11.0370  131.6170  369.0710 N.3   112  PHE112     -0.1227
     50  CA        10.3750  132.8930  368.8260 C.3   112  PHE112      0.1736
     51  C          8.9000  132.8150  369.1030 C.2   112  PHE112      0.2595
     52  O          8.2890  131.7360  369.0580 O.2   112  PHE112     -0.2718
     53  CB        10.5520  133.3160  367.3580 C.3   112  PHE112      0.0547
     54  CG        11.9650  133.4670  366.8620 C.ar  112  PHE112     -0.0202
     55  CD1       12.6490  134.6590  367.0270 C.ar  112  PHE112     -0.0042
     56  CD2       12.6020  132.4320  366.1870 C.ar  112  PHE112     -0.0042
     57  CE1       13.9490  134.8030  366.5570 C.ar  112  PHE112     -0.0003
     58  CE2       13.9060  132.5790  365.7240 C.ar  112  PHE112     -0.0003
     59  CZ        14.5800  133.7590  365.9330 C.ar  112  PHE112     -0.0000
     60  N          8.3010  134.0020  369.2720 N.am  113  GLU113     -0.1979
     61  CA         6.8470  134.1850  369.3590 C.3   113  GLU113      0.1602
     62  C          6.2760  133.6030  368.0730 C.2   113  GLU113      0.2287
     63  O          6.9030  133.7200  366.9990 O.2   113  GLU113     -0.2864
     64  CB         6.4990  135.6980  369.3630 C.3   113  GLU113      0.0415
     65  CG         7.0390  136.4600  368.1500 C.3   113  GLU113      0.1163
     66  CD         6.4950  137.8480  367.8930 C.2   113  GLU113      0.3649
     67  OE1        5.2600  137.9990  367.7580 O.co2 113  GLU113     -0.2457
     68  OE2        7.3170  138.7810  367.7720 O.co2 113  GLU113     -0.2457
     69  N          3.9900  133.5320  364.8240 N.3   115  VAL115     -0.1245
     70  CA         3.3180  134.4610  363.9080 C.3   115  VAL115      0.1561
     71  C          2.4990  133.6230  362.9310 C.2   115  VAL115      0.2260
     72  O          3.0440  132.7010  362.3240 O.2   115  VAL115     -0.2867
     73  CB         4.2280  135.4600  363.1790 C.3   115  VAL115      0.0252
     74  CG1        3.3740  136.5100  362.4480 C.3   115  VAL115      0.0019
     75  CG2        5.1960  136.1220  364.1530 C.3   115  VAL115      0.0019
     76  N         10.1080  137.2330  351.9070 N.3   159  HIS159     -0.1241
     77  CA        10.2620  136.0180  352.7020 C.3   159  HIS159      0.1621
     78  C         10.5320  136.3120  354.1820 C.2   159  HIS159      0.2264
     79  O         10.1090  135.5620  355.0540 O.2   159  HIS159     -0.2867
     80  CB        11.3600  135.1260  352.1260 C.3   159  HIS159      0.0745
     81  CG        11.4580  133.7890  352.7910 C.ar  159  HIS159      0.0817
     82  ND1       10.7250  132.6980  352.3790 N.ar  159  HIS159     -0.2268
     83  CD2       12.1960  133.3690  353.8450 C.ar  159  HIS159      0.1154
     84  CE1       11.0100  131.6620  353.1470 C.ar  159  HIS159      0.1986
     85  NE2       11.9010  132.0430  354.0440 N.ar  159  HIS159     -0.2212
     86  N          6.7340  138.6460  357.8310 N.3   162  MET162     -0.1245
     87  CA         5.5770  137.8250  358.1880 C.3   162  MET162      0.1570
     88  C          4.3950  138.6890  358.4790 C.2   162  MET162      0.2261
     89  O          4.4780  139.5600  359.3360 O.2   162  MET162     -0.2867
     90  CB         5.8520  136.9710  359.4140 C.3   162  MET162      0.0387
     91  CG         7.1630  136.2870  359.3410 C.3   162  MET162      0.0595
     92  SD         7.0090  134.5730  359.7410 S.3   162  MET162     -0.1393
     93  CE         6.5360  133.9730  358.1710 C.3   162  MET162      0.0692
     94  N         11.5790  139.3010  360.2660 N.3   173  ILE173     -0.1231
     95  CA        12.2390  138.1010  360.7900 C.3   173  ILE173      0.1692
     96  C         13.6150  137.8680  360.1770 C.2   173  ILE173      0.2592
     97  O         14.0670  138.6270  359.2950 O.2   173  ILE173     -0.2718
     98  CB        11.3190  136.8500  360.6080 C.3   173  ILE173      0.0266
     99  CG1       11.1640  136.4770  359.1000 C.3   173  ILE173      0.0019
    100  CG2        9.9650  137.0140  361.3030 C.3   173  ILE173      0.0020
    101  CD1       10.8820  134.9520  358.8030 C.3   173  ILE173      0.0001
    102  N         14.2520  136.7670  360.6220 N.am  174  ASP174     -0.1960
    103  CA        15.5670  136.2930  360.1650 C.3   174  ASP174      0.1840
    104  C         16.6470  137.3650  360.1810 C.2   174  ASP174      0.2622
    105  O         17.0540  137.8870  359.1390 O.2   174  ASP174     -0.2715
    106  CB        15.5010  135.6100  358.7810 C.3   174  ASP174      0.1450
    107  CG        16.7040  134.6900  358.5650 C.2   174  ASP174      0.3671
    108  OD1       17.6540  134.7420  359.3810 O.co2 174  ASP174     -0.2456
    109  OD2       16.6810  133.9120  357.6160 O.co2 174  ASP174     -0.2456
    110  N         17.1840  137.5770  361.3710 N.am  175  TRP175     -0.1974
    111  CA        18.2430  138.5190  361.6760 C.3   175  TRP175      0.1640
    112  C         19.6230  137.8630  361.5700 C.2   175  TRP175      0.2290
    113  O         20.6040  138.4180  362.0490 O.2   175  TRP175     -0.2864
    114  CB        17.9600  139.1100  363.0780 C.3   175  TRP175      0.0576
    115  CG        16.6840  139.9150  363.0630 C.ar  175  TRP175      0.0006
    116  CD1       15.4100  139.4390  363.1310 C.ar  175  TRP175      0.0946
    117  CD2       16.5760  141.3250  362.8340 C.ar  175  TRP175      0.0152
    118  NE1       14.5120  140.4670  362.9870 N.ar  175  TRP175     -0.2442
    119  CE2       15.1990  141.6420  362.8190 C.ar  175  TRP175      0.0810
    120  CE3       17.5200  142.3570  362.6400 C.ar  175  TRP175      0.0012
    121  CZ2       14.7310  142.9310  362.5850 C.ar  175  TRP175      0.0191
    122  CZ3       17.0530  143.6400  362.4080 C.ar  175  TRP175      0.0001
    123  CH2       15.6740  143.9210  362.4060 C.ar  175  TRP175      0.0015
@<TRIPOS>BOND
     1    76    77    1
     2    80    77    1
     3    80    81    1
     4    82    81   ar
     5    82    84   ar
     6    77    78    1
     7    81    83   ar
     8    84    85   ar
     9    83    85   ar
    10    78    79    2
    11     4     3    2
    12     3     2    1
    13   109   107   ar
    14    86    87    1
    15    93    92    1
    16    87    88    1
    17    87    90    1
    18     2     1    1
    19     2     5    1
    20    88    89    2
    21   107   106    1
    22   107   108   ar
    23   106   103    1
    24   101    99    1
    25    99    98    1
    26   105   104    2
    27     5     6    1
    28    97    96    2
    29    91    90    1
    30    91    92    1
    31     8     6    1
    32    15    13    1
    33   103   104    1
    34   103   102    1
    35    96   102   am
    36    96    95    1
    37   104   110   am
    38     9    10    1
    39    94    95    1
    40    12    11    2
    41    13    10    1
    42    13    14    1
    43     6     7    1
    44    98    95    1
    45    98   100    1
    46    10    11    1
    47   110   111    1
    48   112   111    1
    49   112   113    2
    50    31    30    1
    51    30    29    1
    52   111   114    1
    53    72    71    2
    54   123   122   ar
    55   123   121   ar
    56   122   120   ar
    57    74    73    1
    58   121   119   ar
    59   120   117   ar
    60   119   117   ar
    61   119   118   ar
    62    29    28    1
    63   117   115   ar
    64    28    27    1
    65    71    70    1
    66   118   116   ar
    67   115   114    1
    68   115   116   ar
    69    73    70    1
    70    73    75    1
    71    39    38   ar
    72    40    38   ar
    73    38    37    1
    74    70    69    1
    75    27    24    1
    76    21    20    1
    77    24    25    1
    78    24    23    1
    79    37    36    1
    80    22    20    1
    81    25    26    2
    82    47    45    1
    83    36    33    1
    84    45    46    1
    85    45    42    1
    86    48    46    1
    87    41    42    1
    88    20    17    1
    89    33    32    1
    90    33    34    1
    91    58    59   ar
    92    58    56   ar
    93    42    43    1
    94    59    57   ar
    95    56    54   ar
    96    17    18    1
    97    17    16    1
    98    57    55   ar
    99    18    19    2
   100    54    55   ar
   101    54    53    1
   102    34    35    2
   103    63    62    2
   104    43    44    2
   105    53    50    1
   106    67    66   ar
   107    68    66   ar
   108    66    65    1
   109    62    61    1
   110    65    64    1
   111    50    49    1
   112    50    51    1
   113    52    51    2
   114    51    60   am
   115    60    61    1
   116    61    64    1
