@<TRIPOS>MOLECULE
tmp/5oufA00.pdb
 165 160 0 0 0
SMALL
GASTEIGER

@<TRIPOS>ATOM
      1  N        176.7400  189.2810  209.7650 N.3    13  ILE13      -0.1245
      2  CA       177.9260  189.9880  210.2130 C.3    13  ILE13       0.1561
      3  C        179.0000  190.0430  209.1270 C.2    13  ILE13       0.2260
      4  O        179.5220  191.1220  208.8070 O.2    13  ILE13      -0.2867
      5  CB       178.4680  189.3800  211.5230 C.3    13  ILE13       0.0252
      6  CG1      177.4440  189.5290  212.6650 C.3    13  ILE13       0.0019
      7  CG2      179.7920  190.0220  211.9210 C.3    13  ILE13       0.0019
      8  CD1      177.0500  190.9530  213.0380 C.3    13  ILE13       0.0001
      9  N        177.8340  198.1330  208.4890 N.3    38  ILE38      -0.1245
     10  CA       179.1950  198.5860  208.7970 C.3    38  ILE38       0.1561
     11  C        180.1140  198.4680  207.5940 C.2    38  ILE38       0.2260
     12  O        180.8980  199.3890  207.3200 O.2    38  ILE38      -0.2867
     13  CB       179.8920  197.7750  209.9070 C.3    38  ILE38       0.0252
     14  CG1      178.9820  197.5300  211.0990 C.3    38  ILE38       0.0019
     15  CG2      181.1940  198.4810  210.2980 C.3    38  ILE38       0.0019
     16  CD1      179.6880  197.1440  212.3800 C.3    38  ILE38       0.0001
     17  N        172.5720  195.6070  210.0740 N.3    92  TYR92      -0.1227
     18  CA       173.5530  194.5370  210.0790 C.3    92  TYR92       0.1736
     19  C        173.3120  193.5130  211.2040 C.2    92  TYR92       0.2596
     20  O        172.7140  193.8100  212.2470 O.2    92  TYR92      -0.2718
     21  CB       174.9620  195.0780  210.0540 C.3    92  TYR92       0.0548
     22  CG       175.4890  195.5110  211.3750 C.ar   92  TYR92      -0.0200
     23  CD1      175.2090  196.7700  211.8750 C.ar   92  TYR92      -0.0009
     24  CD2      176.3090  194.6680  212.1210 C.ar   92  TYR92      -0.0009
     25  CE1      175.7180  197.1770  213.0990 C.ar   92  TYR92       0.0417
     26  CE2      176.8120  195.0560  213.3410 C.ar   92  TYR92       0.0417
     27  CZ       176.5230  196.3180  213.8250 C.ar   92  TYR92       0.1957
     28  OH       177.0260  196.7320  215.0320 O.3    92  TYR92      -0.2866
     29  N        173.7640  192.2860  210.9490 N.am   93  GLY93      -0.1942
     30  CA       173.5480  191.1870  211.8660 C.3    93  GLY93       0.2014
     31  C        172.1050  190.7230  211.8210 C.2    93  GLY93       0.2638
     32  O        171.5230  190.5580  210.7440 O.2    93  GLY93      -0.2714
     33  N        171.5470  190.5200  213.0060 N.am   94  HIS94      -0.1973
     34  CA       170.1080  190.3120  213.1980 C.3    94  HIS94       0.1656
     35  C        169.5290  191.6870  213.5180 C.2    94  HIS94       0.2291
     36  O        170.0300  192.3780  214.4210 O.2    94  HIS94      -0.2864
     37  CB       169.9050  189.3520  214.3670 C.3    94  HIS94       0.0771
     38  CG       168.4860  188.9710  214.6480 C.ar   94  HIS94       0.0820
     39  ND1      167.4730  189.8910  214.8360 N.ar   94  HIS94      -0.2267
     40  CD2      167.9380  187.7570  214.8960 C.ar   94  HIS94       0.1154
     41  CE1      166.3520  189.2490  215.1300 C.ar   94  HIS94       0.1986
     42  NE2      166.6130  187.9510  215.1840 N.ar   94  HIS94      -0.2212
     43  N        168.4880  192.3960  217.3330 N.3    97  VAL97      -0.1231
     44  CA       169.4300  192.0090  218.3810 C.3    97  VAL97       0.1692
     45  C        170.3300  193.2090  218.7000 C.2    97  VAL97       0.2592
     46  O        171.1990  193.5890  217.9070 O.2    97  VAL97      -0.2718
     47  CB       170.2140  190.7510  217.9180 C.3    97  VAL97       0.0266
     48  CG1      171.4040  190.4250  218.8020 C.3    97  VAL97       0.0020
     49  CG2      169.2680  189.5510  217.8880 C.3    97  VAL97       0.0020
     50  N        170.0890  193.8130  219.8650 N.am   98  PHE98      -0.1962
     51  CA       170.7400  195.0540  220.2760 C.3    98  PHE98       0.1771
     52  C        170.5080  196.1680  219.2320 C.2    98  PHE98       0.2619
     53  O        171.4300  196.8820  218.8350 O.2    98  PHE98      -0.2715
     54  CB       172.2360  194.8160  220.5710 C.3    98  PHE98       0.0574
     55  CG       172.4750  193.8360  221.6860 C.ar   98  PHE98      -0.0200
     56  CD1      172.3800  192.4600  221.4550 C.ar   98  PHE98      -0.0042
     57  CD2      172.7700  194.2630  222.9680 C.ar   98  PHE98      -0.0042
     58  CE1      172.5690  191.5410  222.4780 C.ar   98  PHE98      -0.0003
     59  CE2      172.9590  193.3440  223.9940 C.ar   98  PHE98      -0.0003
     60  CZ       172.8570  191.9850  223.7510 C.ar   98  PHE98      -0.0000
     61  N        169.2650  196.3030  218.7860 N.am   99  VAL99      -0.1977
     62  CA       168.8980  197.3420  217.8330 C.3    99  VAL99       0.1596
     63  C        167.6210  198.0240  218.3150 C.2    99  VAL99       0.2287
     64  O        166.5790  197.3980  218.3660 O.2    99  VAL99      -0.2864
     65  CB       168.6650  196.7970  216.4060 C.3    99  VAL99       0.0276
     66  CG1      168.3760  197.9330  215.4340 C.3    99  VAL99       0.0022
     67  CG2      169.8590  195.9920  215.9030 C.3    99  VAL99       0.0022
     68  N        173.2190  186.9260  213.9550 N.3   123  SER123     -0.1202
     69  CA       173.7800  187.8980  214.9010 C.3   123  SER123      0.2020
     70  C        175.2500  187.6430  215.2030 C.2   123  SER123      0.2618
     71  O        175.8150  186.5910  214.8720 O.2   123  SER123     -0.2717
     72  CB       173.0150  187.8580  216.2190 C.3   123  SER123      0.2103
     73  OG       173.3860  186.7000  216.9730 O.3   123  SER123     -0.2182
     74  N        175.8650  188.5910  215.8920 N.am  124  ALA124     -0.1979
     75  CA       177.2300  188.4110  216.3610 C.3   124  ALA124      0.1597
     76  C        177.3550  187.2560  217.3480 C.2   124  ALA124      0.2287
     77  O        178.4120  186.6110  217.4230 O.2   124  ALA124     -0.2864
     78  CB       177.7650  189.6870  216.9630 C.3   124  ALA124      0.0319
     79  N        177.6450  192.0830  225.0050 N.3   165  PHE165     -0.1227
     80  CA       177.7030  192.9570  223.8360 C.3   165  PHE165      0.1736
     81  C        178.0270  194.3940  224.2760 C.2   165  PHE165      0.2595
     82  O        177.7550  194.7730  225.4150 O.2   165  PHE165     -0.2718
     83  CB       176.3400  193.0280  223.1390 C.3   165  PHE165      0.0547
     84  CG       176.0230  191.8690  222.2300 C.ar  165  PHE165     -0.0202
     85  CD1      175.8380  190.5870  222.7360 C.ar  165  PHE165     -0.0042
     86  CD2      175.8350  192.0810  220.8690 C.ar  165  PHE165     -0.0042
     87  CE1      175.5100  189.5360  221.8860 C.ar  165  PHE165     -0.0003
     88  CE2      175.4810  191.0440  220.0190 C.ar  165  PHE165     -0.0003
     89  CZ       175.3360  189.7660  220.5260 C.ar  165  PHE165     -0.0000
     90  N        178.5610  195.1930  223.3550 N.am  166  GLN166     -0.1979
     91  CA       178.7980  196.6410  223.5790 C.3   166  GLN166      0.1601
     92  C        179.7710  196.9410  224.7240 C.2   166  GLN166      0.2287
     93  O        179.6740  197.9690  225.4100 O.2   166  GLN166     -0.2864
     94  CB       177.4600  197.4120  223.7150 C.3   166  GLN166      0.0394
     95  CG       176.6020  197.2220  222.4730 C.3   166  GLN166      0.0908
     96  CD       175.3690  198.0860  222.3500 C.2   166  GLN166      0.2608
     97  OE1      174.7470  198.0850  221.2920 O.2   166  GLN166     -0.2717
     98  NE2      174.9850  198.7940  223.4130 N.am  166  GLN166     -0.0878
     99  N        181.7460  200.5480  224.7040 N.3   169  CYS169     -0.1235
    100  CA       181.1130  201.8330  224.9940 C.3   169  CYS169      0.1677
    101  C        180.3680  201.7690  226.3270 C.2   169  CYS169      0.2270
    102  O        179.2090  202.1770  226.4360 O.2   169  CYS169     -0.2867
    103  CB       180.1970  202.2810  223.8370 C.3   169  CYS169      0.0956
    104  SG       178.9240  201.1000  223.3440 S.3   169  CYS169     -0.0801
    105  N        186.1900  188.7500  221.4890 N.3   205  TYR205     -0.1227
    106  CA       185.7070  188.1960  220.2240 C.3   205  TYR205      0.1736
    107  C        185.3160  189.2790  219.2280 C.2   205  TYR205      0.2595
    108  O        184.5120  190.1530  219.5410 O.2   205  TYR205     -0.2718
    109  CB       184.5230  187.2590  220.4610 C.3   205  TYR205      0.0548
    110  CG       183.9450  186.7410  219.1760 C.ar  205  TYR205     -0.0200
    111  CD1      184.7010  185.9170  218.3300 C.ar  205  TYR205     -0.0009
    112  CD2      182.6570  187.0910  218.7720 C.ar  205  TYR205     -0.0009
    113  CE1      184.1690  185.4330  217.1360 C.ar  205  TYR205      0.0417
    114  CE2      182.1290  186.6170  217.5800 C.ar  205  TYR205      0.0417
    115  CZ       182.8900  185.8020  216.7650 C.ar  205  TYR205      0.1957
    116  OH       182.3680  185.3250  215.6020 O.3   205  TYR205     -0.2866
    117  N        185.8960  189.2140  218.0300 N.am  206  ILE206     -0.1966
    118  CA       185.4520  190.0200  216.8960 C.3   206  ILE206      0.1727
    119  C        185.3390  189.0770  215.7010 C.2   206  ILE206      0.2616
    120  O        186.3550  188.5570  215.2000 O.2   206  ILE206     -0.2715
    121  CB       186.3960  191.1990  216.5450 C.3   206  ILE206      0.0290
    122  CG1      186.6550  192.0910  217.7620 C.3   206  ILE206      0.0022
    123  CG2      185.8130  192.0180  215.3890 C.3   206  ILE206      0.0023
    124  CD1      187.6970  193.1730  217.5210 C.3   206  ILE206      0.0001
    125  N        184.1030  188.8520  215.2650 N.am  207  ALA207     -0.1977
    126  CA       183.8260  188.1100  214.0440 C.3   207  ALA207      0.1597
    127  C        184.4370  188.8270  212.8450 C.2   207  ALA207      0.2287
    128  O        184.4140  190.0670  212.7630 O.2   207  ALA207     -0.2864
    129  CB       182.3260  187.9560  213.8400 C.3   207  ALA207      0.0319
    130  N        184.5310  190.4630  209.4540 N.3   209  MET209     -0.1245
    131  CA       183.5410  191.1860  208.6790 C.3   209  MET209      0.1570
    132  C        183.7760  191.0610  207.1880 C.2   209  MET209      0.2261
    133  O        182.8660  191.2740  206.4080 O.2   209  MET209     -0.2867
    134  CB       183.5080  192.6590  209.1290 C.3   209  MET209      0.0387
    135  CG       182.9390  192.7750  210.5370 C.3   209  MET209      0.0595
    136  SD       183.1140  194.3770  211.3310 S.3   209  MET209     -0.1393
    137  CE       182.2190  195.3360  210.1380 C.3   209  MET209      0.0692
    138  N        186.8730  197.6540  220.9800 N.3   235  GLY235     -0.1210
    139  CA       186.1780  198.7010  220.2490 C.3   235  GLY235      0.1956
    140  C        184.6950  198.4480  220.0660 C.2   235  GLY235      0.2612
    141  O        184.0910  197.6030  220.7470 O.2   235  GLY235     -0.2717
    142  N        184.1260  199.1650  219.1040 N.am  236  GLY236     -0.1942
    143  CA       182.7000  199.1210  218.8190 C.3   236  GLY236      0.2014
    144  C        182.1420  197.8180  218.2810 C.2   236  GLY236      0.2639
    145  O        180.9250  197.6160  218.3340 O.2   236  GLY236     -0.2714
    146  N        183.0070  196.9470  217.7510 N.am  237  VAL237     -0.1963
    147  CA       182.5700  195.6200  217.2530 C.3   237  VAL237      0.1727
    148  C        183.1150  194.4720  218.1250 C.2   237  VAL237      0.2617
    149  O        183.1530  193.3190  217.6950 O.2   237  VAL237     -0.2715
    150  CB       182.9030  195.4100  215.7520 C.3   237  VAL237      0.0290
    151  CG1      182.0590  196.3320  214.8860 C.3   237  VAL237      0.0023
    152  CG2      184.3920  195.5860  215.4550 C.3   237  VAL237      0.0023
    153  N        183.4860  194.7890  219.3660 N.am  238  SER238     -0.1936
    154  CA       183.9970  193.8080  220.3130 C.3   238  SER238      0.2055
    155  C        182.8710  193.2200  221.1640 C.2   238  SER238      0.2643
    156  O        181.9980  193.9400  221.6450 O.2   238  SER238     -0.2714
    157  CB       185.0280  194.4450  221.2320 C.3   238  SER238      0.2130
    158  OG       186.1560  194.8840  220.4890 O.3   238  SER238     -0.2179
    159  N        182.9160  191.9040  221.3370 N.am  239  THR239     -0.1950
    160  CA       182.0220  191.1850  222.2330 C.3   239  THR239      0.1897
    161  C        182.8840  190.3390  223.1490 C.2   239  THR239      0.2313
    162  O        183.9250  189.8400  222.7280 O.2   239  THR239     -0.2863
    163  CB       181.0500  190.3250  221.4030 C.3   239  THR239      0.1794
    164  OG1      180.1990  191.1990  220.6550 O.3   239  THR239     -0.2208
    165  CG2      180.1930  189.3890  222.2620 C.3   239  THR239      0.0378
@<TRIPOS>BOND
     1   133   132    2
     2   132   131    1
     3    12    11    2
     4    11    10    1
     5     9    10    1
     6   131   134    1
     7   131   130    1
     8    10    13    1
     9     4     3    2
    10     3     2    1
    11   134   135    1
    12     1     2    1
    13    13    15    1
    14    13    14    1
    15    21    18    1
    16    21    22    1
    17    17    18    1
    18    18    19    1
    19   137   136    1
    20     2     5    1
    21   135   136    1
    22    32    31    2
    23    29    19   am
    24    29    30    1
    25    14    16    1
    26    19    20    2
    27    22    23   ar
    28    22    24   ar
    29     5     7    1
    30     5     6    1
    31    31    30    1
    32    31    33   am
    33    23    25   ar
    34    24    26   ar
    35     6     8    1
    36   128   127    2
    37   127   126    1
    38    33    34    1
    39    25    27   ar
    40    34    35    1
    41    34    37    1
    42    26    27   ar
    43    35    36    2
    44    27    28    1
    45   129   126    1
    46    68    69    1
    47   126   125    1
    48    37    38    1
    49    38    39   ar
    50    38    40   ar
    51    39    41   ar
    52    71    70    2
    53   151   150    1
    54    40    42   ar
    55    69    70    1
    56    69    72    1
    57    41    42   ar
    58   120   119    2
    59    70    74   am
    60   125   119   am
    61   123   121    1
    62    66    65    1
    63   152   150    1
    64   116   115    1
    65   119   118    1
    66   150   147    1
    67    74    75    1
    68    67    65    1
    69    72    73    1
    70    75    78    1
    71    75    76    1
    72    65    62    1
    73   121   118    1
    74   121   122    1
    75   115   113   ar
    76   115   114   ar
    77   118   117    1
    78   113   111   ar
    79   147   146    1
    80   147   148    1
    81    43    44    1
    82    76    77    2
    83   124   122    1
    84   114   112   ar
    85   149   148    2
    86   146   144   am
    87    62    63    1
    88    62    61    1
    89    49    47    1
    90    46    45    2
    91    47    44    1
    92    47    48    1
    93   117   107   am
    94   148   153   am
    95   144   145    2
    96   144   143    1
    97    63    64    2
    98   111   110   ar
    99    44    45    1
   100    45    50   am
   101   112   110   ar
   102    61    52   am
   103   143   142    1
   104    53    52    2
   105   142   140   am
   106   110   109    1
   107   107   108    2
   108   107   106    1
   109    52    51    1
   110   153   154    1
   111    50    51    1
   112    88    89   ar
   113    88    86   ar
   114   140   139    1
   115   140   141    2
   116   106   109    1
   117   106   105    1
   118   139   138    1
   119    51    54    1
   120   154   155    1
   121   154   157    1
   122   158   157    1
   123    89    87   ar
   124    54    55    1
   125   164   163    1
   126    86    84   ar
   127   155   159   am
   128   155   156    2
   129    97    96    2
   130   159   160    1
   131   163   160    1
   132   163   165    1
   133    56    55   ar
   134    56    58   ar
   135    55    57   ar
   136    87    85   ar
   137    84    85   ar
   138    84    83    1
   139   160   161    1
   140    96    95    1
   141    96    98   am
   142    95    94    1
   143    58    60   ar
   144   162   161    2
   145    57    59   ar
   146    83    80    1
   147   104   103    1
   148    90    91    1
   149    90    81   am
   150    91    94    1
   151    91    92    1
   152    60    59   ar
   153    80    81    1
   154    80    79    1
   155   103   100    1
   156    81    82    2
   157    99   100    1
   158    92    93    2
   159   100   101    1
   160   101   102    2
