@<TRIPOS>MOLECULE
tmp/5ougB03.pdb
 108 101 0 0 0
SMALL
GASTEIGER

@<TRIPOS>ATOM
      1  N         29.7860  -15.0210    3.2740 N.3    55  LEU55      -0.1245
      2  CA        29.0000  -16.2480    3.2390 C.3    55  LEU55       0.1561
      3  C         28.1580  -16.2940    2.0070 C.2    55  LEU55       0.2260
      4  O         27.6800  -15.2730    1.5510 O.2    55  LEU55      -0.2867
      5  CB        28.0840  -16.3370    4.4560 C.3    55  LEU55       0.0270
      6  CG        28.7770  -16.2140    5.8080 C.3    55  LEU55       0.0019
      7  CD1       27.7890  -16.4310    6.9630 C.3    55  LEU55       0.0001
      8  CD2       29.9170  -17.2040    5.9130 C.3    55  LEU55       0.0001
      9  N         24.8170  -18.3740    0.8350 N.3    57  MET57      -0.1245
     10  CA        23.7380  -19.2650    1.2180 C.3    57  MET57       0.1570
     11  C         22.7050  -19.2710    0.1220 C.2    57  MET57       0.2261
     12  O         22.4410  -18.2470   -0.4670 O.2    57  MET57      -0.2867
     13  CB        23.0820  -18.7840    2.4980 C.3    57  MET57       0.0387
     14  CG        23.8710  -19.2080    3.7050 C.3    57  MET57       0.0595
     15  SD        23.1980  -18.5390    5.2220 S.3    57  MET57      -0.1393
     16  CE        23.8450  -16.8820    5.1290 C.3    57  MET57       0.0692
     17  N         14.6340  -16.9480    6.4420 N.3    86  LYS86      -0.1245
     18  CA        16.0350  -17.2400    6.2530 C.3    86  LYS86       0.1561
     19  C         16.5660  -18.2630    7.2510 C.2    86  LYS86       0.2260
     20  O         16.1100  -18.3060    8.3730 O.2    86  LYS86      -0.2867
     21  CB        16.8890  -15.9890    6.3150 C.3    86  LYS86       0.0271
     22  CG        16.6270  -15.1480    7.5380 C.3    86  LYS86       0.0035
     23  CD        17.7330  -14.1290    7.7750 C.3    86  LYS86       0.0206
     24  CE        19.0620  -14.8150    8.1010 C.3    86  LYS86       0.1093
     25  NZ        19.9050  -14.0810    9.1000 N.3    86  LYS86      -0.1314
     26  N         18.5530  -20.0070   10.1020 N.3    88  ASP88      -0.1225
     27  CA        19.0350  -19.5120   11.3910 C.3    88  ASP88       0.1805
     28  C         20.4250  -20.0690   11.6460 C.2    88  ASP88       0.2598
     29  O         20.6760  -20.6680   12.6820 O.2    88  ASP88      -0.2718
     30  CB        18.0570  -19.9190   12.4980 C.3    88  ASP88       0.1424
     31  CG        17.9640  -21.4380   12.6690 C.2    88  ASP88       0.3668
     32  OD1       18.1200  -22.1870   11.6750 O.co2  88  ASP88      -0.2456
     33  OD2       17.7650  -21.8860   13.8180 O.co2  88  ASP88      -0.2456
     34  N         21.3200  -19.8510   10.7090 N.am   89  ILE89      -0.1966
     35  CA        22.6410  -20.4210   10.7780 C.3    89  ILE89       0.1727
     36  C         23.4550  -19.5920   11.7300 C.2    89  ILE89       0.2616
     37  O         23.4140  -18.3960   11.6630 O.2    89  ILE89      -0.2715
     38  CB        23.3620  -20.3680    9.4270 C.3    89  ILE89       0.0290
     39  CG1       22.5670  -21.0580    8.3420 C.3    89  ILE89       0.0022
     40  CG2       24.7510  -20.9660    9.5440 C.3    89  ILE89       0.0023
     41  CD1       22.4870  -22.5410    8.3850 C.3    89  ILE89       0.0001
     42  N         24.2380  -20.2370   12.5650 N.am   90  LEU90      -0.1963
     43  CA        24.9960  -19.5950   13.6130 C.3    90  LEU90       0.1728
     44  C         26.4560  -20.0550   13.4690 C.2    90  LEU90       0.2616
     45  O         26.6930  -21.2150   13.1560 O.2    90  LEU90      -0.2715
     46  CB        24.4130  -20.0650   14.9230 C.3    90  LEU90       0.0311
     47  CG        25.2610  -20.0840   16.1710 C.3    90  LEU90       0.0022
     48  CD1       25.5150  -18.6590   16.6600 C.3    90  LEU90       0.0001
     49  CD2       24.5830  -20.9060   17.2490 C.3    90  LEU90       0.0001
     50  N         27.4200  -19.1610   13.7090 N.am   91  LEU91      -0.1977
     51  CA        28.8000  -19.5380   13.8940 C.3    91  LEU91       0.1596
     52  C         28.9750  -19.8830   15.3380 C.2    91  LEU91       0.2287
     53  O         28.9530  -19.0050   16.1540 O.2    91  LEU91      -0.2864
     54  CB        29.7640  -18.4080   13.5510 C.3    91  LEU91       0.0297
     55  CG        31.2660  -18.5450   13.9220 C.3    91  LEU91       0.0022
     56  CD1       31.8560  -19.8330   13.3460 C.3    91  LEU91       0.0001
     57  CD2       32.0560  -17.3610   13.4140 C.3    91  LEU91       0.0001
     58  N         31.4850  -17.9420   17.8720 N.3    94  ALA94      -0.1245
     59  CA        31.3850  -16.4940   17.9410 C.3    94  ALA94       0.1562
     60  C         31.2700  -16.0070   19.3650 C.2    94  ALA94       0.2260
     61  O         30.5620  -16.5890   20.1670 O.2    94  ALA94      -0.2867
     62  CB        30.1900  -15.9920   17.1230 C.3    94  ALA94       0.0290
     63  N         28.1660  -10.6080   18.4460 N.3    97  ARG97      -0.1231
     64  CA        27.2480  -10.6770   17.3090 C.3    97  ARG97       0.1679
     65  C         28.0220  -10.3130   16.0390 C.2    97  ARG97       0.2434
     66  O         29.0880   -9.6830   16.1020 O.2    97  ARG97      -0.2733
     67  CB        26.0800   -9.7140   17.4910 C.3    97  ARG97       0.0321
     68  CG        25.1490  -10.0720   18.6420 C.3    97  ARG97       0.0489
     69  CD        24.1830   -8.9130   19.0000 C.3    97  ARG97       0.2205
     70  NE        23.1450   -8.8210   17.9720 N.pl3  97  ARG97      -0.0865
     71  CZ        22.0150   -9.5260   17.9250 C.cat  97  ARG97       0.5346
     72  NH1       21.6510  -10.3630   18.9170 N.pl3  97  ARG97       0.1354
     73  NH2       21.2020   -9.3570   16.8730 N.pl3  97  ARG97       0.1354
     74  N         27.5030  -10.7080   14.8950 N.am   98  PRO98      -0.2729
     75  CA        28.1580  -10.3050   13.6440 C.3    98  PRO98       0.1401
     76  C         27.7950   -8.8780   13.2530 C.2    98  PRO98       0.2269
     77  O         26.7460   -8.4210   13.6180 O.2    98  PRO98      -0.2865
     78  CB        27.6130  -11.3000   12.6160 C.3    98  PRO98       0.0296
     79  CG        26.3090  -11.7670   13.1880 C.3    98  PRO98       0.0237
     80  CD        26.3710  -11.6190   14.6720 C.3    98  PRO98       0.0939
     81  N         30.2940  -10.5110    6.4990 N.3   120  ILE120     -0.1245
     82  CA        30.2470  -10.1690    7.9120 C.3   120  ILE120      0.1561
     83  C         31.6320   -9.9870    8.5390 C.2   120  ILE120      0.2260
     84  O         32.6170  -10.6340    8.1560 O.2   120  ILE120     -0.2867
     85  CB        29.4300  -11.1680    8.7450 C.3   120  ILE120      0.0252
     86  CG1       30.2790  -12.4070    9.0070 C.3   120  ILE120      0.0019
     87  CG2       28.1220  -11.5210    8.0470 C.3   120  ILE120      0.0019
     88  CD1       29.5120  -13.6660    9.3670 C.3   120  ILE120      0.0001
     89  N         33.2840  -10.4200   12.0950 N.3   122  GLN122     -0.1245
     90  CA        32.9570  -11.3230   13.1720 C.3   122  GLN122      0.1566
     91  C         34.1910  -11.6610   14.0020 C.2   122  GLN122      0.2260
     92  O         35.2300  -12.0150   13.4510 O.2   122  GLN122     -0.2867
     93  CB        32.4000  -12.5870   12.5380 C.3   122  GLN122      0.0367
     94  CG        32.0240  -13.7030   13.4990 C.3   122  GLN122      0.0905
     95  CD        30.8220  -13.3710   14.3120 C.2   122  GLN122      0.2608
     96  OE1       29.6930  -13.5400   13.8670 O.2   122  GLN122     -0.2717
     97  NE2       31.0520  -12.9240   15.5220 N.am  122  GLN122     -0.0878
     98  N         29.5610  -23.9300   11.4980 N.3   143  PHE143     -0.1241
     99  CA        28.2940  -23.2870   11.1900 C.3   143  PHE143      0.1605
    100  C         27.1640  -24.3020   11.1890 C.2   143  PHE143      0.2264
    101  O         27.3380  -25.4250   10.7020 O.2   143  PHE143     -0.2867
    102  CB        28.3530  -22.6470    9.8240 C.3   143  PHE143      0.0534
    103  CG        29.2630  -21.4660    9.7440 C.ar  143  PHE143     -0.0203
    104  CD1       28.7930  -20.1810   10.0180 C.ar  143  PHE143     -0.0042
    105  CD2       30.6010  -21.6180    9.3680 C.ar  143  PHE143     -0.0042
    106  CE1       29.6250  -19.0950    9.9170 C.ar  143  PHE143     -0.0003
    107  CE2       31.4400  -20.5170    9.2660 C.ar  143  PHE143     -0.0003
    108  CZ        30.9450  -19.2640    9.5310 C.ar  143  PHE143     -0.0000
@<TRIPOS>BOND
     1    12    11    2
     2    11    10    1
     3     9    10    1
     4    10    13    1
     5     4     3    2
     6     3     2    1
     7    13    14    1
     8     2     1    1
     9     2     5    1
    10    14    15    1
    11     5     6    1
    12    16    15    1
    13     6     8    1
    14     6     7    1
    15    18    21    1
    16    18    17    1
    17    18    19    1
    18    21    22    1
    19    81    82    1
    20    19    20    2
    21    22    23    1
    22    23    24    1
    23    82    83    1
    24    82    85    1
    25    87    85    1
    26    24    25    1
    27    84    83    2
    28    39    41    1
    29    39    38    1
    30    85    86    1
    31    86    88    1
    32   107   105   ar
    33   107   108   ar
    34   105   103   ar
    35    38    40    1
    36    38    35    1
    37   108   106   ar
    38   103   102    1
    39   103   104   ar
    40   102    99    1
    41   106   104   ar
    42    26    27    1
    43   101   100    2
    44    34    35    1
    45    34    28   am
    46    35    36    1
    47   100    99    1
    48    99    98    1
    49    27    28    1
    50    27    30    1
    51    28    29    2
    52    37    36    2
    53    32    31   ar
    54    36    42   am
    55    89    90    1
    56    30    31    1
    57    93    90    1
    58    93    94    1
    59    42    43    1
    60    78    79    1
    61    78    75    1
    62    31    33   ar
    63    45    44    2
    64    90    91    1
    65    79    80    1
    66    76    77    2
    67    76    75    1
    68    56    55    1
    69    57    55    1
    70    92    91    2
    71    44    43    1
    72    44    50   am
    73    94    95    1
    74    54    51    1
    75    54    55    1
    76    43    46    1
    77    75    74    1
    78    50    51    1
    79    96    95    2
    80    51    52    1
    81    95    97   am
    82    80    74    1
    83    74    65   am
    84    46    47    1
    85    52    53    2
    86    65    66    2
    87    65    64    1
    88    47    48    1
    89    47    49    1
    90    73    71    1
    91    62    59    1
    92    64    67    1
    93    64    63    1
    94    67    68    1
    95    58    59    1
    96    71    70    2
    97    71    72    1
    98    59    60    1
    99    70    69    1
   100    68    69    1
   101    60    61    2
