@<TRIPOS>MOLECULE
tmp/5ougB04.pdb
 130 127 0 0 0
SMALL
GASTEIGER

@<TRIPOS>ATOM
      1  N          4.1050   -8.1040   -8.4630 N.3     7  LEU7       -0.1231
      2  CA         4.7620   -9.2620   -7.8670 C.3     7  LEU7        0.1693
      3  C          5.0410   -9.0750   -6.3760 C.2     7  LEU7        0.2592
      4  O          4.6720   -9.9340   -5.5900 O.2     7  LEU7       -0.2718
      5  CB         6.0500   -9.6240   -8.6210 C.3     7  LEU7        0.0284
      6  CG         6.7640  -10.9390   -8.2720 C.3     7  LEU7        0.0019
      7  CD1        5.8040  -12.1120   -8.3110 C.3     7  LEU7        0.0001
      8  CD2        7.9320  -11.1700   -9.2070 C.3     7  LEU7        0.0001
      9  N          5.6370   -7.9460   -5.9820 N.am    8  TYR8       -0.1976
     10  CA         5.8750   -7.6670   -4.5420 C.3     8  TYR8        0.1639
     11  C          4.5950   -7.5600   -3.7420 C.2     8  TYR8        0.2290
     12  O          4.5880   -7.9130   -2.5780 O.2     8  TYR8       -0.2864
     13  CB         6.6750   -6.3770   -4.2980 C.3     8  TYR8        0.0560
     14  CG         8.1580   -6.4600   -4.5730 C.ar    8  TYR8       -0.0198
     15  CD1        8.6300   -6.6040   -5.8770 C.ar    8  TYR8       -0.0009
     16  CD2        9.0930   -6.3570   -3.5470 C.ar    8  TYR8       -0.0009
     17  CE1        9.9750   -6.6590   -6.1670 C.ar    8  TYR8        0.0417
     18  CE2       10.4540   -6.4120   -3.8250 C.ar    8  TYR8        0.0417
     19  CZ        10.8820   -6.5580   -5.1460 C.ar    8  TYR8        0.1957
     20  OH        12.2080   -6.5990   -5.4850 O.3     8  TYR8       -0.2866
     21  N          1.9250   -9.2420   -3.9640 N.3    10  GLU10      -0.1231
     22  CA         1.5500  -10.6220   -3.6020 C.3    10  GLU10       0.1699
     23  C          2.3380  -11.2720   -2.4100 C.2    10  GLU10       0.2592
     24  O          1.7670  -12.0890   -1.6750 O.2    10  GLU10      -0.2718
     25  CB         1.6430  -11.5150   -4.8400 C.3    10  GLU10       0.0402
     26  CG         0.6940  -11.1400   -5.9690 C.3    10  GLU10       0.1161
     27  CD        -0.7330  -11.5400   -5.6760 C.2    10  GLU10       0.3649
     28  OE1       -0.9620  -12.7570   -5.6570 O.co2  10  GLU10      -0.2457
     29  OE2       -1.6120  -10.6720   -5.4670 O.co2  10  GLU10      -0.2457
     30  N          3.6200  -10.9230   -2.2190 N.am   11  LEU11      -0.1980
     31  CA         4.3960  -11.3860   -1.0490 C.3    11  LEU11       0.1596
     32  C          3.7160  -10.9690    0.2490 C.2    11  LEU11       0.2287
     33  O          3.1820  -11.8030    0.9740 O.2    11  LEU11      -0.2864
     34  CB         5.8460  -10.8460   -1.0590 C.3    11  LEU11       0.0297
     35  CG         6.8220  -11.2460    0.0820 C.3    11  LEU11       0.0022
     36  CD1        7.1710  -12.7150   -0.0930 C.3    11  LEU11       0.0001
     37  CD2        8.1000  -10.4210    0.1460 C.3    11  LEU11       0.0001
     38  N          7.1030  -21.1680   -1.6450 N.3    63  TYR63      -0.1227
     39  CA         6.0930  -20.0880   -1.5630 C.3    63  TYR63       0.1736
     40  C          6.4720  -18.8650   -2.3520 C.2    63  TYR63       0.2595
     41  O          5.6260  -18.0120   -2.5700 O.2    63  TYR63      -0.2718
     42  CB         5.8150  -19.6710   -0.1190 C.3    63  TYR63       0.0548
     43  CG         5.1590  -20.7470    0.7030 C.ar   63  TYR63      -0.0200
     44  CD1        3.8060  -20.9730    0.5900 C.ar   63  TYR63      -0.0009
     45  CD2        5.8930  -21.5490    1.5930 C.ar   63  TYR63      -0.0009
     46  CE1        3.1770  -21.9570    1.3420 C.ar   63  TYR63       0.0417
     47  CE2        5.2790  -22.5460    2.3350 C.ar   63  TYR63       0.0417
     48  CZ         3.9260  -22.7430    2.2050 C.ar   63  TYR63       0.1957
     49  OH         3.2730  -23.6990    2.9360 O.3    63  TYR63      -0.2866
     50  N          7.7320  -18.7580   -2.7690 N.am   64  LEU64      -0.1966
     51  CA         8.1790  -17.5980   -3.5240 C.3    64  LEU64       0.1728
     52  C          8.1450  -17.7770   -5.0390 C.2    64  LEU64       0.2616
     53  O          8.6120  -16.8940   -5.7600 O.2    64  LEU64      -0.2715
     54  CB         9.5850  -17.1790   -3.0850 C.3    64  LEU64       0.0311
     55  CG         9.7580  -16.7950   -1.6210 C.3    64  LEU64       0.0022
     56  CD1       11.2230  -16.5870   -1.2610 C.3    64  LEU64       0.0001
     57  CD2        8.9480  -15.5460   -1.3300 C.3    64  LEU64       0.0001
     58  N          7.6070  -18.8740   -5.5500 N.am   65  GLN65      -0.1963
     59  CA         7.6180  -19.0350   -7.0040 C.3    65  GLN65       0.1733
     60  C          6.4420  -18.3280   -7.6580 C.2    65  GLN65       0.2616
     61  O          5.4320  -18.0900   -7.0200 O.2    65  GLN65      -0.2715
     62  CB         7.7360  -20.5090   -7.3980 C.3    65  GLN65       0.0408
     63  CG         6.4950  -21.3480   -7.1760 C.3    65  GLN65       0.0908
     64  CD         6.8120  -22.8260   -7.2590 C.2    65  GLN65       0.2608
     65  OE1        7.0820  -23.3400   -8.3490 O.2    65  GLN65      -0.2717
     66  NE2        6.8120  -23.5170   -6.0960 N.am   65  GLN65      -0.0878
     67  N          6.6270  -17.9640   -8.9180 N.am   66  TRP66      -0.1974
     68  CA         5.5960  -17.3390   -9.7410 C.3    66  TRP66       0.1640
     69  C          5.6670  -17.8100  -11.2000 C.2    66  TRP66       0.2290
     70  O          6.6730  -18.3740  -11.6240 O.2    66  TRP66      -0.2864
     71  CB         5.7410  -15.8150   -9.6740 C.3    66  TRP66       0.0576
     72  CG         6.9950  -15.2110  -10.3300 C.ar   66  TRP66       0.0006
     73  CD1        7.1440  -14.8530  -11.6370 C.ar   66  TRP66       0.0946
     74  CD2        8.2100  -14.8370   -9.6850 C.ar   66  TRP66       0.0152
     75  NE1        8.3980  -14.3150  -11.8550 N.ar   66  TRP66      -0.2442
     76  CE2        9.0610  -14.2800  -10.6650 C.ar   66  TRP66       0.0810
     77  CE3        8.6680  -14.9220   -8.3750 C.ar   66  TRP66       0.0012
     78  CZ2       10.3430  -13.8180  -10.3750 C.ar   66  TRP66       0.0191
     79  CZ3        9.9550  -14.4630   -8.0800 C.ar   66  TRP66       0.0001
     80  CH2       10.7760  -13.9190   -9.0760 C.ar   66  TRP66       0.0015
     81  N          2.9340  -14.8340  -16.4720 N.3    70  GLU70      -0.1231
     82  CA         2.0360  -13.9050  -15.7710 C.3    70  GLU70       0.1699
     83  C          2.7430  -12.6290  -15.2250 C.2    70  GLU70       0.2592
     84  O          2.0910  -11.6620  -14.8210 O.2    70  GLU70      -0.2718
     85  CB         1.3600  -14.6510  -14.6270 C.3    70  GLU70       0.0402
     86  CG        -0.0190  -14.1160  -14.2630 C.3    70  GLU70       0.1161
     87  CD        -0.5870  -14.8320  -13.0710 C.2    70  GLU70       0.3649
     88  OE1       -0.9820  -15.9910  -13.2740 O.co2  70  GLU70      -0.2457
     89  OE2       -0.6030  -14.2560  -11.9430 O.co2  70  GLU70      -0.2457
     90  N          4.0710  -12.6470  -15.1860 N.am   71  TYR71      -0.1976
     91  CA         4.8680  -11.4850  -14.8220 C.3    71  TYR71       0.1639
     92  C          6.0150  -11.3770  -15.8280 C.2    71  TYR71       0.2290
     93  O          7.1880  -11.5480  -15.4780 O.2    71  TYR71      -0.2864
     94  CB         5.4050  -11.6320  -13.4030 C.3    71  TYR71       0.0560
     95  CG         4.3530  -11.7180  -12.3140 C.ar   71  TYR71      -0.0198
     96  CD1        3.8190  -10.5740  -11.7180 C.ar   71  TYR71      -0.0009
     97  CD2        3.9260  -12.9600  -11.8430 C.ar   71  TYR71      -0.0009
     98  CE1        2.9010  -10.6650  -10.6890 C.ar   71  TYR71       0.0417
     99  CE2        2.9840  -13.0630  -10.8260 C.ar   71  TYR71       0.0417
    100  CZ         2.4700  -11.9180  -10.2550 C.ar   71  TYR71       0.1957
    101  OH         1.5550  -12.0440   -9.2390 O.3    71  TYR71      -0.2866
    102  N         14.1710  -10.9270   -8.5960 N.3    77  VAL77      -0.1245
    103  CA        13.9100   -9.7220   -7.8270 C.3    77  VAL77       0.1561
    104  C         14.8220   -9.6300   -6.6200 C.2    77  VAL77       0.2260
    105  O         15.1860  -10.6320   -6.0260 O.2    77  VAL77      -0.2867
    106  CB        12.4390   -9.6270   -7.3770 C.3    77  VAL77       0.0252
    107  CG1       11.5270   -9.5190   -8.5800 C.3    77  VAL77       0.0019
    108  CG2       12.0180  -10.8030   -6.5320 C.3    77  VAL77       0.0019
    109  N         15.2530   -8.4250   -2.8610 N.3    79  VAL79      -0.1245
    110  CA        14.2320   -8.4060   -1.8060 C.3    79  VAL79       0.1561
    111  C         14.9250   -8.2760   -0.4650 C.2    79  VAL79       0.2260
    112  O         15.9520   -8.9050   -0.2610 O.2    79  VAL79      -0.2867
    113  CB        13.3930   -9.6980   -1.8290 C.3    79  VAL79       0.0252
    114  CG1       12.3460   -9.7290   -0.7390 C.3    79  VAL79       0.0019
    115  CG2       12.6560   -9.8080   -3.1520 C.3    79  VAL79       0.0019
    116  N         11.7530  -12.3630    4.0100 N.3    84  LEU84      -0.1245
    117  CA        11.7590  -13.7720    3.6450 C.3    84  LEU84       0.1561
    118  C         12.1220  -14.5820    4.8610 C.2    84  LEU84       0.2260
    119  O         12.7630  -14.0800    5.7730 O.2    84  LEU84      -0.2867
    120  CB        12.8040  -14.0500    2.5700 C.3    84  LEU84       0.0270
    121  CG        12.7730  -13.2300    1.2880 C.3    84  LEU84       0.0019
    122  CD1       13.8700  -13.7180    0.3750 C.3    84  LEU84       0.0001
    123  CD2       11.4050  -13.2600    0.6130 C.3    84  LEU84       0.0001
    124  N         15.9550  -13.4780   -5.6690 N.3   108  VAL108     -0.1245
    125  CA        15.0050  -14.5770   -5.7500 C.3   108  VAL108      0.1561
    126  C         14.5860  -14.7020   -7.1930 C.2   108  VAL108      0.2260
    127  O         14.2720  -13.6900   -7.8360 O.2   108  VAL108     -0.2867
    128  CB        13.7440  -14.3320   -4.8900 C.3   108  VAL108      0.0252
    129  CG1       12.7950  -15.5160   -4.9750 C.3   108  VAL108      0.0019
    130  CG2       14.1390  -14.0790   -3.4390 C.3   108  VAL108      0.0019
@<TRIPOS>BOND
     1    81    82    1
     2    92    93    2
     3    92    91    1
     4    82    83    1
     5    82    85    1
     6    83    90   am
     7    83    84    2
     8    90    91    1
     9    91    94    1
    10    85    86    1
    11    86    87    1
    12    94    95    1
    13    88    87   ar
    14    87    89   ar
    15    95    97   ar
    16    95    96   ar
    17    75    73   ar
    18    75    76   ar
    19    97    99   ar
    20    96    98   ar
    21    73    72   ar
    22    70    69    2
    23    69    68    1
    24    99   100   ar
    25    98   100   ar
    26    76    78   ar
    27    76    74   ar
    28    78    80   ar
    29    72    74   ar
    30    72    71    1
    31   100   101    1
    32    68    71    1
    33    68    67    1
    34    74    77   ar
    35     8     6    1
    36    80    79   ar
    37    67    60   am
    38     5     6    1
    39     5     2    1
    40   102   103    1
    41   107   106    1
    42     1     2    1
    43    77    79   ar
    44    65    64    2
    45     7     6    1
    46     2     3    1
    47   127   126    2
    48   103   106    1
    49   103   104    1
    50    60    61    2
    51    60    59    1
    52    62    63    1
    53    62    59    1
    54   106   108    1
    55    64    63    1
    56    64    66   am
    57   126   125    1
    58    59    58    1
    59   104   105    2
    60     3     9   am
    61     3     4    2
    62    17    15   ar
    63    17    19   ar
    64     9    10    1
    65    26    27    1
    66    26    25    1
    67    15    14   ar
    68    53    52    2
    69   125   124    1
    70   125   128    1
    71    27    28   ar
    72    27    29   ar
    73    58    52   am
    74    20    19    1
    75    19    18   ar
    76    52    51    1
    77   129   128    1
    78   128   130    1
    79    25    22    1
    80    14    13    1
    81    14    16   ar
    82    10    13    1
    83    10    11    1
    84    21    22    1
    85    18    16   ar
    86    11    12    2
    87    22    23    1
    88    51    54    1
    89    51    50    1
    90   115   113    1
    91    54    55    1
    92   109   110    1
    93    50    40   am
    94    41    40    2
    95    23    30   am
    96    23    24    2
    97    40    39    1
    98    30    31    1
    99   113   110    1
   100   113   114    1
   101   110   111    1
   102    38    39    1
   103    55    57    1
   104    55    56    1
   105    39    42    1
   106    34    31    1
   107    34    35    1
   108    31    32    1
   109   111   112    2
   110    42    43    1
   111    36    35    1
   112    35    37    1
   113    32    33    2
   114   122   121    1
   115    44    43   ar
   116    44    46   ar
   117   123   121    1
   118    43    45   ar
   119   121   120    1
   120    46    48   ar
   121    45    47   ar
   122    48    47   ar
   123    48    49    1
   124   120   117    1
   125   117   116    1
   126   117   118    1
   127   118   119    2
