@<TRIPOS>MOLECULE
tmp/5ouiC01.pdb
 119 111 0 0 0
SMALL
GASTEIGER

@<TRIPOS>ATOM
      1  N         27.7830   13.3850   -1.0090 N.3    55  LEU55      -0.1245
      2  CA        27.6680   14.8220   -1.2720 C.3    55  LEU55       0.1561
      3  C         26.7280   15.4600   -0.2740 C.2    55  LEU55       0.2260
      4  O         25.7620   14.8280    0.1480 O.2    55  LEU55      -0.2867
      5  CB        27.1400   15.0920   -2.6890 C.3    55  LEU55       0.0270
      6  CG        27.7800   14.3670   -3.8700 C.3    55  LEU55       0.0019
      7  CD1       27.1910   14.9210   -5.1610 C.3    55  LEU55       0.0001
      8  CD2       29.2890   14.5200   -3.8550 C.3    55  LEU55       0.0001
      9  N         24.6890   19.0810    0.2880 N.3    57  MET57      -0.1245
     10  CA        24.2170   20.3370   -0.2740 C.3    57  MET57       0.1570
     11  C         23.1550   20.9920    0.5970 C.2    57  MET57       0.2261
     12  O         22.2150   20.3540    1.0480 O.2    57  MET57      -0.2867
     13  CB        23.6500   20.1080   -1.6660 C.3    57  MET57       0.0387
     14  CG        24.7260   20.1410   -2.7400 C.3    57  MET57       0.0595
     15  SD        24.3790   19.2200   -4.2530 S.3    57  MET57      -0.1393
     16  CE        22.6040   19.4330   -4.3350 C.3    57  MET57       0.0692
     17  N         16.2520   22.2850   -7.2850 N.3    86  LYS86      -0.1245
     18  CA        17.4770   21.6110   -6.8760 C.3    86  LYS86       0.1561
     19  C         18.6050   22.3030   -7.6730 C.2    86  LYS86       0.2260
     20  O         18.4240   22.6440   -8.8430 O.2    86  LYS86      -0.2867
     21  CB        17.3550   20.0960   -7.1950 C.3    86  LYS86       0.0271
     22  CG        18.5850   19.2030   -6.9310 C.3    86  LYS86       0.0035
     23  CD        19.2050   18.6190   -8.2340 C.3    86  LYS86       0.0206
     24  CE        20.3550   17.6090   -8.0560 C.3    86  LYS86       0.1093
     25  NZ        21.6810   18.0700   -7.5560 N.3    86  LYS86      -0.1314
     26  N         24.1830   21.0070  -10.1280 N.3    89  ILE89      -0.1231
     27  CA        25.6140   20.8010   -9.9430 C.3    89  ILE89       0.1692
     28  C         26.0640   19.5410  -10.6790 C.2    89  ILE89       0.2592
     29  O         25.3120   18.5800  -10.7560 O.2    89  ILE89      -0.2718
     30  CB        25.9630   20.6740   -8.4510 C.3    89  ILE89       0.0266
     31  CG1       25.4080   21.9050   -7.7120 C.3    89  ILE89       0.0019
     32  CG2       27.4660   20.4990   -8.2540 C.3    89  ILE89       0.0020
     33  CD1       25.9220   22.1450   -6.2930 C.3    89  ILE89       0.0001
     34  N         27.2840   19.5320  -11.2080 N.am   90  LEU90      -0.1966
     35  CA        27.8500   18.2830  -11.7310 C.3    90  LEU90       0.1728
     36  C         29.3380   18.1080  -11.5230 C.2    90  LEU90       0.2616
     37  O         30.0450   19.0800  -11.2730 O.2    90  LEU90      -0.2715
     38  CB        27.5430   18.1710  -13.2090 C.3    90  LEU90       0.0311
     39  CG        28.2790   19.1440  -14.1410 C.3    90  LEU90       0.0022
     40  CD1       29.6920   18.6770  -14.5200 C.3    90  LEU90       0.0001
     41  CD2       27.4240   19.3170  -15.3850 C.3    90  LEU90       0.0001
     42  N         29.7920   16.8640  -11.6790 N.am   91  LEU91      -0.1977
     43  CA        31.2160   16.4940  -11.6090 C.3    91  LEU91       0.1596
     44  C         31.8290   16.5360  -12.9930 C.2    91  LEU91       0.2287
     45  O         31.5410   15.6740  -13.8140 O.2    91  LEU91      -0.2864
     46  CB        31.3780   15.0780  -11.0310 C.3    91  LEU91       0.0297
     47  CG        32.7950   14.4800  -10.9240 C.3    91  LEU91       0.0022
     48  CD1       33.7500   15.2860  -10.0460 C.3    91  LEU91       0.0001
     49  CD2       32.7030   13.0760  -10.3390 C.3    91  LEU91       0.0001
     50  N         25.9030    9.2640  -12.5350 N.3    98  PRO98      -0.2116
     51  CA        25.9900    8.8270  -11.1390 C.3    98  PRO98       0.1372
     52  C         24.9380    7.7660  -10.7920 C.2    98  PRO98       0.2244
     53  O         23.7850    7.8740  -11.2590 O.2    98  PRO98      -0.2868
     54  CB        25.7330   10.1190  -10.3490 C.3    98  PRO98       0.0268
     55  CG        24.9360   10.9780  -11.2540 C.3    98  PRO98       0.0207
     56  CD        25.3710   10.6380  -12.6520 C.3    98  PRO98       0.0892
     57  N         22.7740    6.7220   -7.7820 N.3   100  VAL100     -0.1245
     58  CA        22.3730    7.3090   -6.4850 C.3   100  VAL100      0.1561
     59  C         21.9490    6.2010   -5.5040 C.2   100  VAL100      0.2260
     60  O         20.9750    5.4920   -5.7550 O.2   100  VAL100     -0.2867
     61  CB        21.2310    8.3430   -6.6400 C.3   100  VAL100      0.0252
     62  CG1       20.8510    8.9420   -5.2990 C.3   100  VAL100      0.0019
     63  CG2       21.6490    9.4560   -7.5770 C.3   100  VAL100      0.0019
     64  N         15.8080    9.6310   -2.5560 N.3   104  GLN104     -0.1245
     65  CA        15.8440   10.9510   -3.1800 C.3   104  GLN104      0.1566
     66  C         14.9400   11.9080   -2.4210 C.2   104  GLN104      0.2260
     67  O         13.9210   12.3670   -2.9380 O.2   104  GLN104     -0.2867
     68  CB        15.4090   10.8490   -4.6370 C.3   104  GLN104      0.0367
     69  CG        16.2990    9.9590   -5.4860 C.3   104  GLN104      0.0905
     70  CD        17.5750   10.6540   -5.9170 C.2   104  GLN104      0.2608
     71  OE1       18.2400   11.3140   -5.1230 O.2   104  GLN104     -0.2717
     72  NE2       17.9210   10.5110   -7.1870 N.am  104  GLN104     -0.0878
     73  N         20.0160   18.4150    1.3420 N.3   116  TYR116     -0.1241
     74  CA        19.9590   17.2750    0.4290 C.3   116  TYR116      0.1605
     75  C         21.3420   16.6190    0.3720 C.2   116  TYR116      0.2264
     76  O         22.3030   17.2620    0.0210 O.2   116  TYR116     -0.2867
     77  CB        19.4980   17.7580   -0.9510 C.3   116  TYR116      0.0534
     78  CG        19.4300   16.6710   -1.9920 C.ar  116  TYR116     -0.0201
     79  CD1       18.5350   15.6150   -1.8700 C.ar  116  TYR116     -0.0009
     80  CD2       20.2620   16.7000   -3.1050 C.ar  116  TYR116     -0.0009
     81  CE1       18.4750   14.6110   -2.8270 C.ar  116  TYR116      0.0417
     82  CE2       20.2070   15.7090   -4.0740 C.ar  116  TYR116      0.0417
     83  CZ        19.3130   14.6700   -3.9350 C.ar  116  TYR116      0.1957
     84  OH        19.2600   13.6900   -4.8990 O.3   116  TYR116     -0.2866
     85  N         22.8230   13.3900   -1.0700 N.3   118  PRO118     -0.2116
     86  CA        22.8720   12.1330   -1.8090 C.3   118  PRO118      0.1372
     87  C         24.2120   11.4120   -1.6550 C.2   118  PRO118      0.2244
     88  O         25.2570   12.0620   -1.6360 O.2   118  PRO118     -0.2868
     89  CB        22.6690   12.5740   -3.2560 C.3   118  PRO118      0.0268
     90  CG        23.1190   13.9860   -3.2870 C.3   118  PRO118      0.0207
     91  CD        22.6990   14.5490   -1.9670 C.3   118  PRO118      0.0892
     92  N         26.5870    8.5950   -3.5670 N.3   120  ILE120     -0.1245
     93  CA        26.7110    8.2390   -4.9820 C.3   120  ILE120      0.1561
     94  C         27.9040    7.3310   -5.2840 C.2   120  ILE120      0.2260
     95  O         29.0140    7.5190   -4.7370 O.2   120  ILE120     -0.2867
     96  CB        26.7800    9.5170   -5.8570 C.3   120  ILE120      0.0252
     97  CG1       25.3960   10.1760   -5.9240 C.3   120  ILE120      0.0019
     98  CG2       27.2770    9.2440   -7.2650 C.3   120  ILE120      0.0019
     99  CD1       25.3970   11.6280   -6.3690 C.3   120  ILE120      0.0001
    100  N         30.2210    6.4970   -8.4080 N.3   122  GLN122     -0.1245
    101  CA        30.6670    7.3030   -9.5550 C.3   122  GLN122      0.1566
    102  C         32.0290    6.8700  -10.0990 C.2   122  GLN122      0.2260
    103  O         32.9730    6.7260   -9.3410 O.2   122  GLN122     -0.2867
    104  CB        30.7660    8.7700   -9.1310 C.3   122  GLN122      0.0367
    105  CG        31.1330    9.7440  -10.2350 C.3   122  GLN122      0.0905
    106  CD        30.0270    9.8680  -11.2720 C.2   122  GLN122      0.2608
    107  OE1       28.9610   10.4150  -10.9880 O.2   122  GLN122     -0.2717
    108  NE2       30.2770    9.3590  -12.4820 N.am  122  GLN122     -0.0878
    109  N         33.4610   20.1530   -9.0940 N.3   143  PHE143     -0.1241
    110  CA        32.0120   20.3270   -9.1100 C.3   143  PHE143      0.1605
    111  C         31.5950   21.7760   -9.3790 C.2   143  PHE143      0.2264
    112  O         32.2560   22.7270   -8.9310 O.2   143  PHE143     -0.2867
    113  CB        31.3810   19.8930   -7.7950 C.3   143  PHE143      0.0534
    114  CG        31.5460   18.4350   -7.4780 C.ar  143  PHE143     -0.0203
    115  CD1       30.6780   17.4550   -7.9940 C.ar  143  PHE143     -0.0042
    116  CD2       32.5520   18.0400   -6.6030 C.ar  143  PHE143     -0.0042
    117  CE1       30.8160   16.1270   -7.6090 C.ar  143  PHE143     -0.0003
    118  CE2       32.7230   16.6990   -6.2650 C.ar  143  PHE143     -0.0003
    119  CZ        31.8610   15.7490   -6.7590 C.ar  143  PHE143     -0.0000
@<TRIPOS>BOND
     1    41    39    1
     2    40    39    1
     3    39    38    1
     4    45    44    2
     5    38    35    1
     6    44    43    1
     7    56    50    1
     8    56    55    1
     9    50    51    1
    10   108   106   am
    11    35    36    1
    12    35    34    1
    13    42    43    1
    14    42    36   am
    15    43    46    1
    16    36    37    2
    17   106   107    2
    18   106   105    1
    19    53    52    2
    20    55    54    1
    21    34    28   am
    22    51    52    1
    23    51    54    1
    24    46    47    1
    25    47    49    1
    26    47    48    1
    27    29    28    2
    28    28    27    1
    29   105   104    1
    30    26    27    1
    31   102   101    1
    32   102   103    2
    33    27    30    1
    34   101   104    1
    35   101   100    1
    36   111   110    1
    37   111   112    2
    38   110   109    1
    39   110   113    1
    40    20    19    2
    41    30    32    1
    42    30    31    1
    43    23    24    1
    44    23    22    1
    45    24    25    1
    46   115   117   ar
    47   115   114   ar
    48   113   114    1
    49    57    58    1
    50    31    33    1
    51    19    18    1
    52   117   119   ar
    53    63    61    1
    54   114   116   ar
    55    17    18    1
    56    98    96    1
    57    21    22    1
    58    21    18    1
    59    72    70   am
    60   119   118   ar
    61    61    58    1
    62    61    62    1
    63   116   118   ar
    64    58    59    1
    65    99    97    1
    66    97    96    1
    67    70    69    1
    68    70    71    2
    69    96    93    1
    70    60    59    2
    71    69    68    1
    72    94    93    1
    73    94    95    2
    74     7     6    1
    75    93    92    1
    76    84    83    1
    77    68    65    1
    78    16    15    1
    79    15    14    1
    80    82    83   ar
    81    82    80   ar
    82    83    81   ar
    83     6     8    1
    84     6     5    1
    85    90    89    1
    86    90    91    1
    87    89    86    1
    88    65    64    1
    89    65    66    1
    90    80    78   ar
    91    67    66    2
    92    81    79   ar
    93    14    13    1
    94     5     2    1
    95    78    79   ar
    96    78    77    1
    97    91    85    1
    98    86    87    1
    99    86    85    1
   100    13    10    1
   101    87    88    2
   102     2     1    1
   103     2     3    1
   104    77    74    1
   105    10     9    1
   106    10    11    1
   107     3     4    2
   108    76    75    2
   109    75    74    1
   110    74    73    1
   111    11    12    2
