@<TRIPOS>MOLECULE
tmp/5ouiA01.pdb
 94 90 0 0 0
SMALL
GASTEIGER

@<TRIPOS>ATOM
      1  N          3.0060  -23.0710  -18.9470 N.3    34  LEU34      -0.1245
      2  CA         4.3510  -22.6900  -19.3220 C.3    34  LEU34       0.1561
      3  C          4.8710  -23.4850  -20.5160 C.2    34  LEU34       0.2260
      4  O          4.5310  -24.6610  -20.6570 O.2    34  LEU34      -0.2867
      5  CB         5.2380  -22.9560  -18.1150 C.3    34  LEU34       0.0270
      6  CG         6.7270  -22.6590  -18.2150 C.3    34  LEU34       0.0019
      7  CD1        7.1530  -22.0980  -16.8490 C.3    34  LEU34       0.0001
      8  CD2        7.5450  -23.9030  -18.5720 C.3    34  LEU34       0.0001
      9  N          8.8710  -24.2100  -21.8840 N.3    36  LEU36      -0.1245
     10  CA        10.3180  -24.0080  -21.8580 C.3    36  LEU36       0.1561
     11  C         10.8440  -23.8960  -23.2730 C.2    36  LEU36       0.2260
     12  O         10.6950  -24.8440  -24.0540 O.2    36  LEU36      -0.2867
     13  CB        11.0280  -25.1700  -21.1510 C.3    36  LEU36       0.0270
     14  CG        12.5690  -25.1590  -21.1610 C.3    36  LEU36       0.0019
     15  CD1       13.1460  -23.9600  -20.4000 C.3    36  LEU36       0.0001
     16  CD2       13.1140  -26.4810  -20.5920 C.3    36  LEU36       0.0001
     17  N         -1.7040  -28.0780  -18.7870 N.3   159  GLU159     -0.1231
     18  CA        -0.6180  -28.9790  -19.1680 C.3   159  GLU159      0.1699
     19  C          0.4360  -28.2710  -20.0010 C.2   159  GLU159      0.2592
     20  O          0.1300  -27.6230  -20.9780 O.2   159  GLU159     -0.2718
     21  CB        -1.1560  -30.2670  -19.8250 C.3   159  GLU159      0.0402
     22  CG        -1.9160  -31.1550  -18.8440 C.3   159  GLU159      0.1161
     23  CD        -1.0720  -32.2660  -18.2140 C.2   159  GLU159      0.3649
     24  OE1       -0.9540  -33.3010  -18.9040 O.co2 159  GLU159     -0.2457
     25  OE2       -0.5570  -32.1020  -17.0550 O.co2 159  GLU159     -0.2457
     26  N          1.6810  -28.3790  -19.5490 N.am  160  ALA160     -0.1966
     27  CA         2.8160  -27.5830  -20.0380 C.3   160  ALA160      0.1728
     28  C          3.5310  -28.3390  -21.1380 C.2   160  ALA160      0.2616
     29  O          3.2810  -29.5520  -21.3520 O.2   160  ALA160     -0.2715
     30  CB         3.7830  -27.2390  -18.9180 C.3   160  ALA160      0.0334
     31  N          4.3570  -27.6140  -21.9060 N.am  161  ASP161     -0.1957
     32  CA         4.9720  -28.1840  -23.1320 C.3   161  ASP161      0.1840
     33  C          6.4760  -28.0090  -23.1550 C.2   161  ASP161      0.2621
     34  O          7.0630  -27.2450  -22.4000 O.2   161  ASP161     -0.2715
     35  CB         4.2480  -27.7660  -24.4670 C.3   161  ASP161      0.1450
     36  CG         4.4710  -26.3680  -24.8330 C.2   161  ASP161      0.3671
     37  OD1        5.6430  -25.9410  -24.7810 O.co2 161  ASP161     -0.2456
     38  OD2        3.4860  -25.6780  -25.2570 O.co2 161  ASP161     -0.2456
     39  N          7.0940  -28.8090  -24.0120 N.am  162  ILE162     -0.1977
     40  CA         8.4830  -28.6450  -24.4720 C.3   162  ILE162      0.1596
     41  C          8.5460  -28.7010  -26.0210 C.2   162  ILE162      0.2287
     42  O          9.6040  -29.0170  -26.5900 O.2   162  ILE162     -0.2864
     43  CB         9.4250  -29.6980  -23.8350 C.3   162  ILE162      0.0276
     44  CG1        8.9990  -31.1430  -24.1660 C.3   162  ILE162      0.0022
     45  CG2        9.4650  -29.5110  -22.3330 C.3   162  ILE162      0.0022
     46  CD1       10.1260  -32.1490  -24.1220 C.3   162  ILE162      0.0001
     47  N         10.3680  -33.8540  -17.7030 N.3   176  VAL176     -0.1231
     48  CA         9.5960  -32.7910  -17.0470 C.3   176  VAL176      0.1692
     49  C          8.4610  -33.3580  -16.2150 C.2   176  VAL176      0.2593
     50  O          8.0440  -34.5150  -16.4220 O.2   176  VAL176     -0.2718
     51  CB         9.0030  -31.7330  -18.0370 C.3   176  VAL176      0.0266
     52  CG1       10.1150  -30.8520  -18.6160 C.3   176  VAL176      0.0020
     53  CG2        8.1640  -32.3870  -19.1480 C.3   176  VAL176      0.0020
     54  N          7.9820  -32.5550  -15.2600 N.am  177  THR177     -0.1939
     55  CA         6.7810  -32.8780  -14.4900 C.3   177  THR177      0.2028
     56  C          6.1740  -31.5960  -13.9070 C.2   177  THR177      0.2642
     57  O          6.8580  -30.5770  -13.8380 O.2   177  THR177     -0.2714
     58  CB         7.0680  -33.9010  -13.3690 C.3   177  THR177      0.1808
     59  OG1        5.8610  -34.1650  -12.6510 O.3   177  THR177     -0.2208
     60  CG2        8.1530  -33.4140  -12.4140 C.3   177  THR177      0.0379
     61  N          4.9030  -31.6300  -13.5090 N.am  178  GLN178     -0.1976
     62  CA         4.2440  -30.4560  -12.9230 C.3   178  GLN178      0.1601
     63  C          3.2610  -30.8560  -11.8410 C.2   178  GLN178      0.2287
     64  O          2.6670  -31.9280  -11.9120 O.2   178  GLN178     -0.2864
     65  CB         3.5120  -29.6450  -13.9960 C.3   178  GLN178      0.0394
     66  CG         2.4400  -30.4190  -14.7330 C.3   178  GLN178      0.0908
     67  CD         1.8350  -29.6450  -15.8800 C.2   178  GLN178      0.2608
     68  OE1        2.1690  -29.9000  -17.0450 O.2   178  GLN178     -0.2717
     69  NE2        0.9920  -28.6740  -15.5740 N.am  178  GLN178     -0.0878
     70  N          6.7730  -26.4550  -11.5830 N.3   197  PHE197     -0.1227
     71  CA         7.1900  -27.1930  -12.7930 C.3   197  PHE197      0.1736
     72  C          8.6180  -27.6380  -12.6070 C.2   197  PHE197      0.2596
     73  O          9.4830  -26.8280  -12.2130 O.2   197  PHE197     -0.2718
     74  CB         7.1170  -26.2760  -14.0250 C.3   197  PHE197      0.0547
     75  CG         5.7420  -25.7400  -14.2850 C.ar  197  PHE197     -0.0202
     76  CD1        4.8160  -26.4840  -15.0030 C.ar  197  PHE197     -0.0042
     77  CD2        5.3360  -24.5300  -13.7340 C.ar  197  PHE197     -0.0042
     78  CE1        3.5270  -26.0180  -15.1980 C.ar  197  PHE197     -0.0003
     79  CE2        4.0440  -24.0590  -13.9150 C.ar  197  PHE197     -0.0003
     80  CZ         3.1350  -24.8120  -14.6440 C.ar  197  PHE197     -0.0000
     81  N          8.8820  -28.9090  -12.8660 N.am  198  THR198     -0.1939
     82  CA        10.1890  -29.4740  -12.6000 C.3   198  THR198      0.2028
     83  C         10.7930  -29.9360  -13.9160 C.2   198  THR198      0.2642
     84  O         10.1320  -30.6500  -14.6880 O.2   198  THR198     -0.2714
     85  CB        10.0770  -30.6730  -11.6350 C.3   198  THR198      0.1808
     86  OG1        9.1530  -30.3660  -10.5840 O.3   198  THR198     -0.2208
     87  CG2       11.4040  -31.0490  -11.0480 C.3   198  THR198      0.0379
     88  N         12.0530  -29.5620  -14.1520 N.am  199  VAL199     -0.1977
     89  CA        12.7950  -29.9400  -15.3550 C.3   199  VAL199      0.1596
     90  C         14.1060  -30.6130  -14.9860 C.2   199  VAL199      0.2287
     91  O         14.9160  -30.0450  -14.2530 O.2   199  VAL199     -0.2864
     92  CB        13.1580  -28.6990  -16.2070 C.3   199  VAL199      0.0276
     93  CG1       13.8560  -29.1070  -17.4940 C.3   199  VAL199      0.0022
     94  CG2       11.9200  -27.9030  -16.5600 C.3   199  VAL199      0.0022
@<TRIPOS>BOND
     1    42    41    2
     2    41    40    1
     3    38    36   ar
     4    36    37   ar
     5    36    35    1
     6    40    39    1
     7    40    43    1
     8    35    32    1
     9    44    46    1
    10    44    43    1
    11    12    11    2
    12    39    33   am
    13    43    45    1
    14    11    10    1
    15    33    32    1
    16    33    34    2
    17    32    31    1
    18    31    28   am
    19     9    10    1
    20    10    13    1
    21    29    28    2
    22    14    13    1
    23    14    16    1
    24    14    15    1
    25    28    27    1
    26    20    19    2
    27     4     3    2
    28     3     2    1
    29    27    26    1
    30    27    30    1
    31    19    26   am
    32    19    18    1
    33    21    18    1
    34    21    22    1
    35     2     1    1
    36     2     5    1
    37    18    17    1
    38    53    51    1
    39    24    23   ar
    40    22    23    1
    41    52    51    1
    42     8     6    1
    43     6     5    1
    44     6     7    1
    45    23    25   ar
    46    51    48    1
    47    47    48    1
    48    93    92    1
    49    48    49    1
    50    68    67    2
    51    94    92    1
    52    50    49    2
    53    49    54   am
    54    92    89    1
    55    67    69   am
    56    67    66    1
    57    89    90    1
    58    89    88    1
    59    54    55    1
    60    78    76   ar
    61    78    80   ar
    62    76    75   ar
    63    90    91    2
    64    66    65    1
    65    84    83    2
    66    80    79   ar
    67    55    56    1
    68    55    58    1
    69    75    74    1
    70    75    77   ar
    71    88    83   am
    72    74    71    1
    73    65    62    1
    74    83    82    1
    75    79    77   ar
    76    56    57    2
    77    56    61   am
    78    61    62    1
    79    58    59    1
    80    58    60    1
    81    62    63    1
    82    81    72   am
    83    81    82    1
    84    71    72    1
    85    71    70    1
    86    72    73    2
    87    82    85    1
    88    64    63    2
    89    85    87    1
    90    85    86    1
