@<TRIPOS>MOLECULE
tmp/5oujA01.pdb
 163 168 0 0 0
SMALL
GASTEIGER

@<TRIPOS>ATOM
      1  N          4.3430    1.0290   11.5370 N.3    21  TRP21      -0.1241
      2  CA         4.8510   -0.3530   11.4880 C.3    21  TRP21       0.1605
      3  C          6.2980   -0.3060   10.9840 C.2    21  TRP21       0.2264
      4  O          6.5680    0.2860    9.9420 O.2    21  TRP21      -0.2867
      5  CB         4.0080   -1.2150   10.5570 C.3    21  TRP21       0.0550
      6  CG         4.4870   -2.6010   10.3850 C.ar   21  TRP21       0.0003
      7  CD1        5.0880   -3.4410   11.3230 C.ar   21  TRP21       0.0946
      8  CD2        4.4380   -3.3700    9.1670 C.ar   21  TRP21       0.0152
      9  NE1        5.4430   -4.6200   10.7480 N.ar   21  TRP21      -0.2442
     10  CE2        5.0620   -4.6020    9.4220 C.ar   21  TRP21       0.0810
     11  CE3        3.9170   -3.1020    7.8990 C.ar   21  TRP21       0.0012
     12  CZ2        5.1710   -5.5890    8.4190 C.ar   21  TRP21       0.0191
     13  CZ3        4.0370   -4.0780    6.8960 C.ar   21  TRP21       0.0001
     14  CH2        4.6640   -5.2900    7.1570 C.ar   21  TRP21       0.0015
     15  N          0.9880   -4.5650   18.1740 N.3    48  VAL48      -0.1231
     16  CA         1.9160   -5.5010   17.5820 C.3    48  VAL48       0.1692
     17  C          3.1640   -4.8030   17.0170 C.2    48  VAL48       0.2592
     18  O          4.1740   -5.4600   16.7240 O.2    48  VAL48      -0.2718
     19  CB         1.2200   -6.3760   16.5320 C.3    48  VAL48       0.0266
     20  CG1        1.0020   -5.6240   15.2580 C.3    48  VAL48       0.0020
     21  CG2        1.9560   -7.6760   16.2880 C.3    48  VAL48       0.0020
     22  N          3.1100   -3.4660   16.8110 N.am   49  TYR49      -0.1962
     23  CA         4.2720   -2.7500   16.2910 C.3    49  TYR49       0.1771
     24  C          5.3580   -2.5390   17.3350 C.2    49  TYR49       0.2619
     25  O          6.4880   -2.1620   16.9790 O.2    49  TYR49      -0.2715
     26  CB         3.8450   -1.4040   15.6700 C.3    49  TYR49       0.0574
     27  CG         2.8730   -1.5170   14.5290 C.ar   49  TYR49      -0.0198
     28  CD1        2.5980   -2.7190   13.8860 C.ar   49  TYR49      -0.0009
     29  CD2        2.1770   -0.3790   14.0900 C.ar   49  TYR49      -0.0009
     30  CE1        1.6280   -2.7820   12.8820 C.ar   49  TYR49       0.0417
     31  CE2        1.2460   -0.4300   13.0730 C.ar   49  TYR49       0.0417
     32  CZ         0.9460   -1.6730   12.4920 C.ar   49  TYR49       0.1957
     33  OH        -0.0190   -1.7210   11.5240 O.3    49  TYR49      -0.2866
     34  N          5.0570   -2.7890   18.5950 N.am   50  GLN50      -0.1977
     35  CA         6.0720   -2.8680   19.6500 C.3    50  GLN50       0.1601
     36  C          6.7370   -1.5470   19.9340 C.2    50  GLN50       0.2287
     37  O          7.8650   -1.5190   20.4390 O.2    50  GLN50      -0.2864
     38  CB         7.1160   -3.9810   19.3710 C.3    50  GLN50       0.0394
     39  CG         6.4870   -5.3330   19.3190 C.3    50  GLN50       0.0908
     40  CD         7.6150   -6.3920   19.2000 C.2    50  GLN50       0.2608
     41  OE1        8.0420   -6.8010   18.1250 O.2    50  GLN50      -0.2717
     42  NE2        8.1850   -6.6810   20.3060 N.am   50  GLN50      -0.0878
     43  N         -4.6840   -6.7450   18.6000 N.3    80  TRP80      -0.1241
     44  CA        -3.9430   -7.7970   17.9590 C.3    80  TRP80       0.1605
     45  C         -4.7110   -9.1400   18.0350 C.2    80  TRP80       0.2264
     46  O         -5.6070   -9.3550   18.8450 O.2    80  TRP80      -0.2867
     47  CB        -2.4970   -7.9020   18.5280 C.3    80  TRP80       0.0550
     48  CG        -1.6770   -8.8980   17.7490 C.ar   80  TRP80       0.0003
     49  CD1       -1.1730  -10.0740   18.2280 C.ar   80  TRP80       0.0946
     50  CD2       -1.4330   -8.9020   16.3390 C.ar   80  TRP80       0.0152
     51  NE1       -0.6550  -10.8270   17.1970 N.ar   80  TRP80      -0.2442
     52  CE2       -0.7980  -10.1190   16.0220 C.ar   80  TRP80       0.0810
     53  CE3       -1.6980   -7.9940   15.2940 C.ar   80  TRP80       0.0012
     54  CZ2       -0.4060  -10.4350   14.7200 C.ar   80  TRP80       0.0191
     55  CZ3       -1.3120   -8.3320   14.0120 C.ar   80  TRP80       0.0001
     56  CH2       -0.6690   -9.5160   13.7190 C.ar   80  TRP80       0.0015
     57  N         -7.4930   -5.7350   14.1770 N.3   111  HIS111     -0.1226
     58  CA        -6.3520   -5.6370   13.2660 C.3   111  HIS111      0.1752
     59  C         -6.4720   -6.5880   12.0650 C.2   111  HIS111      0.2596
     60  O         -6.1670   -6.2130   10.9420 O.2   111  HIS111     -0.2718
     61  CB        -5.0560   -5.8690   14.0500 C.3   111  HIS111      0.0759
     62  CG        -3.8270   -5.3100   13.4550 C.ar  111  HIS111      0.0818
     63  ND1       -2.7840   -4.8900   14.2570 N.ar  111  HIS111     -0.2268
     64  CD2       -3.4700   -5.1710   12.1470 C.ar  111  HIS111      0.1154
     65  CE1       -1.8270   -4.5190   13.4140 C.ar  111  HIS111      0.1986
     66  NE2       -2.2180   -4.6550   12.1390 N.ar  111  HIS111     -0.2212
     67  N         -6.8860   -7.8320   12.3530 N.am  112  TRP112     -0.1976
     68  CA        -7.1520   -8.8450   11.3360 C.3   112  TRP112      0.1640
     69  C         -8.3800   -9.6160   11.7810 C.2   112  TRP112      0.2290
     70  O         -8.6320   -9.7400   12.9970 O.2   112  TRP112     -0.2864
     71  CB        -5.9650   -9.8430   11.2200 C.3   112  TRP112      0.0576
     72  CG        -4.7110   -9.2480   10.6630 C.ar  112  TRP112      0.0006
     73  CD1       -3.7450   -8.5110   11.3040 C.ar  112  TRP112      0.0946
     74  CD2       -4.3110   -9.2650    9.2890 C.ar  112  TRP112      0.0152
     75  NE1       -2.7770   -8.0720   10.4430 N.ar  112  TRP112     -0.2442
     76  CE2       -3.1060   -8.5250    9.1920 C.ar  112  TRP112      0.0810
     77  CE3       -4.8460   -9.8540    8.1180 C.ar  112  TRP112      0.0012
     78  CZ2       -2.4470   -8.3350    7.9690 C.ar  112  TRP112      0.0191
     79  CZ3       -4.1940   -9.6440    6.9050 C.ar  112  TRP112      0.0001
     80  CH2       -2.9900   -8.8930    6.8670 C.ar  112  TRP112      0.0015
     81  N          3.2120  -13.1850   19.5480 N.3   122  PHE122     -0.1227
     82  CA         2.2760  -12.5390   18.6260 C.3   122  PHE122      0.1736
     83  C          1.8190  -13.4390   17.4790 C.2   122  PHE122      0.2595
     84  O          0.6870  -13.2860   16.9830 O.2   122  PHE122     -0.2718
     85  CB         2.8970  -11.2660   18.0910 C.3   122  PHE122      0.0547
     86  CG         2.9640  -10.1780   19.1210 C.ar  122  PHE122     -0.0202
     87  CD1        2.0110  -10.0810   20.1920 C.ar  122  PHE122     -0.0042
     88  CD2        3.9090   -9.2250   19.0180 C.ar  122  PHE122     -0.0042
     89  CE1        2.0510   -9.0260   21.0710 C.ar  122  PHE122     -0.0003
     90  CE2        3.9410   -8.1610   19.9280 C.ar  122  PHE122     -0.0003
     91  CZ         3.0240   -8.0970   20.9300 C.ar  122  PHE122     -0.0000
     92  N          2.6900  -14.3490   17.0390 N.am  123  PHE123     -0.1976
     93  CA         2.3890  -15.2680   15.9430 C.3   123  PHE123      0.1639
     94  C          2.6960  -16.6690   16.4610 C.2   123  PHE123      0.2290
     95  O          3.7520  -17.2120   16.1570 O.2   123  PHE123     -0.2864
     96  CB         3.2330  -15.0140   14.6930 C.3   123  PHE123      0.0560
     97  CG         2.8210  -13.8650   13.9730 C.ar  123  PHE123     -0.0200
     98  CD1        3.3170  -12.6160   14.3250 C.ar  123  PHE123     -0.0042
     99  CD2        1.9260  -13.9810   12.9660 C.ar  123  PHE123     -0.0042
    100  CE1        2.9210  -11.4700   13.6340 C.ar  123  PHE123     -0.0003
    101  CE2        1.5130  -12.8470   12.2710 C.ar  123  PHE123     -0.0003
    102  CZ         2.0180  -11.6270   12.6330 C.ar  123  PHE123     -0.0000
    103  N         -3.4770    1.2810    3.4890 N.3   210  TYR210     -0.1241
    104  CA        -2.2000    1.0090    4.1120 C.3   210  TYR210      0.1605
    105  C         -1.1940    0.5420    3.0700 C.2   210  TYR210      0.2264
    106  O         -1.5610    0.1790    1.9450 O.2   210  TYR210     -0.2867
    107  CB        -2.2930    0.0680    5.3180 C.3   210  TYR210      0.0534
    108  CG        -2.4810   -1.4080    5.1180 C.ar  210  TYR210     -0.0201
    109  CD1       -1.5230   -2.1960    4.5050 C.ar  210  TYR210     -0.0009
    110  CD2       -3.5830   -2.0590    5.6770 C.ar  210  TYR210     -0.0009
    111  CE1       -1.6460   -3.5570    4.4330 C.ar  210  TYR210      0.0417
    112  CE2       -3.7120   -3.4280    5.6500 C.ar  210  TYR210      0.0417
    113  CZ        -2.7420   -4.1940    5.0530 C.ar  210  TYR210      0.1957
    114  OH        -2.7830   -5.5590    5.0370 O.3   210  TYR210     -0.2866
    115  N          9.2740   -7.3200    5.8180 N.3   219  PRO219     -0.2102
    116  CA        10.3620   -8.2670    6.0980 C.3   219  PRO219      0.1504
    117  C         10.4120   -9.4800    5.2200 C.2   219  PRO219      0.2575
    118  O         11.4170  -10.2180    5.2500 O.2   219  PRO219     -0.2718
    119  CB        10.1870   -8.6180    7.5850 C.3   219  PRO219      0.0282
    120  CG         8.7880   -8.3090    7.8900 C.3   219  PRO219      0.0208
    121  CD         8.3830   -7.1580    6.9710 C.3   219  PRO219      0.0893
    122  N          9.4220   -9.7800    4.4030 N.am  220  TRP220     -0.1977
    123  CA         9.4380  -10.9550    3.5100 C.3   220  TRP220      0.1640
    124  C          9.6920  -10.5770    2.0700 C.2   220  TRP220      0.2290
    125  O          9.4300  -11.3670    1.1940 O.2   220  TRP220     -0.2864
    126  CB         8.1340  -11.7420    3.6750 C.3   220  TRP220      0.0576
    127  CG         7.0060  -10.8550    3.5500 C.ar  220  TRP220      0.0006
    128  CD1        6.4510  -10.4410    2.3850 C.ar  220  TRP220      0.0946
    129  CD2        6.2650  -10.2240    4.6120 C.ar  220  TRP220      0.0152
    130  NE1        5.4120   -9.5540    2.6550 N.ar  220  TRP220     -0.2442
    131  CE2        5.2680   -9.4240    4.0170 C.ar  220  TRP220      0.0810
    132  CE3        6.3530  -10.2670    6.0170 C.ar  220  TRP220      0.0012
    133  CZ2        4.3510   -8.6660    4.7780 C.ar  220  TRP220      0.0191
    134  CZ3        5.4330   -9.5410    6.7440 C.ar  220  TRP220      0.0001
    135  CH2        4.5120   -8.7570    6.1230 C.ar  220  TRP220      0.0015
    136  N          0.9020   -7.6700    1.8310 N.3   299  CYS299     -0.1235
    137  CA         0.5070   -8.2050    3.1460 C.3   299  CYS299      0.1677
    138  C         -0.5740   -9.2610    2.9530 C.2   299  CYS299      0.2270
    139  O         -1.7710   -8.9930    3.1090 O.2   299  CYS299     -0.2867
    140  CB         0.0350   -7.0970    4.1110 C.3   299  CYS299      0.0956
    141  SG         1.3510   -5.9880    4.6030 S.3   299  CYS299     -0.0801
    142  N         -0.5940  -12.3110    4.7160 N.3   301  LEU301     -0.1231
    143  CA        -0.7590  -13.1280    5.9310 C.3   301  LEU301      0.1693
    144  C         -0.6240  -14.6270    5.6260 C.2   301  LEU301      0.2592
    145  O         -1.4750  -15.4640    5.9400 O.2   301  LEU301     -0.2718
    146  CB        -2.1170  -12.8220    6.5940 C.3   301  LEU301      0.0284
    147  CG        -2.2230  -13.2180    8.0380 C.3   301  LEU301      0.0019
    148  CD1       -1.4320  -12.2540    8.9080 C.3   301  LEU301      0.0001
    149  CD2       -3.6790  -13.3010    8.5040 C.3   301  LEU301      0.0001
    150  N          0.5010  -14.9860    5.0040 N.am  302  LEU302     -0.1966
    151  CA         0.6310  -16.3270    4.3940 C.3   302  LEU302      0.1728
    152  C          0.6650  -17.4720    5.3960 C.2   302  LEU302      0.2616
    153  O          0.4160  -18.5890    4.9780 O.2   302  LEU302     -0.2715
    154  CB         1.8160  -16.3730    3.4480 C.3   302  LEU302      0.0311
    155  CG         1.6350  -15.5470    2.1830 C.3   302  LEU302      0.0022
    156  CD1        2.8620  -15.6560    1.3150 C.3   302  LEU302      0.0001
    157  CD2        0.4110  -15.9890    1.3680 C.3   302  LEU302      0.0001
    158  N          1.0500  -17.2460    6.6400 N.am  303  SER303     -0.1950
    159  CA         1.0240  -18.2930    7.6640 C.3   303  SER303      0.1924
    160  C         -0.3740  -18.6490    8.1700 C.2   303  SER303      0.2314
    161  O         -0.5070  -19.6200    8.9600 O.2   303  SER303     -0.2863
    162  CB         1.8590  -17.8040    8.8420 C.3   303  SER303      0.2116
    163  OG         1.4210  -16.5130    9.1710 O.3   303  SER303     -0.2180
@<TRIPOS>BOND
     1   125   124    2
     2   156   155    1
     3   157   155    1
     4   136   137    1
     5   106   105    2
     6   124   123    1
     7   155   154    1
     8   128   130   ar
     9   128   127   ar
    10   130   131   ar
    11   138   139    2
    12   138   137    1
    13   105   104    1
    14   137   140    1
    15   154   151    1
    16   103   104    1
    17   123   126    1
    18   123   122    1
    19   127   126    1
    20   127   129   ar
    21   131   129   ar
    22   131   133   ar
    23   140   141    1
    24   104   107    1
    25   151   150    1
    26   151   152    1
    27   122   117   am
    28   111   109   ar
    29   111   113   ar
    30   109   108   ar
    31   129   132   ar
    32   142   143    1
    33   133   135   ar
    34   153   152    2
    35   150   144   am
    36   114   113    1
    37   113   112   ar
    38   108   107    1
    39   108   110   ar
    40   117   118    2
    41   117   116    1
    42   152   158   am
    43   144   143    1
    44   144   145    2
    45   112   110   ar
    46   115   116    1
    47   115   121    1
    48   143   146    1
    49   132   134   ar
    50   116   119    1
    51   135   134   ar
    52   146   147    1
    53   158   159    1
    54    80    79   ar
    55    80    78   ar
    56    13    14   ar
    57    13    11   ar
    58    79    77   ar
    59   121   120    1
    60    14    12   ar
    61   119   120    1
    62   159   160    1
    63   159   162    1
    64    11     8   ar
    65    78    76   ar
    66   147   149    1
    67   147   148    1
    68    77    74   ar
    69   160   161    2
    70    12    10   ar
    71   162   163    1
    72     8    10   ar
    73     8     6   ar
    74    76    74   ar
    75    76    75   ar
    76    74    72   ar
    77    10     9   ar
    78     4     3    2
    79     6     5    1
    80     6     7   ar
    81    75    73   ar
    82     5     2    1
    83    72    71    1
    84    72    73   ar
    85     9     7   ar
    86    60    59    2
    87     3     2    1
    88    71    68    1
    89    68    69    1
    90    68    67    1
    91     2     1    1
    92    33    32    1
    93    69    70    2
    94    59    67   am
    95    59    58    1
    96    66    64   ar
    97    66    65   ar
    98    64    62   ar
    99   101   102   ar
   100   101    99   ar
   101    32    30   ar
   102    32    31   ar
   103   102   100   ar
   104    30    28   ar
   105    99    97   ar
   106    31    29   ar
   107    58    61    1
   108    58    57    1
   109    65    63   ar
   110    62    61    1
   111    62    63   ar
   112   100    98   ar
   113    56    55   ar
   114    56    54   ar
   115    28    27   ar
   116    97    98   ar
   117    97    96    1
   118    55    53   ar
   119    29    27   ar
   120    27    26    1
   121    96    93    1
   122    54    52   ar
   123    20    19    1
   124    53    50   ar
   125    26    23    1
   126    93    94    1
   127    93    92    1
   128    52    50   ar
   129    52    51   ar
   130    95    94    2
   131    21    19    1
   132    23    22    1
   133    23    24    1
   134    50    48   ar
   135    19    16    1
   136    18    17    2
   137    22    17   am
   138    25    24    2
   139    84    83    2
   140    17    16    1
   141    92    83   am
   142    51    49   ar
   143    24    34   am
   144    83    82    1
   145    16    15    1
   146    48    49   ar
   147    48    47    1
   148    44    45    1
   149    44    47    1
   150    44    43    1
   151    45    46    2
   152    85    82    1
   153    85    86    1
   154    41    40    2
   155    34    35    1
   156    82    81    1
   157    88    86   ar
   158    88    90   ar
   159    86    87   ar
   160    40    39    1
   161    40    42   am
   162    39    38    1
   163    38    35    1
   164    35    36    1
   165    90    91   ar
   166    36    37    2
   167    87    89   ar
   168    91    89   ar
