@<TRIPOS>MOLECULE
tmp/5oulA00.pdb
 154 148 0 0 0
SMALL
GASTEIGER

@<TRIPOS>ATOM
      1  N       -123.7660 -173.0800  312.9070 N.3   116  ASN116     -0.1225
      2  CA      -122.5330 -173.0570  312.1140 C.3   116  ASN116      0.1785
      3  C       -122.0950 -171.6770  311.6340 C.2   116  ASN116      0.2597
      4  O       -122.8370 -170.9860  310.9330 O.2   116  ASN116     -0.2718
      5  CB      -122.6190 -174.0210  310.9310 C.3   116  ASN116      0.1169
      6  CG      -121.3660 -174.0860  310.0790 C.2   116  ASN116      0.2627
      7  OD1     -121.3740 -173.7470  308.8870 O.2   116  ASN116     -0.2716
      8  ND2     -120.2630 -174.5350  310.6600 N.am  116  ASN116     -0.0877
      9  N       -120.8490 -171.3120  311.9720 N.am  117  THR117     -0.1953
     10  CA      -120.2210 -170.0680  311.5310 C.3   117  THR117      0.1897
     11  C       -119.7700 -170.2840  310.0760 C.2   117  THR117      0.2313
     12  O       -119.3070 -171.3730  309.7520 O.2   117  THR117     -0.2863
     13  CB      -119.0310 -169.7280  312.4520 C.3   117  THR117      0.1794
     14  OG1     -119.4200 -169.8800  313.8210 O.3   117  THR117     -0.2208
     15  CG2     -118.4890 -168.3250  312.2170 C.3   117  THR117      0.0378
     16  N       -117.8040 -170.7540  306.6790 N.3   119  PHE119     -0.1241
     17  CA      -116.4750 -171.3230  306.3970 C.3   119  PHE119      0.1605
     18  C       -115.4370 -170.2400  306.0980 C.2   119  PHE119      0.2264
     19  O       -114.3880 -170.2370  306.7410 O.2   119  PHE119     -0.2867
     20  CB      -116.5330 -172.3950  305.2770 C.3   119  PHE119      0.0534
     21  CG      -115.2270 -172.9890  304.7570 C.ar  119  PHE119     -0.0203
     22  CD1     -114.1350 -173.1790  305.6030 C.ar  119  PHE119     -0.0042
     23  CD2     -115.1210 -173.4340  303.4430 C.ar  119  PHE119     -0.0042
     24  CE1     -112.9360 -173.7260  305.1250 C.ar  119  PHE119     -0.0003
     25  CE2     -113.9270 -173.9970  302.9690 C.ar  119  PHE119     -0.0003
     26  CZ      -112.8420 -174.1350  303.8120 C.ar  119  PHE119     -0.0000
     27  N       -114.6480 -168.0960  309.3040 N.3   122  LEU122     -0.1231
     28  CA      -113.8510 -168.8690  310.2470 C.3   122  LEU122      0.1693
     29  C       -112.4380 -169.1330  309.7280 C.2   122  LEU122      0.2592
     30  O       -111.4680 -168.9280  310.4530 O.2   122  LEU122     -0.2718
     31  CB      -114.5580 -170.1780  310.5820 C.3   122  LEU122      0.0284
     32  CG      -114.3840 -170.6380  312.0100 C.3   122  LEU122      0.0019
     33  CD1     -115.0410 -169.6720  312.9830 C.3   122  LEU122      0.0001
     34  CD2     -114.9570 -171.9910  312.1920 C.3   122  LEU122      0.0001
     35  N       -112.3240 -169.5370  308.4600 N.am  123  TYR123     -0.1976
     36  CA      -111.0350 -169.7900  307.8170 C.3   123  TYR123      0.1639
     37  C       -110.1430 -168.5410  307.9710 C.2   123  TYR123      0.2290
     38  O       -108.9780 -168.6370  308.3630 O.2   123  TYR123     -0.2864
     39  CB      -111.2750 -170.1190  306.3330 C.3   123  TYR123      0.0560
     40  CG      -110.0060 -170.2980  305.5280 C.ar  123  TYR123     -0.0198
     41  CD1     -109.3270 -171.5140  305.5210 C.ar  123  TYR123     -0.0009
     42  CD2     -109.4920 -169.2580  304.7610 C.ar  123  TYR123     -0.0009
     43  CE1     -108.1400 -171.6730  304.8120 C.ar  123  TYR123      0.0417
     44  CE2     -108.3320 -169.4200  304.0110 C.ar  123  TYR123      0.0417
     45  CZ      -107.6520 -170.6240  304.0530 C.ar  123  TYR123      0.1957
     46  OH      -106.5200 -170.7880  303.3080 O.3   123  TYR123     -0.2866
     47  N       -109.3120 -167.7250  312.2510 N.3   126  LEU126     -0.1245
     48  CA      -108.7450 -168.6260  313.2450 C.3   126  LEU126      0.1561
     49  C       -107.2940 -168.3070  313.5790 C.2   126  LEU126      0.2260
     50  O       -106.4540 -168.0600  312.7150 O.2   126  LEU126     -0.2867
     51  CB      -108.9340 -170.1120  312.9000 C.3   126  LEU126      0.0270
     52  CG      -110.3700 -170.6520  312.9090 C.3   126  LEU126      0.0019
     53  CD1     -110.3770 -172.1380  312.8030 C.3   126  LEU126      0.0001
     54  CD2     -111.1470 -170.2420  314.1430 C.3   126  LEU126      0.0001
     55  N       -106.7180 -171.4180  318.0740 N.3   130  ASP130     -0.1225
     56  CA      -108.0270 -171.9610  317.6770 C.3   130  ASP130      0.1805
     57  C       -107.8590 -173.1330  316.6990 C.2   130  ASP130      0.2597
     58  O       -108.6510 -174.0890  316.7750 O.2   130  ASP130     -0.2718
     59  CB      -108.9230 -170.8470  317.1170 C.3   130  ASP130      0.1424
     60  CG      -109.5620 -169.9440  318.1780 C.2   130  ASP130      0.3668
     61  OD1     -109.4630 -170.2730  319.3930 O.co2 130  ASP130     -0.2456
     62  OD2     -110.1570 -168.9200  317.7980 O.co2 130  ASP130     -0.2456
     63  N       -106.8610 -173.0800  315.8080 N.am  131  ILE131     -0.1980
     64  CA      -106.6180 -174.2140  314.9220 C.3   131  ILE131      0.1595
     65  C       -106.3030 -175.4580  315.7250 C.2   131  ILE131      0.2287
     66  O       -106.9200 -176.5040  315.5130 O.2   131  ILE131     -0.2864
     67  CB      -105.5280 -173.9090  313.8660 C.3   131  ILE131      0.0276
     68  CG1     -105.9910 -172.7590  312.9280 C.3   131  ILE131      0.0022
     69  CG2     -105.1640 -175.1900  313.0390 C.3   131  ILE131      0.0022
     70  CD1     -104.8920 -172.1660  312.0730 C.3   131  ILE131      0.0001
     71  N       -109.5340 -176.6950  317.6630 N.3   134  TYR134     -0.1227
     72  CA      -110.5340 -177.3940  316.8670 C.3   134  TYR134      0.1736
     73  C       -110.0160 -178.6610  316.2430 C.2   134  TYR134      0.2595
     74  O       -110.7780 -179.6230  316.1550 O.2   134  TYR134     -0.2718
     75  CB      -111.1610 -176.4650  315.8270 C.3   134  TYR134      0.0548
     76  CG      -112.0850 -175.4280  316.4270 C.ar  134  TYR134     -0.0200
     77  CD1     -113.1510 -175.8020  317.2360 C.ar  134  TYR134     -0.0009
     78  CD2     -111.8550 -174.0680  316.2380 C.ar  134  TYR134     -0.0009
     79  CE1     -114.0150 -174.8560  317.7720 C.ar  134  TYR134      0.0417
     80  CE2     -112.7150 -173.1070  316.7680 C.ar  134  TYR134      0.0417
     81  CZ      -113.7850 -173.5080  317.5440 C.ar  134  TYR134      0.1957
     82  OH      -114.6350 -172.5640  318.0770 O.3   134  TYR134     -0.2866
     83  N       -108.7230 -178.7410  315.9110 N.am  135  MET135     -0.1979
     84  CA      -108.1310 -179.9710  315.3980 C.3   135  MET135      0.1605
     85  C       -108.2400 -181.0480  316.4580 C.2   135  MET135      0.2287
     86  O       -108.5700 -182.1860  316.1430 O.2   135  MET135     -0.2864
     87  CB      -106.6620 -179.7010  315.0390 C.3   135  MET135      0.0413
     88  CG      -106.5030 -179.0380  313.6790 C.3   135  MET135      0.0598
     89  SD      -106.8980 -180.1880  312.2950 S.3   135  MET135     -0.1393
     90  CE      -105.6600 -181.3220  312.5010 C.3   135  MET135      0.0692
     91  N       -111.7650 -182.3550  316.5350 N.3   138  ILE138     -0.1245
     92  CA      -112.0320 -183.2740  315.4230 C.3   138  ILE138      0.1561
     93  C       -111.4050 -184.6520  315.7250 C.2   138  ILE138      0.2260
     94  O       -112.0320 -185.7010  315.4730 O.2   138  ILE138     -0.2867
     95  CB      -111.4880 -182.7330  314.0790 C.3   138  ILE138      0.0252
     96  CG1     -112.1630 -181.4220  313.7220 C.3   138  ILE138      0.0019
     97  CG2     -111.7040 -183.7850  312.9670 C.3   138  ILE138      0.0019
     98  CD1     -111.5650 -180.6970  312.5730 C.3   138  ILE138      0.0001
     99  N       -113.9150 -179.6670  305.3050 N.3   157  PRO157     -0.2102
    100  CA      -114.4470 -178.5610  306.1150 C.3   157  PRO157      0.1504
    101  C       -115.9710 -178.4420  306.1150 C.2   157  PRO157      0.2575
    102  O       -116.5530 -178.1280  307.1590 O.2   157  PRO157     -0.2718
    103  CB      -113.7860 -177.3180  305.4940 C.3   157  PRO157      0.0282
    104  CG      -112.4980 -177.8480  304.8970 C.3   157  PRO157      0.0208
    105  CD      -112.8840 -179.1920  304.3530 C.3   157  PRO157      0.0893
    106  N       -116.6370 -178.7180  304.9650 N.am  158  HIS158     -0.1976
    107  CA      -118.1030 -178.6250  304.9240 C.3   158  HIS158      0.1656
    108  C       -118.7760 -179.6710  305.7910 C.2   158  HIS158      0.2291
    109  O       -119.9920 -179.5750  305.9990 O.2   158  HIS158     -0.2864
    110  CB      -118.6290 -178.6990  303.4880 C.3   158  HIS158      0.0771
    111  CG      -118.5780 -177.3910  302.7580 C.ar  158  HIS158      0.0820
    112  ND1     -118.6300 -177.3440  301.3750 N.ar  158  HIS158     -0.2267
    113  CD2     -118.4640 -176.1280  303.2370 C.ar  158  HIS158      0.1154
    114  CE1     -118.5740 -176.0550  301.0570 C.ar  158  HIS158      0.1986
    115  NE2     -118.4730 -175.2870  302.1390 N.ar  158  HIS158     -0.2212
    116  N       -117.7210 -180.3870  308.9340 N.3   160  VAL160     -0.1231
    117  CA      -117.3790 -180.0610  310.2950 C.3   160  VAL160      0.1692
    118  C       -118.1200 -178.7770  310.6610 C.2   160  VAL160      0.2592
    119  O       -117.7920 -177.7080  310.1470 O.2   160  VAL160     -0.2718
    120  CB      -115.8540 -179.9200  310.4850 C.3   160  VAL160      0.0266
    121  CG1     -115.5550 -179.5290  311.9320 C.3   160  VAL160      0.0020
    122  CG2     -115.1110 -181.2110  310.0900 C.3   160  VAL160      0.0020
    123  N       -119.1420 -178.8960  311.5080 N.am  161  MET161     -0.1965
    124  CA      -119.9270 -177.7400  311.9230 C.3   161  MET161      0.1736
    125  C       -119.2900 -177.1330  313.1610 C.2   161  MET161      0.2616
    126  O       -118.9150 -177.8520  314.0870 O.2   161  MET161     -0.2715
    127  CB      -121.3710 -178.1690  312.2030 C.3   161  MET161      0.0427
    128  CG      -122.1350 -178.6530  310.9370 C.3   161  MET161      0.0599
    129  SD      -122.3510 -177.4240  309.5780 S.3   161  MET161     -0.1393
    130  CE      -121.0730 -177.8670  308.5000 C.3   161  MET161      0.0692
    131  N       -119.0650 -175.8110  313.1220 N.am  162  ILE162     -0.1977
    132  CA      -118.4900 -175.0990  314.2480 C.3   162  ILE162      0.1596
    133  C       -119.3480 -173.9060  314.6270 C.2   162  ILE162      0.2287
    134  O       -119.5320 -173.0000  313.8050 O.2   162  ILE162     -0.2864
    135  CB      -117.0130 -174.6750  313.9880 C.3   162  ILE162      0.0276
    136  CG1     -116.1020 -175.9000  313.8660 C.3   162  ILE162      0.0022
    137  CG2     -116.5100 -173.7420  315.1120 C.3   162  ILE162      0.0022
    138  CD1     -114.7520 -175.6070  313.2790 C.3   162  ILE162      0.0001
    139  N       -106.8590 -180.7520  305.5150 N.3   219  MET219     -0.1245
    140  CA      -107.5160 -179.6130  306.1570 C.3   219  MET219      0.1570
    141  C       -106.5280 -178.7590  306.9610 C.2   219  MET219      0.2261
    142  O       -106.5290 -177.5370  306.8600 O.2   219  MET219     -0.2867
    143  CB      -108.6560 -180.0950  307.0590 C.3   219  MET219      0.0387
    144  CG      -109.8360 -180.6790  306.3050 C.3   219  MET219      0.0595
    145  SD      -111.2240 -181.0990  307.3780 S.3   219  MET219     -0.1393
    146  CE      -111.3550 -179.6170  308.3640 C.3   219  MET219      0.0692
    147  N       -105.2930 -174.7570  306.4440 N.3   223  MET223     -0.1245
    148  CA      -105.4670 -173.7420  307.4840 C.3   223  MET223      0.1570
    149  C       -104.1580 -173.1220  307.9340 C.2   223  MET223      0.2261
    150  O       -104.1080 -171.9130  308.1610 O.2   223  MET223     -0.2867
    151  CB      -106.1720 -174.3300  308.7030 C.3   223  MET223      0.0387
    152  CG      -107.5550 -174.8230  308.4160 C.3   223  MET223      0.0595
    153  SD      -108.1870 -175.5870  309.9040 S.3   223  MET223     -0.1393
    154  CE      -107.1450 -176.9870  310.0360 C.3   223  MET223      0.0692
@<TRIPOS>BOND
     1   114   112   ar
     2   114   115   ar
     3   112   111   ar
     4   115   113   ar
     5   111   113   ar
     6   111   110    1
     7    25    23   ar
     8    25    26   ar
     9    46    45    1
    10    23    21   ar
    11   110   107    1
    12    26    24   ar
    13    44    45   ar
    14    44    42   ar
    15    45    43   ar
    16   105   104    1
    17   105    99    1
    18    21    20    1
    19    21    22   ar
    20    42    40   ar
    21    43    41   ar
    22   104   103    1
    23   107   106    1
    24   107   108    1
    25   106   101   am
    26    24    22   ar
    27    20    17    1
    28    99   100    1
    29   103   100    1
    30   139   140    1
    31    41    40   ar
    32    40    39    1
    33   108   109    2
    34    18    17    1
    35    18    19    2
    36   100   101    1
    37   101   102    2
    38   140   141    1
    39   140   143    1
    40   144   143    1
    41   144   145    1
    42    39    36    1
    43    17    16    1
    44   147   148    1
    45   142   141    2
    46   145   146    1
    47   148   149    1
    48   148   151    1
    49    36    37    1
    50    36    35    1
    51   149   150    2
    52    37    38    2
    53   152   151    1
    54   152   153    1
    55    35    29   am
    56   130   129    1
    57     7     6    2
    58   116   117    1
    59    27    28    1
    60   129   128    1
    61    29    28    1
    62    29    30    2
    63    12    11    2
    64   153   154    1
    65    11    10    1
    66     6     8   am
    67     6     5    1
    68   122   120    1
    69   119   118    2
    70    28    31    1
    71   117   120    1
    72   117   118    1
    73   120   121    1
    74    31    32    1
    75   118   123   am
    76     5     2    1
    77     4     3    2
    78   128   127    1
    79   123   124    1
    80    10     9    1
    81    10    13    1
    82     3     9   am
    83     3     2    1
    84   124   127    1
    85   124   125    1
    86    32    34    1
    87    32    33    1
    88    70    68    1
    89     2     1    1
    90    15    13    1
    91    47    48    1
    92    89    90    1
    93    89    88    1
    94    13    14    1
    95    98    96    1
    96    50    49    2
    97    53    52    1
    98    51    52    1
    99    51    48    1
   100    52    54    1
   101    68    67    1
   102    97    95    1
   103    69    67    1
   104   131   125   am
   105   131   132    1
   106   125   126    2
   107    48    49    1
   108   138   136    1
   109    88    87    1
   110    96    95    1
   111   134   133    2
   112   136   135    1
   113    67    64    1
   114   135   132    1
   115   135   137    1
   116    95    92    1
   117   132   133    1
   118    64    65    1
   119    64    63    1
   120    87    84    1
   121    84    83    1
   122    84    85    1
   123    92    93    1
   124    92    91    1
   125    94    93    2
   126    66    65    2
   127    63    57   am
   128    75    76    1
   129    75    72    1
   130    83    73   am
   131    86    85    2
   132    74    73    2
   133    78    76   ar
   134    78    80   ar
   135    73    72    1
   136    76    77   ar
   137    57    58    2
   138    57    56    1
   139    80    81   ar
   140    72    71    1
   141    59    56    1
   142    59    60    1
   143    77    79   ar
   144    81    79   ar
   145    81    82    1
   146    56    55    1
   147    62    60   ar
   148    60    61   ar
