@<TRIPOS>MOLECULE
tmp/5oulA03.pdb
 99 93 0 0 0
SMALL
GASTEIGER

@<TRIPOS>ATOM
      1  N       -140.7030 -177.3820  309.1870 N.3    39  LEU39      -0.1245
      2  CA      -139.6010 -176.8690  308.3800 C.3    39  LEU39       0.1561
      3  C       -139.6880 -175.3300  308.3290 C.2    39  LEU39       0.2260
      4  O       -140.7750 -174.7920  308.1340 O.2    39  LEU39      -0.2867
      5  CB      -139.6390 -177.4960  306.9630 C.3    39  LEU39       0.0270
      6  CG      -139.6180 -179.0290  306.8760 C.3    39  LEU39       0.0019
      7  CD1     -139.6620 -179.4760  305.4050 C.3    39  LEU39       0.0001
      8  CD2     -138.3290 -179.6220  307.5670 C.3    39  LEU39       0.0001
      9  N       -128.9680 -178.1060  299.4400 N.3    45  ARG45      -0.1245
     10  CA      -129.2630 -179.3510  298.7550 C.3    45  ARG45       0.1563
     11  C       -128.0130 -179.8440  298.0720 C.2    45  ARG45       0.2260
     12  O       -127.2870 -179.0550  297.4670 O.2    45  ARG45      -0.2867
     13  CB      -130.3860 -179.1720  297.7240 C.3    45  ARG45       0.0307
     14  CG      -130.9690 -180.5190  297.2570 C.3    45  ARG45       0.0489
     15  CD      -132.2810 -180.4240  296.5010 C.3    45  ARG45       0.2205
     16  NE      -132.1040 -179.7150  295.2410 N.pl3  45  ARG45      -0.0865
     17  CZ      -132.9810 -178.8630  294.7250 C.cat  45  ARG45       0.5346
     18  NH1     -134.1400 -178.6350  295.3380 N.pl3  45  ARG45       0.1354
     19  NH2     -132.7080 -178.2300  293.5970 N.pl3  45  ARG45       0.1354
     20  N       -131.6440 -182.9200  300.9370 N.3    50  GLU50      -0.1245
     21  CA      -132.0420 -181.5350  301.0790 C.3    50  GLU50       0.1567
     22  C       -132.0290 -181.3040  302.5930 C.2    50  GLU50       0.2260
     23  O       -132.5260 -182.1370  303.3600 O.2    50  GLU50      -0.2867
     24  CB      -133.4360 -181.3170  300.4870 C.3    50  GLU50       0.0388
     25  CG      -133.6670 -179.9000  300.0090 C.3    50  GLU50       0.1160
     26  CD      -134.8460 -179.7470  299.0620 C.2    50  GLU50       0.3649
     27  OE1     -135.9120 -180.3430  299.3370 O.co2  50  GLU50      -0.2457
     28  OE2     -134.7200 -178.9950  298.0680 O.co2  50  GLU50      -0.2457
     29  N       -132.6970 -178.7970  305.9380 N.3    52  PHE52      -0.1241
     30  CA      -133.5200 -177.6840  306.4510 C.3    52  PHE52       0.1605
     31  C       -133.2590 -177.3880  307.8980 C.2    52  PHE52       0.2264
     32  O       -132.9160 -178.2860  308.6640 O.2    52  PHE52      -0.2867
     33  CB      -135.0130 -178.0520  306.3660 C.3    52  PHE52       0.0534
     34  CG      -135.5270 -178.2980  304.9710 C.ar   52  PHE52      -0.0203
     35  CD1     -135.2560 -179.4940  304.3130 C.ar   52  PHE52      -0.0042
     36  CD2     -136.2820 -177.3360  304.3130 C.ar   52  PHE52      -0.0042
     37  CE1     -135.7120 -179.7150  303.0120 C.ar   52  PHE52      -0.0003
     38  CE2     -136.7460 -177.5590  303.0060 C.ar   52  PHE52      -0.0003
     39  CZ      -136.4310 -178.7390  302.3560 C.ar   52  PHE52      -0.0000
     40  N       -133.5660 -184.3970  304.5430 N.3    67  ILE67      -0.1231
     41  CA      -134.4760 -185.2430  303.7820 C.3    67  ILE67       0.1692
     42  C       -133.6690 -185.9570  302.7100 C.2    67  ILE67       0.2592
     43  O       -133.1270 -185.3390  301.8050 O.2    67  ILE67      -0.2718
     44  CB      -135.6350 -184.4500  303.1510 C.3    67  ILE67       0.0266
     45  CG1     -136.3870 -183.6650  304.2260 C.3    67  ILE67       0.0019
     46  CG2     -136.5830 -185.3950  302.4330 C.3    67  ILE67       0.0020
     47  CD1     -137.5380 -182.8420  303.6890 C.3    67  ILE67       0.0001
     48  N       -133.5580 -187.2680  302.8480 N.am   68  LEU68      -0.1966
     49  CA      -132.7830 -188.0630  301.9120 C.3    68  LEU68       0.1728
     50  C       -133.4140 -188.2260  300.5390 C.2    68  LEU68       0.2616
     51  O       -134.6140 -188.4200  300.4170 O.2    68  LEU68      -0.2715
     52  CB      -132.5010 -189.4320  302.5260 C.3    68  LEU68       0.0311
     53  CG      -131.6790 -189.2960  303.8060 C.3    68  LEU68       0.0022
     54  CD1     -132.1210 -190.2410  304.9060 C.3    68  LEU68       0.0001
     55  CD2     -130.1870 -189.3760  303.5440 C.3    68  LEU68       0.0001
     56  N       -132.5860 -188.1420  299.5070 N.am   69  LYS69      -0.1964
     57  CA      -133.0530 -188.3550  298.1490 C.3    69  LYS69       0.1713
     58  C       -133.0050 -189.8580  297.9030 C.2    69  LYS69       0.2458
     59  O       -132.2500 -190.5770  298.5540 O.2    69  LYS69      -0.2730
     60  CB      -132.1630 -187.6320  297.1420 C.3    69  LYS69       0.0311
     61  CG      -132.2950 -186.1200  297.1560 C.3    69  LYS69       0.0038
     62  CD      -131.5310 -185.4970  296.0010 C.3    69  LYS69       0.0206
     63  CE      -131.7160 -183.9900  295.9810 C.3    69  LYS69       0.1093
     64  NZ      -131.0830 -183.3680  294.7880 N.3    69  LYS69      -0.1314
     65  N       -133.8070 -190.3440  296.9540 N.am   70  PRO70      -0.2727
     66  CA      -133.8550 -191.7770  296.6370 C.3    70  PRO70       0.1402
     67  C       -132.4970 -192.4720  296.4480 C.2    70  PRO70       0.2269
     68  O       -132.3700 -193.6150  296.8750 O.2    70  PRO70      -0.2865
     69  CB      -134.6770 -191.8120  295.3510 C.3    70  PRO70       0.0296
     70  CG      -135.6190 -190.6740  295.5160 C.3    70  PRO70       0.0237
     71  CD      -134.8300 -189.5920  296.2090 C.3    70  PRO70       0.0939
     72  N       -140.9160 -188.3100  305.4520 N.3   101  ASP101     -0.1239
     73  CA      -141.3680 -187.0240  304.9150 C.3   101  ASP101      0.1674
     74  C       -142.5620 -187.2880  303.9890 C.2   101  ASP101      0.2266
     75  O       -142.4860 -188.1810  303.1500 O.2   101  ASP101     -0.2867
     76  CB      -140.2490 -186.2710  304.2040 C.3   101  ASP101      0.1410
     77  CG      -140.7100 -184.9260  303.6910 C.2   101  ASP101      0.3668
     78  OD1     -141.2680 -184.8740  302.5670 O.co2 101  ASP101     -0.2456
     79  OD2     -140.5910 -183.9340  304.4310 O.co2 101  ASP101     -0.2456
     80  N       -143.9860 -185.5370  301.6530 N.3   103  VAL103     -0.1231
     81  CA      -143.8560 -185.0410  300.2890 C.3   103  VAL103      0.1692
     82  C       -142.8610 -185.8600  299.5140 C.2   103  VAL103      0.2592
     83  O       -143.1690 -186.2970  298.4040 O.2   103  VAL103     -0.2718
     84  CB      -143.5060 -183.5290  300.2390 C.3   103  VAL103      0.0266
     85  CG1     -143.2780 -183.0370  298.8060 C.3   103  VAL103      0.0020
     86  CG2     -144.5740 -182.6950  300.9180 C.3   103  VAL103      0.0020
     87  N       -141.6560 -186.0780  300.0830 N.am  104  SER104     -0.1952
     88  CA      -140.6060 -186.8190  299.3790 C.3   104  SER104      0.1924
     89  C       -140.8680 -188.3090  299.3690 C.2   104  SER104      0.2314
     90  O       -140.3390 -189.0080  298.4990 O.2   104  SER104     -0.2863
     91  CB      -139.2400 -186.5320  299.9970 C.3   104  SER104      0.2116
     92  OG      -139.1450 -187.1710  301.2630 O.3   104  SER104     -0.2180
     93  N       -139.6500 -190.2370  301.5150 N.3   106  THR106     -0.1218
     94  CA      -138.3590 -190.7920  301.8930 C.3   106  THR106      0.1862
     95  C       -138.0840 -190.4800  303.3540 C.2   106  THR106      0.2287
     96  O       -138.7320 -189.6230  303.9460 O.2   106  THR106     -0.2866
     97  CB      -137.2080 -190.2100  301.0540 C.3   106  THR106      0.1770
     98  OG1     -137.1060 -188.8010  301.2900 O.3   106  THR106     -0.2211
     99  CG2     -137.4260 -190.4640  299.5700 C.3   106  THR106      0.0375
@<TRIPOS>BOND
     1    19    17    1
     2    17    16    2
     3    17    18    1
     4    64    63    1
     5    16    15    1
     6    69    70    1
     7    69    66    1
     8    70    71    1
     9    63    62    1
    10    62    61    1
    11    71    65    1
    12    67    66    1
    13    67    68    2
    14    15    14    1
    15    66    65    1
    16    65    58   am
    17    60    61    1
    18    60    57    1
    19    14    13    1
    20    12    11    2
    21    13    10    1
    22    58    57    1
    23    58    59    2
    24    28    26   ar
    25    11    10    1
    26    57    56    1
    27    83    82    2
    28    90    89    2
    29    10     9    1
    30    85    84    1
    31    26    27   ar
    32    26    25    1
    33    89    88    1
    34    88    91    1
    35    88    87    1
    36    56    50   am
    37    82    87   am
    38    82    81    1
    39    99    97    1
    40    91    92    1
    41    25    24    1
    42    84    81    1
    43    84    86    1
    44    81    80    1
    45    51    50    2
    46    24    21    1
    47    50    49    1
    48    20    21    1
    49    97    98    1
    50    97    94    1
    51    21    22    1
    52    93    94    1
    53    43    42    2
    54    94    95    1
    55    49    52    1
    56    49    48    1
    57    39    38   ar
    58    39    37   ar
    59    46    44    1
    60    52    53    1
    61    78    77   ar
    62    22    23    2
    63    42    48   am
    64    42    41    1
    65    38    36   ar
    66    37    35   ar
    67    75    74    2
    68    44    41    1
    69    44    45    1
    70    95    96    2
    71    55    53    1
    72    47    45    1
    73    77    76    1
    74    77    79   ar
    75    41    40    1
    76    53    54    1
    77    74    73    1
    78    76    73    1
    79    35    34   ar
    80    36    34   ar
    81    73    72    1
    82    34    33    1
    83     7     6    1
    84    29    30    1
    85    33    30    1
    86    30    31    1
    87     6     5    1
    88     6     8    1
    89     5     2    1
    90    31    32    2
    91     4     3    2
    92     3     2    1
    93     2     1    1
