@<TRIPOS>MOLECULE
tmp/5oulA05.pdb
 98 92 0 0 0
SMALL
GASTEIGER

@<TRIPOS>ATOM
      1  N       -131.6800 -174.9300  304.0640 N.3    43  LEU43      -0.1231
      2  CA      -130.2780 -174.5270  304.2180 C.3    43  LEU43       0.1693
      3  C       -129.4480 -174.8390  302.9760 C.2    43  LEU43       0.2592
      4  O       -128.5770 -174.0440  302.6070 O.2    43  LEU43      -0.2718
      5  CB      -129.6580 -175.1770  305.4680 C.3    43  LEU43       0.0284
      6  CG      -130.1940 -174.6920  306.8110 C.3    43  LEU43       0.0019
      7  CD1     -129.6940 -175.5650  307.9330 C.3    43  LEU43       0.0001
      8  CD2     -129.8090 -173.2310  307.0840 C.3    43  LEU43       0.0001
      9  N       -129.7260 -175.9740  302.3390 N.am   44  GLY44      -0.1957
     10  CA      -129.0220 -176.4010  301.1380 C.3    44  GLY44       0.1869
     11  C       -129.4950 -177.7340  300.6010 C.2    44  GLY44       0.2309
     12  O       -130.3560 -178.3900  301.1980 O.2    44  GLY44      -0.2863
     13  N       -123.7660 -173.0800  312.9070 N.3   116  ASN116     -0.1240
     14  CA      -122.5330 -173.0570  312.1140 C.3   116  ASN116      0.1653
     15  C       -122.0950 -171.6770  311.6340 C.2   116  ASN116      0.2266
     16  O       -122.8370 -170.9860  310.9330 O.2   116  ASN116     -0.2867
     17  CB      -122.6190 -174.0210  310.9310 C.3   116  ASN116      0.1155
     18  CG      -121.3660 -174.0860  310.0790 C.2   116  ASN116      0.2627
     19  OD1     -121.3740 -173.7470  308.8870 O.2   116  ASN116     -0.2716
     20  ND2     -120.2630 -174.5350  310.6600 N.am  116  ASN116     -0.0877
     21  N       -119.9190 -169.2640  309.1980 N.3   118  ASP118     -0.1225
     22  CA      -119.5180 -169.3370  307.7800 C.3   118  ASP118      0.1805
     23  C       -118.0590 -169.8060  307.6220 C.2   118  ASP118      0.2597
     24  O       -117.1930 -169.3310  308.3660 O.2   118  ASP118     -0.2718
     25  CB      -119.7440 -167.9690  307.0910 C.3   118  ASP118      0.1424
     26  CG      -119.1180 -167.8150  305.7120 C.2   118  ASP118      0.3668
     27  OD1     -119.5360 -168.5440  304.7810 O.co2 118  ASP118     -0.2456
     28  OD2     -118.2330 -166.9460  305.5580 O.co2 118  ASP118     -0.2456
     29  N       -117.8040 -170.7540  306.6790 N.am  119  PHE119     -0.1976
     30  CA      -116.4750 -171.3230  306.3970 C.3   119  PHE119      0.1639
     31  C       -115.4370 -170.2400  306.0980 C.2   119  PHE119      0.2290
     32  O       -114.3880 -170.2370  306.7410 O.2   119  PHE119     -0.2864
     33  CB      -116.5330 -172.3950  305.2770 C.3   119  PHE119      0.0560
     34  CG      -115.2270 -172.9890  304.7570 C.ar  119  PHE119     -0.0200
     35  CD1     -114.1350 -173.1790  305.6030 C.ar  119  PHE119     -0.0042
     36  CD2     -115.1210 -173.4340  303.4430 C.ar  119  PHE119     -0.0042
     37  CE1     -112.9360 -173.7260  305.1250 C.ar  119  PHE119     -0.0003
     38  CE2     -113.9270 -173.9970  302.9690 C.ar  119  PHE119     -0.0003
     39  CZ      -112.8420 -174.1350  303.8120 C.ar  119  PHE119     -0.0000
     40  N       -115.4570 -189.0300  304.4770 N.3   154  ASP154     -0.1239
     41  CA      -115.7700 -187.7550  303.8210 C.3   154  ASP154      0.1674
     42  C       -115.3870 -186.6100  304.7150 C.2   154  ASP154      0.2266
     43  O       -116.1330 -185.6300  304.8390 O.2   154  ASP154     -0.2867
     44  CB      -117.2430 -187.6780  303.3710 C.3   154  ASP154      0.1410
     45  CG      -117.5220 -186.6370  302.2950 C.2   154  ASP154      0.3668
     46  OD1     -116.5590 -186.2230  301.5980 O.co2 154  ASP154     -0.2456
     47  OD2     -118.7130 -186.2470  302.1420 O.co2 154  ASP154     -0.2456
     48  N       -113.9100 -183.2910  305.5530 N.3   156  LYS156     -0.1245
     49  CA      -113.6430 -182.0740  304.7740 C.3   156  LYS156      0.1561
     50  C       -114.2940 -180.9360  305.5640 C.2   156  LYS156      0.2260
     51  O       -115.1250 -181.1870  306.4210 O.2   156  LYS156     -0.2867
     52  CB      -114.2410 -182.1440  303.3460 C.3   156  LYS156      0.0271
     53  CG      -115.7570 -182.3650  303.3050 C.3   156  LYS156      0.0035
     54  CD      -116.3000 -182.5170  301.8730 C.3   156  LYS156      0.0206
     55  CE      -117.8020 -182.5970  301.8200 C.3   156  LYS156      0.1093
     56  NZ      -118.2730 -182.6530  300.4050 N.3   156  LYS156     -0.1314
     57  N       -116.6370 -178.7180  304.9650 N.3   158  HIS158     -0.1226
     58  CA      -118.1030 -178.6250  304.9240 C.3   158  HIS158      0.1752
     59  C       -118.7760 -179.6710  305.7910 C.2   158  HIS158      0.2596
     60  O       -119.9920 -179.5750  305.9990 O.2   158  HIS158     -0.2718
     61  CB      -118.6290 -178.6990  303.4880 C.3   158  HIS158      0.0759
     62  CG      -118.5780 -177.3910  302.7580 C.ar  158  HIS158      0.0818
     63  ND1     -118.6300 -177.3440  301.3750 N.ar  158  HIS158     -0.2268
     64  CD2     -118.4640 -176.1280  303.2370 C.ar  158  HIS158      0.1154
     65  CE1     -118.5740 -176.0550  301.0570 C.ar  158  HIS158      0.1986
     66  NE2     -118.4730 -175.2870  302.1390 N.ar  158  HIS158     -0.2212
     67  N       -118.0130 -180.6940  306.2750 N.am  159  ASN159     -0.1974
     68  CA      -118.6360 -181.7240  307.1280 C.3   159  ASN159      0.1688
     69  C       -118.2740 -181.5440  308.5980 C.2   159  ASN159      0.2292
     70  O       -118.4790 -182.4540  309.4030 O.2   159  ASN159     -0.2864
     71  CB      -118.3300 -183.1390  306.6630 C.3   159  ASN159      0.1181
     72  CG      -119.1260 -183.5050  305.4360 C.2   159  ASN159      0.2629
     73  OD1     -120.1920 -182.9200  305.1570 O.2   159  ASN159     -0.2716
     74  ND2     -118.6580 -184.4830  304.7080 N.am  159  ASN159     -0.0877
     75  N       -119.1420 -178.8960  311.5080 N.3   161  MET161     -0.1245
     76  CA      -119.9270 -177.7400  311.9230 C.3   161  MET161      0.1570
     77  C       -119.2900 -177.1330  313.1610 C.2   161  MET161      0.2261
     78  O       -118.9150 -177.8520  314.0870 O.2   161  MET161     -0.2867
     79  CB      -121.3710 -178.1690  312.2030 C.3   161  MET161      0.0387
     80  CG      -122.1350 -178.6530  310.9370 C.3   161  MET161      0.0595
     81  SD      -122.3510 -177.4240  309.5780 S.3   161  MET161     -0.1393
     82  CE      -121.0730 -177.8670  308.5000 C.3   161  MET161      0.0692
     83  N       -120.3450 -184.0720  310.9910 N.3   172  ILE172     -0.1231
     84  CA      -121.6360 -184.3950  310.3640 C.3   172  ILE172      0.1692
     85  C       -121.4480 -185.2070  309.0830 C.2   172  ILE172      0.2592
     86  O       -120.3190 -185.5320  308.6650 O.2   172  ILE172     -0.2718
     87  CB      -122.4240 -183.0770  310.0650 C.3   172  ILE172      0.0266
     88  CG1     -121.7510 -182.2410  308.9770 C.3   172  ILE172      0.0019
     89  CG2     -122.6830 -182.2480  311.3270 C.3   172  ILE172      0.0020
     90  CD1     -122.7430 -181.2640  308.1510 C.3   172  ILE172      0.0001
     91  N       -122.6080 -185.5220  308.4330 N.am  173  ASP173     -0.1974
     92  CA      -122.7390 -186.2290  307.1650 C.3   173  ASP173      0.1709
     93  C       -122.0210 -187.5630  307.1940 C.2   173  ASP173      0.2293
     94  O       -120.9540 -187.7230  306.5630 O.2   173  ASP173     -0.2864
     95  CB      -122.3520 -185.3980  305.9350 C.3   173  ASP173      0.1436
     96  CG      -123.0650 -185.9530  304.7080 C.2   173  ASP173      0.3671
     97  OD1     -123.4520 -187.1580  304.7340 O.co2 173  ASP173     -0.2456
     98  OD2     -123.3430 -185.1650  303.7750 O.co2 173  ASP173     -0.2456
@<TRIPOS>BOND
     1    56    55    1
     2    11    10    1
     3    11    12    2
     4    65    63   ar
     5    65    66   ar
     6    10     9    1
     7    63    62   ar
     8    46    45   ar
     9    55    54    1
    10    54    53    1
    11    66    64   ar
    12    47    45   ar
    13    45    44    1
    14     9     3   am
    15     4     3    2
    16    62    64   ar
    17    62    61    1
    18    38    36   ar
    19    38    39   ar
    20     3     2    1
    21    53    52    1
    22    52    49    1
    23    44    41    1
    24    36    34   ar
    25    61    58    1
    26    98    96   ar
    27    39    37   ar
    28    41    40    1
    29    41    42    1
    30     1     2    1
    31     2     5    1
    32    96    97   ar
    33    96    95    1
    34    74    72   am
    35    42    43    2
    36    34    33    1
    37    34    35   ar
    38    49    48    1
    39    49    50    1
    40    27    26   ar
    41    58    57    1
    42    58    59    1
    43    37    35   ar
    44    73    72    2
    45    33    30    1
    46    72    71    1
    47     5     6    1
    48    28    26   ar
    49    50    51    2
    50    26    25    1
    51    59    60    2
    52    59    67   am
    53    95    92    1
    54    31    30    1
    55    31    32    2
    56    67    68    1
    57    30    29    1
    58    94    93    2
    59    71    68    1
    60    29    23   am
    61     6     8    1
    62     6     7    1
    63    25    22    1
    64    68    69    1
    65    92    93    1
    66    92    91    1
    67    23    22    1
    68    23    24    2
    69    22    21    1
    70    90    88    1
    71    91    85   am
    72    82    81    1
    73    69    70    2
    74    86    85    2
    75    19    18    2
    76    88    87    1
    77    85    84    1
    78    81    80    1
    79    87    84    1
    80    87    89    1
    81    18    20   am
    82    18    17    1
    83    84    83    1
    84    17    14    1
    85    16    15    2
    86    80    79    1
    87    75    76    1
    88    15    14    1
    89    76    79    1
    90    76    77    1
    91    14    13    1
    92    77    78    2
