@<TRIPOS>MOLECULE
tmp/5oulA04.pdb
 127 119 0 0 0
SMALL
GASTEIGER

@<TRIPOS>ATOM
      1  N       -136.6420 -173.1240  307.0220 N.3    41  ARG41      -0.1245
      2  CA      -135.8650 -172.6420  305.9010 C.3    41  ARG41       0.1563
      3  C       -135.0060 -173.7180  305.3410 C.2    41  ARG41       0.2260
      4  O       -134.5100 -174.5670  306.0980 O.2    41  ARG41      -0.2867
      5  CB      -135.0680 -171.3520  306.2120 C.3    41  ARG41       0.0307
      6  CG      -134.1610 -171.3740  307.4320 C.3    41  ARG41       0.0489
      7  CD      -133.5610 -169.9930  307.6730 C.3    41  ARG41       0.2205
      8  NE      -132.4270 -170.0440  308.6000 N.pl3  41  ARG41      -0.0865
      9  CZ      -131.1490 -169.9490  308.2410 C.cat  41  ARG41       0.5346
     10  NH1     -130.8200 -169.7680  306.9680 N.pl3  41  ARG41       0.1354
     11  NH2     -130.1900 -170.0190  309.1560 N.pl3  41  ARG41       0.1354
     12  N       -131.6800 -174.9300  304.0640 N.3    43  LEU43      -0.1245
     13  CA      -130.2780 -174.5270  304.2180 C.3    43  LEU43       0.1561
     14  C       -129.4480 -174.8390  302.9760 C.2    43  LEU43       0.2260
     15  O       -128.5770 -174.0440  302.6070 O.2    43  LEU43      -0.2867
     16  CB      -129.6580 -175.1770  305.4680 C.3    43  LEU43       0.0270
     17  CG      -130.1940 -174.6920  306.8110 C.3    43  LEU43       0.0019
     18  CD1     -129.6940 -175.5650  307.9330 C.3    43  LEU43       0.0001
     19  CD2     -129.8090 -173.2310  307.0840 C.3    43  LEU43       0.0001
     20  N       -131.3630 -180.2560  303.0350 N.3    51  VAL51      -0.1245
     21  CA      -131.1990 -179.9930  304.4470 C.3    51  VAL51       0.1561
     22  C       -131.9430 -178.7120  304.8440 C.2    51  VAL51       0.2260
     23  O       -131.8770 -177.6920  304.1430 O.2    51  VAL51      -0.2867
     24  CB      -129.6740 -179.9670  304.7910 C.3    51  VAL51       0.0252
     25  CG1     -129.4290 -179.4650  306.2070 C.3    51  VAL51       0.0019
     26  CG2     -129.0570 -181.3680  304.6140 C.3    51  VAL51       0.0019
     27  N       -133.5280 -176.1440  308.2970 N.3    53  GLU53      -0.1245
     28  CA      -133.5610 -175.7110  309.6800 C.3    53  GLU53       0.1567
     29  C       -135.0410 -175.9030  310.0050 C.2    53  GLU53       0.2260
     30  O       -135.9190 -175.6430  309.1540 O.2    53  GLU53      -0.2867
     31  CB      -133.1640 -174.2330  309.7930 C.3    53  GLU53       0.0388
     32  CG      -132.4910 -173.8680  311.0960 C.3    53  GLU53       0.1160
     33  CD      -131.8600 -172.4920  311.0740 C.2    53  GLU53       0.3649
     34  OE1     -132.6130 -171.4960  310.9780 O.co2  53  GLU53      -0.2457
     35  OE2     -130.6140 -172.4090  311.1590 O.co2  53  GLU53      -0.2457
     36  N       -132.2070 -179.7780  312.8520 N.3    64  VAL64      -0.1245
     37  CA      -131.8280 -179.8050  311.4560 C.3    64  VAL64       0.1561
     38  C       -132.4890 -181.0430  310.9160 C.2    64  VAL64       0.2260
     39  O       -132.4170 -182.0930  311.5390 O.2    64  VAL64      -0.2867
     40  CB      -130.2810 -179.8250  311.2890 C.3    64  VAL64       0.0252
     41  CG1     -129.8680 -180.2180  309.8710 C.3    64  VAL64       0.0019
     42  CG2     -129.7000 -178.4620  311.6540 C.3    64  VAL64       0.0019
     43  N       -122.3370 -185.6040  315.5740 N.3    93  ILE93      -0.1245
     44  CA      -123.7060 -185.0500  315.4910 C.3    93  ILE93       0.1561
     45  C       -124.7030 -186.0670  316.0470 C.2    93  ILE93       0.2260
     46  O       -124.5510 -187.2960  315.8000 O.2    93  ILE93      -0.2867
     47  CB      -124.0310 -184.6390  314.0400 C.3    93  ILE93       0.0252
     48  CG1     -125.2470 -183.6960  313.9860 C.3    93  ILE93       0.0019
     49  CG2     -124.2600 -185.8580  313.1460 C.3    93  ILE93       0.0019
     50  CD1     -124.9000 -182.3180  314.5350 C.3    93  ILE93       0.0001
     51  N       -131.6370 -184.0180  313.3720 N.3   111  PHE111     -0.1227
     52  CA      -130.4130 -183.8590  314.1660 C.3   111  PHE111      0.1736
     53  C       -130.5070 -182.6740  315.1040 C.2   111  PHE111      0.2595
     54  O       -131.2740 -181.7290  314.8830 O.2   111  PHE111     -0.2718
     55  CB      -129.2410 -183.5650  313.2250 C.3   111  PHE111      0.0547
     56  CG      -128.9240 -184.6600  312.2630 C.ar  111  PHE111     -0.0202
     57  CD1     -128.1510 -185.7600  312.6540 C.ar  111  PHE111     -0.0042
     58  CD2     -129.3870 -184.6130  310.9550 C.ar  111  PHE111     -0.0042
     59  CE1     -127.8650 -186.7850  311.7570 C.ar  111  PHE111     -0.0003
     60  CE2     -129.1110 -185.6490  310.0610 C.ar  111  PHE111     -0.0003
     61  CZ      -128.3150 -186.7050  310.4470 C.ar  111  PHE111     -0.0000
     62  N       -129.6410 -182.6740  316.1200 N.am  112  GLU112     -0.1965
     63  CA      -129.5080 -181.5100  316.9980 C.3   112  GLU112      0.1733
     64  C       -129.0200 -180.3510  316.1070 C.2   112  GLU112      0.2616
     65  O       -128.3990 -180.5830  315.0590 O.2   112  GLU112     -0.2715
     66  CB      -128.4580 -181.7810  318.1040 C.3   112  GLU112      0.0429
     67  CG      -127.0510 -181.9570  317.5510 C.3   112  GLU112      0.1163
     68  CD      -125.9370 -182.1620  318.5550 C.2   112  GLU112      0.3649
     69  OE1     -125.8300 -181.3950  319.5390 O.co2 112  GLU112     -0.2457
     70  OE2     -125.1360 -183.0840  318.3210 O.co2 112  GLU112     -0.2457
     71  N       -129.3170 -179.1120  316.4980 N.am  113  HIS113     -0.1959
     72  CA      -128.9370 -177.9590  315.7120 C.3   113  HIS113      0.1787
     73  C       -127.5710 -177.4570  316.1560 C.2   113  HIS113      0.2620
     74  O       -127.3090 -177.3930  317.3560 O.2   113  HIS113     -0.2715
     75  CB      -130.0010 -176.8500  315.9020 C.3   113  HIS113      0.0785
     76  CG      -129.7180 -175.6000  315.1330 C.ar  113  HIS113      0.0821
     77  ND1     -129.1480 -174.4970  315.7370 N.ar  113  HIS113     -0.2267
     78  CD2     -129.9110 -175.3300  313.8220 C.ar  113  HIS113      0.1154
     79  CE1     -129.0120 -173.5920  314.7790 C.ar  113  HIS113      0.1986
     80  NE2     -129.4620 -174.0460  313.6100 N.ar  113  HIS113     -0.2212
     81  N       -126.7190 -177.0910  315.1930 N.am  114  VAL114     -0.1963
     82  CA      -125.4200 -176.4460  315.4250 C.3   114  VAL114      0.1727
     83  C       -125.4740 -175.1140  314.6780 C.2   114  VAL114      0.2616
     84  O       -125.6720 -175.1050  313.4640 O.2   114  VAL114     -0.2715
     85  CB      -124.1850 -177.2930  314.9840 C.3   114  VAL114      0.0290
     86  CG1     -122.8730 -176.5510  315.2940 C.3   114  VAL114      0.0023
     87  CG2     -124.1990 -178.6700  315.6490 C.3   114  VAL114      0.0023
     88  N       -125.2690 -174.0060  315.3920 N.am  115  ASN115     -0.1958
     89  CA      -125.2620 -172.6620  314.8020 C.3   115  ASN115      0.1819
     90  C       -123.9300 -172.4230  314.0700 C.2   115  ASN115      0.2621
     91  O       -123.0660 -171.6830  314.5550 O.2   115  ASN115     -0.2715
     92  CB      -125.5140 -171.6010  315.8830 C.3   115  ASN115      0.1195
     93  CG      -125.9150 -170.2660  315.3110 C.2   115  ASN115      0.2630
     94  OD1     -126.8610 -170.1550  314.5180 O.2   115  ASN115     -0.2716
     95  ND2     -125.2110 -169.2190  315.7080 N.am  115  ASN115     -0.0877
     96  N       -123.7660 -173.0800  312.9070 N.am  116  ASN116     -0.1972
     97  CA      -122.5330 -173.0570  312.1140 C.3   116  ASN116      0.1688
     98  C       -122.0950 -171.6770  311.6340 C.2   116  ASN116      0.2292
     99  O       -122.8370 -170.9860  310.9330 O.2   116  ASN116     -0.2864
    100  CB      -122.6190 -174.0210  310.9310 C.3   116  ASN116      0.1181
    101  CG      -121.3660 -174.0860  310.0790 C.2   116  ASN116      0.2629
    102  OD1     -121.3740 -173.7470  308.8870 O.2   116  ASN116     -0.2716
    103  ND2     -120.2630 -174.5350  310.6600 N.am  116  ASN116     -0.0877
    104  N       -119.9190 -169.2640  309.1980 N.3   118  ASP118     -0.1239
    105  CA      -119.5180 -169.3370  307.7800 C.3   118  ASP118      0.1674
    106  C       -118.0590 -169.8060  307.6220 C.2   118  ASP118      0.2266
    107  O       -117.1930 -169.3310  308.3660 O.2   118  ASP118     -0.2867
    108  CB      -119.7440 -167.9690  307.0910 C.3   118  ASP118      0.1410
    109  CG      -119.1180 -167.8150  305.7120 C.2   118  ASP118      0.3668
    110  OD1     -119.5360 -168.5440  304.7810 O.co2 118  ASP118     -0.2456
    111  OD2     -118.2330 -166.9460  305.5580 O.co2 118  ASP118     -0.2456
    112  N       -119.1420 -178.8960  311.5080 N.3   161  MET161     -0.1245
    113  CA      -119.9270 -177.7400  311.9230 C.3   161  MET161      0.1570
    114  C       -119.2900 -177.1330  313.1610 C.2   161  MET161      0.2261
    115  O       -118.9150 -177.8520  314.0870 O.2   161  MET161     -0.2867
    116  CB      -121.3710 -178.1690  312.2030 C.3   161  MET161      0.0387
    117  CG      -122.1350 -178.6530  310.9370 C.3   161  MET161      0.0595
    118  SD      -122.3510 -177.4240  309.5780 S.3   161  MET161     -0.1393
    119  CE      -121.0730 -177.8670  308.5000 C.3   161  MET161      0.0692
    120  N       -120.3450 -184.0720  310.9910 N.3   172  ILE172     -0.1245
    121  CA      -121.6360 -184.3950  310.3640 C.3   172  ILE172      0.1561
    122  C       -121.4480 -185.2070  309.0830 C.2   172  ILE172      0.2260
    123  O       -120.3190 -185.5320  308.6650 O.2   172  ILE172     -0.2867
    124  CB      -122.4240 -183.0770  310.0650 C.3   172  ILE172      0.0252
    125  CG1     -121.7510 -182.2410  308.9770 C.3   172  ILE172      0.0019
    126  CG2     -122.6830 -182.2480  311.3270 C.3   172  ILE172      0.0019
    127  CD1     -122.7430 -181.2640  308.1510 C.3   172  ILE172      0.0001
@<TRIPOS>BOND
     1    15    14    2
     2    14    13    1
     3    20    21    1
     4    12    13    1
     5    23    22    2
     6    13    16    1
     7    21    24    1
     8    21    22    1
     9    26    24    1
    10   110   109   ar
    11    24    25    1
    12     3     2    1
    13     3     4    2
    14    16    17    1
    15   111   109   ar
    16   109   108    1
    17     2     5    1
    18     2     1    1
    19     5     6    1
    20    17    19    1
    21    17    18    1
    22    10     9    1
    23   108   105    1
    24     6     7    1
    25   106   105    1
    26   106   107    2
    27     7     8    1
    28   105   104    1
    29   127   125    1
    30     9     8    2
    31     9    11    1
    32    27    28    1
    33   119   118    1
    34   123   122    2
    35   102   101    2
    36   125   124    1
    37   122   121    1
    38    30    29    2
    39   118   117    1
    40    28    31    1
    41    28    29    1
    42    31    32    1
    43    41    40    1
    44    60    61   ar
    45    60    58   ar
    46   124   121    1
    47   124   126    1
    48   101   103   am
    49   101   100    1
    50   121   120    1
    51    61    59   ar
    52    38    37    1
    53    38    39    2
    54   100    97    1
    55    99    98    2
    56   117   116    1
    57    58    56   ar
    58    34    33   ar
    59    33    32    1
    60    33    35   ar
    61    40    37    1
    62    40    42    1
    63    37    36    1
    64   112   113    1
    65    98    97    1
    66    59    57   ar
    67   113   116    1
    68   113   114    1
    69    97    96    1
    70    56    57   ar
    71    56    55    1
    72    96    90   am
    73    49    47    1
    74   114   115    2
    75    55    52    1
    76    51    52    1
    77    84    83    2
    78    80    78   ar
    79    80    79   ar
    80    78    76   ar
    81    48    47    1
    82    48    50    1
    83    47    44    1
    84    90    91    2
    85    90    89    1
    86    52    53    1
    87    94    93    2
    88    83    88   am
    89    83    82    1
    90    79    77   ar
    91    89    88    1
    92    89    92    1
    93    54    53    2
    94    85    86    1
    95    85    82    1
    96    85    87    1
    97    65    64    2
    98    53    62   am
    99    76    77   ar
   100    76    75    1
   101    81    82    1
   102    81    73   am
   103    93    95   am
   104    93    92    1
   105    44    43    1
   106    44    45    1
   107    72    75    1
   108    72    73    1
   109    72    71    1
   110    46    45    2
   111    64    71   am
   112    64    63    1
   113    62    63    1
   114    73    74    2
   115    63    66    1
   116    67    66    1
   117    67    68    1
   118    70    68   ar
   119    68    69   ar
