@<TRIPOS>MOLECULE
tmp/5ourB00.pdb
 125 118 0 0 0
SMALL
GASTEIGER

@<TRIPOS>ATOM
      1  N        -15.4930   14.3560    1.7620 N.3    24  GLY24      -0.1225
      2  CA       -14.9510   13.0120    1.8330 C.3    24  GLY24       0.1811
      3  C        -15.9740   11.9010    1.9180 C.2    24  GLY24       0.2280
      4  O        -15.7700   10.8280    1.3510 O.2    24  GLY24      -0.2866
      5  N        -11.4950    8.8830    1.9890 N.3    67  ILE67      -0.1245
      6  CA       -10.4090    9.3620    2.8490 C.3    67  ILE67       0.1561
      7  C         -9.0930    9.2640    2.1060 C.2    67  ILE67       0.2260
      8  O         -8.7480    8.1870    1.5840 O.2    67  ILE67      -0.2867
      9  CB       -10.3560    8.5400    4.1480 C.3    67  ILE67       0.0252
     10  CG1      -11.6440    8.7870    4.9590 C.3    67  ILE67       0.0019
     11  CG2       -9.0890    8.8590    4.9640 C.3    67  ILE67       0.0019
     12  CD1      -11.6580    7.9450    6.2320 C.3    67  ILE67       0.0001
     13  N        -13.1970   21.8810   -1.3370 N.3    89  ARG89      -0.1245
     14  CA       -13.2840   20.8130   -0.3410 C.3    89  ARG89       0.1563
     15  C        -13.9020   21.3540    0.9390 C.2    89  ARG89       0.2260
     16  O        -13.5160   22.4270    1.4130 O.2    89  ARG89      -0.2867
     17  CB       -11.9040   20.2490   -0.0090 C.3    89  ARG89       0.0307
     18  CG       -12.1490   19.0680    1.0380 C.3    89  ARG89       0.0489
     19  CD       -11.0830   18.1520    1.1260 C.3    89  ARG89       0.2205
     20  NE       -11.3150   17.0260    2.0090 N.pl3  89  ARG89      -0.0865
     21  CZ       -11.9100   15.8760    1.6960 C.cat  89  ARG89       0.5346
     22  NH1      -12.5310   15.6810    0.5390 N.pl3  89  ARG89       0.1354
     23  NH2      -11.8610   14.9060    2.5860 N.pl3  89  ARG89       0.1354
     24  N        -13.9830   17.8970    7.9530 N.3    92  THR92      -0.1203
     25  CA       -13.7710   18.0330    9.3870 C.3    92  THR92       0.1994
     26  C        -12.2840   17.9660    9.6800 C.2    92  THR92       0.2619
     27  O        -11.4830   17.4830    8.8640 O.2    92  THR92      -0.2717
     28  CB       -14.4590   16.8930   10.1450 C.3    92  THR92       0.1784
     29  OG1      -13.9530   15.6160    9.6880 O.3    92  THR92      -0.2211
     30  CG2      -15.9770   16.9300    9.8960 C.3    92  THR92       0.0376
     31  N        -11.9180   18.4290   10.8790 N.am   93  THR93      -0.1938
     32  CA       -10.5050   18.5220   11.1740 C.3    93  THR93       0.2028
     33  C        -10.3210   18.4930   12.6860 C.2    93  THR93       0.2642
     34  O        -11.2140   18.8830   13.4430 O.2    93  THR93      -0.2714
     35  CB        -9.9180   19.7970   10.5490 C.3    93  THR93       0.1808
     36  OG1       -8.5450   19.8470   10.7910 O.3    93  THR93      -0.2208
     37  CG2      -10.4790   21.0640   11.1520 C.3    93  THR93       0.0379
     38  N         -9.1240   18.0810   13.1080 N.am   94  GLY94      -0.1954
     39  CA        -8.7010   18.1700   14.5000 C.3    94  GLY94       0.1869
     40  C         -7.7380   19.3330   14.6680 C.2    94  GLY94       0.2309
     41  O         -6.7260   19.4040   13.9640 O.2    94  GLY94      -0.2863
     42  N         -4.1520    8.6100    9.7820 N.3   160  PHE160     -0.1241
     43  CA        -4.8700    9.1890   10.8990 C.3   160  PHE160      0.1605
     44  C         -4.1150    9.0030   12.1970 C.2   160  PHE160      0.2264
     45  O         -4.2590    9.8070   13.1380 O.2   160  PHE160     -0.2867
     46  CB        -6.2560    8.5050   10.9800 C.3   160  PHE160      0.0534
     47  CG        -7.1720    9.1160   11.9950 C.ar  160  PHE160     -0.0203
     48  CD1       -7.8700   10.2830   11.7050 C.ar  160  PHE160     -0.0042
     49  CD2       -7.3530    8.5300   13.2440 C.ar  160  PHE160     -0.0042
     50  CE1       -8.7590   10.8320   12.6690 C.ar  160  PHE160     -0.0003
     51  CE2       -8.2270    9.0800   14.1990 C.ar  160  PHE160     -0.0003
     52  CZ        -8.9340   10.2390   13.9060 C.ar  160  PHE160     -0.0000
     53  N         -0.4200   11.6820   12.6540 N.3   164  GLN164     -0.1245
     54  CA        -0.9820   12.7050   13.5340 C.3   164  GLN164      0.1566
     55  C         -0.4590   12.5220   14.9540 C.2   164  GLN164      0.2260
     56  O         -1.0110   13.0630   15.9190 O.2   164  GLN164     -0.2867
     57  CB        -2.5130   12.7070   13.4710 C.3   164  GLN164      0.0367
     58  CG        -3.0210   12.9020   12.0330 C.3   164  GLN164      0.0905
     59  CD        -4.5020   13.1780   11.9500 C.2   164  GLN164      0.2608
     60  OE1       -5.1360   13.0220   10.9030 O.2   164  GLN164     -0.2717
     61  NE2       -5.0660   13.5820   13.0720 N.am  164  GLN164     -0.0878
     62  N         -0.5150   10.0140   17.0700 N.3   166  ARG166     -0.1245
     63  CA        -1.3570    9.3210   18.0500 C.3   166  ARG166      0.1563
     64  C         -0.6150    8.0890   18.5660 C.2   166  ARG166      0.2260
     65  O         -0.0840    7.2990   17.7720 O.2   166  ARG166     -0.2867
     66  CB        -2.6780    8.8600   17.4340 C.3   166  ARG166      0.0307
     67  CG        -3.6840    9.9820   17.1810 C.3   166  ARG166      0.0489
     68  CD        -5.0610    9.4680   16.7020 C.3   166  ARG166      0.2205
     69  NE        -6.0750   10.5040   16.9190 N.pl3 166  ARG166     -0.0865
     70  CZ        -6.3630   11.4950   16.0700 C.cat 166  ARG166      0.5346
     71  NH1       -5.7880   11.5440   14.8710 N.pl3 166  ARG166      0.1354
     72  NH2       -7.2280   12.4510   16.4280 N.pl3 166  ARG166      0.1354
     73  N         -4.8640   19.2020   11.7840 N.3   193  PHE193     -0.1227
     74  CA        -4.5450   18.0270   10.9670 C.3   193  PHE193      0.1736
     75  C         -5.7520   17.6490   10.1190 C.2   193  PHE193      0.2595
     76  O         -6.9100   17.6960   10.5780 O.2   193  PHE193     -0.2718
     77  CB        -4.2920   16.7880   11.8380 C.3   193  PHE193      0.0547
     78  CG        -2.9060   16.7130   12.4450 C.ar  193  PHE193     -0.0202
     79  CD1       -1.7790   16.5440   11.6420 C.ar  193  PHE193     -0.0042
     80  CD2       -2.7430   16.6470   13.8440 C.ar  193  PHE193     -0.0042
     81  CE1       -0.4740   16.3590   12.2430 C.ar  193  PHE193     -0.0003
     82  CE2       -1.4990   16.4660   14.4450 C.ar  193  PHE193     -0.0003
     83  CZ        -0.3760   16.3460   13.6420 C.ar  193  PHE193     -0.0000
     84  N         -5.4960   17.2360    8.8820 N.am  194  GLU194     -0.1965
     85  CA        -6.4670   16.4380    8.1100 C.3   194  GLU194      0.1733
     86  C         -5.6660   15.5570    7.1660 C.2   194  GLU194      0.2616
     87  O         -4.4790   15.3370    7.4070 O.2   194  GLU194     -0.2715
     88  CB        -7.6180   17.2710    7.5150 C.3   194  GLU194      0.0429
     89  CG        -7.1060   18.4800    6.7110 C.3   194  GLU194      0.1163
     90  CD        -6.4680   18.0620    5.4100 C.2   194  GLU194      0.3649
     91  OE1       -5.2380   18.0600    5.2980 O.co2 194  GLU194     -0.2457
     92  OE2       -7.1880   17.7030    4.4880 O.co2 194  GLU194     -0.2457
     93  N         -6.2970   15.0200    6.0990 N.am  195  MET195     -0.1963
     94  CA        -5.6830   13.9280    5.3340 C.3   195  MET195      0.1736
     95  C         -5.7530   14.0920    3.8160 C.2   195  MET195      0.2616
     96  O         -5.3820   13.1570    3.0970 O.2   195  MET195     -0.2715
     97  CB        -6.2770   12.5660    5.7250 C.3   195  MET195      0.0427
     98  CG        -6.0330   12.2650    7.2050 C.3   195  MET195      0.0599
     99  SD        -6.6790   10.6630    7.7050 S.3   195  MET195     -0.1393
    100  CE        -5.7280    9.5330    6.6260 C.3   195  MET195      0.0692
    101  N         -6.1910   15.2340    3.2880 N.am  196  GLU196     -0.1977
    102  CA        -6.4170   15.3640    1.8470 C.3   196  GLU196      0.1602
    103  C         -5.9030   16.6500    1.2650 C.2   196  GLU196      0.2287
    104  O         -5.7080   16.6900    0.0490 O.2   196  GLU196     -0.2864
    105  CB        -7.9170   15.2970    1.5220 C.3   196  GLU196      0.0415
    106  CG        -8.4930   13.9240    1.8480 C.3   196  GLU196      0.1163
    107  CD        -8.9020   13.6910    3.3070 C.2   196  GLU196      0.3649
    108  OE1       -8.9960   14.6410    4.1090 O.co2 196  GLU196     -0.2457
    109  OE2       -9.1420   12.5290    3.6660 O.co2 196  GLU196     -0.2457
    110  N        -13.7940   19.5860   14.7760 N.3   218  ILE218     -0.1231
    111  CA       -14.5850   18.6080   15.5240 C.3   218  ILE218      0.1692
    112  C        -13.9110   18.1340   16.7940 C.2   218  ILE218      0.2591
    113  O        -14.5650   17.4810   17.6430 O.2   218  ILE218     -0.2718
    114  CB       -15.0370   17.4160   14.6460 C.3   218  ILE218      0.0266
    115  CG1      -13.8200   16.5800   14.1870 C.3   218  ILE218      0.0019
    116  CG2      -15.9390   17.9000   13.5100 C.3   218  ILE218      0.0020
    117  CD1      -14.1930   15.2200   13.4950 C.3   218  ILE218      0.0001
    118  N        -12.6170   18.3900   16.9480 N.am  219  ILE219     -0.1980
    119  CA       -11.9210   18.0160   18.1640 C.3   219  ILE219      0.1595
    120  C        -10.7220   18.9330   18.2540 C.2   219  ILE219      0.2287
    121  O        -10.2620   19.4680   17.2410 O.2   219  ILE219     -0.2864
    122  CB       -11.5240   16.5120   18.1090 C.3   219  ILE219      0.0276
    123  CG1      -11.2900   15.9360   19.5110 C.3   219  ILE219      0.0022
    124  CG2      -10.3760   16.2610   17.1460 C.3   219  ILE219      0.0022
    125  CD1      -12.5930   15.5000   20.1430 C.3   219  ILE219      0.0001
@<TRIPOS>BOND
     1    13    14    1
     2    14    17    1
     3    14    15    1
     4    17    18    1
     5   104   103    2
     6    22    21    1
     7    15    16    2
     8    18    19    1
     9    19    20    1
    10   103   102    1
    11     4     3    2
    12   105   102    1
    13   105   106    1
    14     8     7    2
    15    21    20    2
    16    21    23    1
    17     1     2    1
    18     2     3    1
    19   102   101    1
    20   106   107    1
    21     5     6    1
    22     7     6    1
    23     6     9    1
    24    96    95    2
    25   101    95   am
    26   107   109   ar
    27   107   108   ar
    28    95    94    1
    29     9    10    1
    30     9    11    1
    31    92    90   ar
    32    10    12    1
    33    91    90   ar
    34    94    97    1
    35    94    93    1
    36    90    89    1
    37    97    98    1
    38    93    86   am
    39   100    99    1
    40    89    88    1
    41    86    87    2
    42    86    85    1
    43    98    99    1
    44    88    85    1
    45    24    25    1
    46    85    84    1
    47    27    26    2
    48    84    75   am
    49    25    26    1
    50    25    28    1
    51    26    31   am
    52    29    28    1
    53    42    43    1
    54    30    28    1
    55    75    76    2
    56    75    74    1
    57    35    36    1
    58    35    37    1
    59    35    32    1
    60    31    32    1
    61    43    46    1
    62    43    44    1
    63    60    59    2
    64    74    73    1
    65    74    77    1
    66    46    47    1
    67    32    33    1
    68    79    81   ar
    69    79    78   ar
    70    48    47   ar
    71    48    50   ar
    72    77    78    1
    73    59    58    1
    74    59    61   am
    75    47    49   ar
    76    58    57    1
    77    44    45    2
    78    81    83   ar
    79    78    80   ar
    80    53    54    1
    81    50    52   ar
    82    33    38   am
    83    33    34    2
    84    38    39    1
    85    49    51   ar
    86    57    54    1
    87   117   115    1
    88   116   114    1
    89    54    55    1
    90    83    82   ar
    91    80    82   ar
    92    52    51   ar
    93    41    40    2
    94   115   114    1
    95    39    40    1
    96   114   111    1
    97   110   111    1
    98    71    70    1
    99    55    56    2
   100   111   112    1
   101    70    72    1
   102    70    69    2
   103    68    69    1
   104    68    67    1
   105   112   118   am
   106   112   113    2
   107   118   119    1
   108    62    63    1
   109   124   122    1
   110    67    66    1
   111   121   120    2
   112    66    63    1
   113    65    64    2
   114    63    64    1
   115   122   119    1
   116   122   123    1
   117   119   120    1
   118   123   125    1
