@<TRIPOS>MOLECULE
tmp/5ouuB00.pdb
 173 164 0 0 0
SMALL
GASTEIGER

@<TRIPOS>ATOM
      1  N         13.4720  160.9070  389.5260 N.3    43  LEU43      -0.1231
      2  CA        12.3490  161.5770  390.1890 C.3    43  LEU43       0.1693
      3  C         11.8780  160.8090  391.4280 C.2    43  LEU43       0.2592
      4  O         11.6150  161.4180  392.4690 O.2    43  LEU43      -0.2718
      5  CB        11.1540  161.7410  389.2350 C.3    43  LEU43       0.0284
      6  CG        11.3110  162.6030  387.9980 C.3    43  LEU43       0.0019
      7  CD1       10.0120  162.6350  387.2030 C.3    43  LEU43       0.0001
      8  CD2       11.6710  164.0020  388.3640 C.3    43  LEU43       0.0001
      9  N         11.6930  159.4990  391.2610 N.am   44  GLY44      -0.1957
     10  CA        11.2290  158.5840  392.2950 C.3    44  GLY44       0.1869
     11  C         11.7790  157.1850  392.1200 C.2    44  GLY44       0.2309
     12  O         12.5390  156.9140  391.1830 O.2    44  GLY44      -0.2863
     13  N         11.6580  155.8780  388.3370 N.3    51  VAL51      -0.1245
     14  CA        11.0900  156.9240  387.4870 C.3    51  VAL51       0.1561
     15  C         12.1050  158.0500  387.2690 C.2    51  VAL51       0.2260
     16  O         12.6870  158.5510  388.2290 O.2    51  VAL51      -0.2867
     17  CB         9.7190  157.4300  388.0220 C.3    51  VAL51       0.0252
     18  CG1        9.1880  158.6100  387.2170 C.3    51  VAL51       0.0019
     19  CG2        8.6870  156.3050  388.0500 C.3    51  VAL51       0.0019
     20  N          4.5570  167.7270  389.0330 N.3   116  ASN116     -0.1225
     21  CA         3.9270  167.4420  390.3190 C.3   116  ASN116      0.1785
     22  C          4.2810  168.4420  391.4240 C.2   116  ASN116      0.2597
     23  O          5.4060  168.9410  391.4820 O.2   116  ASN116     -0.2718
     24  CB         4.2160  165.9980  390.7700 C.3   116  ASN116      0.1169
     25  CG         3.5910  165.6150  392.0980 C.2   116  ASN116      0.2627
     26  OD1        4.2900  165.3030  393.0690 O.2   116  ASN116     -0.2716
     27  ND2        2.2670  165.7190  392.2040 N.am  116  ASN116     -0.0877
     28  N          3.2970  168.7210  392.2930 N.am  117  THR117     -0.1953
     29  CA         3.4030  169.5760  393.4730 C.3   117  THR117      0.1897
     30  C          3.5020  168.6230  394.6840 C.2   117  THR117      0.2313
     31  O          2.9390  167.5240  394.6320 O.2   117  THR117     -0.2863
     32  CB         2.2020  170.5560  393.5460 C.3   117  THR117      0.1794
     33  OG1        1.8180  170.9860  392.2310 O.3   117  THR117     -0.2208
     34  CG2        2.4930  171.7770  394.4190 C.3   117  THR117      0.0378
     35  N          2.9270  166.7220  398.2130 N.3   119  PHE119     -0.1241
     36  CA         1.7870  166.3000  399.0360 C.3   119  PHE119      0.1605
     37  C          1.7000  167.0260  400.3810 C.2   119  PHE119      0.2264
     38  O          0.6100  167.4610  400.7550 O.2   119  PHE119     -0.2867
     39  CB         1.7530  164.7670  399.2190 C.3   119  PHE119      0.0534
     40  CG         2.9190  164.1210  399.9380 C.ar  119  PHE119     -0.0203
     41  CD1        4.1340  163.9160  399.2890 C.ar  119  PHE119     -0.0042
     42  CD2        2.7760  163.6410  401.2340 C.ar  119  PHE119     -0.0042
     43  CE1        5.2030  163.2910  399.9450 C.ar  119  PHE119     -0.0003
     44  CE2        3.8440  163.0100  401.8870 C.ar  119  PHE119     -0.0003
     45  CZ         5.0500  162.8400  401.2380 C.ar  119  PHE119     -0.0000
     46  N          1.0910  170.8410  399.6800 N.3   122  LEU122     -0.1231
     47  CA        -0.2820  171.0430  399.2110 C.3   122  LEU122      0.1693
     48  C         -1.2810  170.8840  400.3680 C.2   122  LEU122      0.2592
     49  O         -2.2270  171.6650  400.4690 O.2   122  LEU122     -0.2718
     50  CB        -0.6000  170.0600  398.0640 C.3   122  LEU122      0.0284
     51  CG        -1.4720  170.5820  396.9170 C.3   122  LEU122      0.0019
     52  CD1       -0.8210  171.7460  396.1970 C.3   122  LEU122      0.0001
     53  CD2       -1.7530  169.4970  395.9170 C.3   122  LEU122      0.0001
     54  N         -1.0240  169.9000  401.2600 N.am  123  TYR123     -0.1976
     55  CA        -1.8020  169.5250  402.4520 C.3   123  TYR123      0.1639
     56  C         -2.3420  170.6960  403.2840 C.2   123  TYR123      0.2290
     57  O         -3.5100  170.6760  403.6790 O.2   123  TYR123     -0.2864
     58  CB        -0.9480  168.6160  403.3550 C.3   123  TYR123      0.0560
     59  CG        -1.7350  167.5690  404.1080 C.ar  123  TYR123     -0.0198
     60  CD1       -2.2050  166.4270  403.4670 C.ar  123  TYR123     -0.0009
     61  CD2       -1.9690  167.6930  405.4750 C.ar  123  TYR123     -0.0009
     62  CE1       -2.9200  165.4520  404.1580 C.ar  123  TYR123      0.0417
     63  CE2       -2.6780  166.7200  406.1780 C.ar  123  TYR123      0.0417
     64  CZ        -3.1570  165.6030  405.5120 C.ar  123  TYR123      0.1957
     65  OH        -3.8460  164.6240  406.1830 O.3   123  TYR123     -0.2866
     66  N         -4.3650  173.6460  400.6820 N.3   126  LEU126     -0.1245
     67  CA        -5.6360  173.2540  400.0620 C.3   126  LEU126      0.1561
     68  C         -6.8590  173.7160  400.8300 C.2   126  LEU126      0.2260
     69  O         -6.9690  173.5010  402.0410 O.2   126  LEU126     -0.2867
     70  CB        -5.7380  171.7470  399.7780 C.3   126  LEU126      0.0270
     71  CG        -4.8740  171.1510  398.6570 C.3   126  LEU126      0.0019
     72  CD1       -5.2750  169.7540  398.3970 C.3   126  LEU126      0.0001
     73  CD2       -4.9580  171.9490  397.3570 C.3   126  LEU126      0.0001
     74  N        -10.2610  170.4840  397.5510 N.3   131  ILE131     -0.1245
     75  CA       -10.5240  169.0840  397.8880 C.3   131  ILE131      0.1561
     76  C        -11.6750  168.5610  397.0350 C.2   131  ILE131      0.2260
     77  O        -11.5050  167.5280  396.3950 O.2   131  ILE131     -0.2867
     78  CB       -10.7240  168.8540  399.4080 C.3   131  ILE131      0.0252
     79  CG1       -9.4520  169.2730  400.2070 C.3   131  ILE131      0.0019
     80  CG2      -11.1110  167.3900  399.7010 C.3   131  ILE131      0.0019
     81  CD1       -9.6050  169.3100  401.7380 C.3   131  ILE131      0.0001
     82  N        -10.4760  168.3590  393.1820 N.3   134  TYR134     -0.1227
     83  CA        -9.5910  167.2370  392.8520 C.3   134  TYR134      0.1736
     84  C        -10.2480  165.8690  393.1120 C.2   134  TYR134      0.2595
     85  O         -9.9870  164.9250  392.3630 O.2   134  TYR134     -0.2718
     86  CB        -8.2450  167.3890  393.5370 C.3   134  TYR134      0.0548
     87  CG        -7.3870  168.5260  393.0120 C.ar  134  TYR134     -0.0200
     88  CD1       -6.9260  168.5280  391.7000 C.ar  134  TYR134     -0.0009
     89  CD2       -6.9550  169.5490  393.8580 C.ar  134  TYR134     -0.0009
     90  CE1       -6.1260  169.5600  391.2150 C.ar  134  TYR134      0.0417
     91  CE2       -6.1340  170.5760  393.3910 C.ar  134  TYR134      0.0417
     92  CZ        -5.7160  170.5720  392.0680 C.ar  134  TYR134      0.1957
     93  OH        -4.8950  171.5610  391.5890 O.3   134  TYR134     -0.2866
     94  N        -11.1520  165.7710  394.1170 N.am  135  MET135     -0.1979
     95  CA       -11.9010  164.5260  394.3410 C.3   135  MET135      0.1605
     96  C        -12.7690  164.2430  393.1010 C.2   135  MET135      0.2287
     97  O        -12.8500  163.1030  392.6280 O.2   135  MET135     -0.2864
     98  CB       -12.7780  164.6290  395.5900 C.3   135  MET135      0.0413
     99  CG       -12.0330  164.3820  396.8720 C.3   135  MET135      0.0598
    100  SD       -11.4580  162.6840  397.0750 S.3   135  MET135     -0.1393
    101  CE       -13.0260  161.8630  397.2880 C.3   135  MET135      0.0692
    102  N        -10.5130  162.8340  390.2670 N.3   138  ILE138     -0.1245
    103  CA       -10.1830  161.4080  390.4680 C.3   138  ILE138      0.1561
    104  C        -11.4070  160.5560  390.1110 C.2   138  ILE138      0.2260
    105  O        -11.2770  159.4850  389.5030 O.2   138  ILE138     -0.2867
    106  CB        -9.7000  161.1240  391.9220 C.3   138  ILE138      0.0252
    107  CG1       -8.4410  161.9440  392.2520 C.3   138  ILE138      0.0019
    108  CG2       -9.4210  159.6390  392.1120 C.3   138  ILE138      0.0019
    109  CD1       -8.1160  162.0220  393.8370 C.3   138  ILE138      0.0001
    110  N         -2.6260  158.6480  397.6250 N.3   157  PRO157     -0.2102
    111  CA        -2.0470  159.9470  397.2340 C.3   157  PRO157      0.1504
    112  C         -0.7900  159.8500  396.3850 C.2   157  PRO157      0.2575
    113  O         -0.6560  160.6270  395.4610 O.2   157  PRO157     -0.2718
    114  CB        -1.7930  160.6380  398.5910 C.3   157  PRO157      0.0282
    115  CG        -2.8680  160.0620  399.4790 C.3   157  PRO157      0.0208
    116  CD        -2.8700  158.6080  399.0940 C.3   157  PRO157      0.0893
    117  N          0.0850  158.8660  396.6390 N.am  158  HIS158     -0.1976
    118  CA         1.3060  158.6940  395.8560 C.3   158  HIS158      0.1656
    119  C          0.9900  158.3830  394.3970 C.2   158  HIS158      0.2291
    120  O          1.8130  158.6650  393.5450 O.2   158  HIS158     -0.2864
    121  CB         2.1790  157.5970  396.4610 C.3   158  HIS158      0.0771
    122  CG         3.5050  157.4380  395.8010 C.ar  158  HIS158      0.0820
    123  ND1        4.5060  158.3970  395.9290 N.ar  158  HIS158     -0.2267
    124  CD2        3.9670  156.4210  395.0350 C.ar  158  HIS158      0.1154
    125  CE1        5.5350  157.9330  395.2380 C.ar  158  HIS158      0.1986
    126  NE2        5.2610  156.7390  394.6950 N.ar  158  HIS158     -0.2212
    127  N         -1.4920  159.7120  392.6670 N.3   160  VAL160     -0.1231
    128  CA        -2.2380  160.8240  392.0990 C.3   160  VAL160      0.1692
    129  C         -1.2490  161.9730  391.8930 C.2   160  VAL160      0.2592
    130  O         -0.7420  162.5300  392.8690 O.2   160  VAL160     -0.2718
    131  CB        -3.4700  161.2340  392.9480 C.3   160  VAL160      0.0266
    132  CG1       -4.1300  162.5010  392.3840 C.3   160  VAL160      0.0020
    133  CG2       -4.4870  160.0870  393.0690 C.3   160  VAL160      0.0020
    134  N         -0.9540  162.3080  390.6370 N.am  161  MET161     -0.1965
    135  CA        -0.0550  163.4380  390.3660 C.3   161  MET161      0.1736
    136  C         -0.8790  164.6990  390.1120 C.2   161  MET161      0.2616
    137  O         -1.8250  164.6740  389.3210 O.2   161  MET161     -0.2715
    138  CB         0.8640  163.1740  389.1760 C.3   161  MET161      0.0427
    139  CG         1.9770  162.2160  389.4940 C.3   161  MET161      0.0599
    140  SD         2.9580  161.9970  388.0010 S.3   161  MET161     -0.1393
    141  CE         4.4000  161.2190  388.6730 C.3   161  MET161      0.0692
    142  N         -0.4990  165.8070  390.7490 N.am  162  ILE162     -0.1977
    143  CA        -1.2160  167.0630  390.5880 C.3   162  ILE162      0.1596
    144  C         -0.2620  168.2020  390.2240 C.2   162  ILE162      0.2287
    145  O          0.7710  168.3710  390.8620 O.2   162  ILE162     -0.2864
    146  CB        -2.0380  167.3780  391.8840 C.3   162  ILE162      0.0276
    147  CG1       -3.3100  166.5080  391.9670 C.3   162  ILE162      0.0022
    148  CG2       -2.3920  168.8820  392.0150 C.3   162  ILE162      0.0022
    149  CD1       -3.9740  166.4600  393.3810 C.3   162  ILE162      0.0001
    150  N         -1.9570  157.6770  388.2070 N.3   172  ILE172     -0.1245
    151  CA        -0.8220  156.9240  387.6810 C.3   172  ILE172      0.1561
    152  C         -0.6140  155.5530  388.3190 C.2   172  ILE172      0.2260
    153  O         -1.4480  155.0770  389.0830 O.2   172  ILE172     -0.2867
    154  CB         0.4820  157.7240  387.8670 C.3   172  ILE172      0.0252
    155  CG1        0.8050  157.8730  389.3540 C.3   172  ILE172      0.0019
    156  CG2        0.3600  159.0960  387.2270 C.3   172  ILE172      0.0019
    157  CD1        2.2290  158.2960  389.6350 C.3   172  ILE172      0.0001
    158  N         -8.5830  158.2940  401.2200 N.3   219  MET219     -0.1245
    159  CA        -7.8850  159.5260  400.8320 C.3   219  MET219      0.1570
    160  C         -8.6780  160.7440  401.2530 C.2   219  MET219      0.2261
    161  O         -8.0970  161.7040  401.7800 O.2   219  MET219     -0.2867
    162  CB        -7.6950  159.5880  399.3120 C.3   219  MET219      0.0387
    163  CG        -6.6610  158.6320  398.8380 C.3   219  MET219      0.0595
    164  SD        -6.3980  158.8520  397.0810 S.3   219  MET219     -0.1393
    165  CE        -6.0010  160.5150  396.9880 C.3   219  MET219      0.0692
    166  N         -7.6660  163.8450  403.8970 N.3   223  MET223     -0.1245
    167  CA        -7.6610  165.2340  403.4440 C.3   223  MET223      0.1570
    168  C         -8.5270  166.1590  404.3040 C.2   223  MET223      0.2261
    169  O         -8.0210  167.1660  404.7990 O.2   223  MET223     -0.2867
    170  CB        -8.0390  165.3440  401.9560 C.3   223  MET223      0.0387
    171  CG        -7.0280  164.7090  401.0130 C.3   223  MET223      0.0595
    172  SD        -5.3190  165.1940  401.3310 S.3   223  MET223     -0.1393
    173  CE        -4.5940  163.5770  401.6950 C.3   223  MET223      0.0692
@<TRIPOS>BOND
     1     7     6    1
     2    18    17    1
     3   156   154    1
     4    15    14    1
     5    15    16    2
     6    14    17    1
     7    14    13    1
     8   151   154    1
     9   151   150    1
    10   151   152    1
    11   154   155    1
    12     6     8    1
    13     6     5    1
    14   140   141    1
    15   140   139    1
    16    17    19    1
    17   152   153    2
    18    20    21    1
    19   138   139    1
    20   138   135    1
    21     5     2    1
    22   137   136    2
    23   155   157    1
    24   105   104    2
    25     1     2    1
    26   104   103    1
    27   136   135    1
    28   136   142   am
    29     2     3    1
    30   144   143    1
    31   144   145    2
    32   102   103    1
    33    21    24    1
    34    21    22    1
    35   135   134    1
    36   103   106    1
    37   143   142    1
    38   143   146    1
    39   134   129   am
    40    24    25    1
    41    12    11    2
    42    90    88   ar
    43    90    92   ar
    44     9     3   am
    45     9    10    1
    46    22    23    2
    47    22    28   am
    48     3     4    2
    49    93    92    1
    50    88    87   ar
    51   146   147    1
    52   146   148    1
    53   129   128    1
    54   129   130    2
    55   106   108    1
    56   106   107    1
    57   147   149    1
    58    92    91   ar
    59    25    27   am
    60    25    26    2
    61   128   127    1
    62   128   131    1
    63    11    10    1
    64    33    32    1
    65   107   109    1
    66    28    29    1
    67    85    84    2
    68   132   131    1
    69    97    96    2
    70    83    84    1
    71    83    82    1
    72    83    86    1
    73   131   133    1
    74    87    86    1
    75    87    89   ar
    76    96    95    1
    77    84    94   am
    78    91    89   ar
    79    29    32    1
    80    29    30    1
    81   120   119    2
    82    32    34    1
    83    94    95    1
    84    95    98    1
    85   119   118    1
    86    31    30    2
    87   126   124   ar
    88   126   125   ar
    89   124   122   ar
    90   125   123   ar
    91   113   112    2
    92    98    99    1
    93   122   123   ar
    94   122   121    1
    95   118   121    1
    96   118   117    1
    97    53    51    1
    98    52    51    1
    99   112   117   am
   100   112   111    1
   101    77    76    2
   102    99   100    1
   103    51    50    1
   104   165   164    1
   105    76    75    1
   106   100   101    1
   107   164   163    1
   108   111   110    1
   109   111   114    1
   110    73    71    1
   111    74    75    1
   112   110   116    1
   113    75    78    1
   114    50    47    1
   115    35    36    1
   116    72    71    1
   117   114   115    1
   118    71    70    1
   119   163   162    1
   120    36    39    1
   121    36    37    1
   122   116   115    1
   123    47    46    1
   124    47    48    1
   125    39    40    1
   126    41    40   ar
   127    41    43   ar
   128   162   159    1
   129    78    80    1
   130    78    79    1
   131    70    67    1
   132    40    42   ar
   133    43    45   ar
   134    67    66    1
   135    67    68    1
   136    79    81    1
   137    48    49    2
   138    48    54   am
   139    37    38    2
   140    68    69    2
   141   159   158    1
   142   159   160    1
   143   171   172    1
   144   171   170    1
   145    42    44   ar
   146    45    44   ar
   147   160   161    2
   148    54    55    1
   149   172   173    1
   150   170   167    1
   151    55    56    1
   152    55    58    1
   153    56    57    2
   154    58    59    1
   155   167   166    1
   156   167   168    1
   157    60    59   ar
   158    60    62   ar
   159    59    61   ar
   160    62    64   ar
   161   168   169    2
   162    61    63   ar
   163    64    63   ar
   164    64    65    1
