@<TRIPOS>MOLECULE
tmp/5ov3B01.pdb
 101 99 0 0 0
SMALL
GASTEIGER

@<TRIPOS>ATOM
      1  N          4.6170   12.9460   11.9090 N.3   249  TYR249     -0.1241
      2  CA         5.4150   13.7900   11.0420 C.3   249  TYR249      0.1605
      3  C          6.5070   12.9710   10.3730 C.2   249  TYR249      0.2264
      4  O          6.8600   11.8760   10.8150 O.2   249  TYR249     -0.2867
      5  CB         6.0810   14.9550   11.7870 C.3   249  TYR249      0.0534
      6  CG         5.1300   15.8910   12.4530 C.ar  249  TYR249     -0.0201
      7  CD1        4.5250   16.9230   11.7410 C.ar  249  TYR249     -0.0009
      8  CD2        4.8340   15.7550   13.8110 C.ar  249  TYR249     -0.0009
      9  CE1        3.6420   17.7910   12.3570 C.ar  249  TYR249      0.0417
     10  CE2        3.9660   16.6120   14.4390 C.ar  249  TYR249      0.0417
     11  CZ         3.3700   17.6300   13.7170 C.ar  249  TYR249      0.1957
     12  OH         2.4950   18.4740   14.3700 O.3   249  TYR249     -0.2866
     13  N          9.6370   19.1120    6.7490 N.3   262  ILE262     -0.1245
     14  CA         8.8160   18.4260    7.7360 C.3   262  ILE262      0.1561
     15  C          7.3620   18.4690    7.2900 C.2   262  ILE262      0.2260
     16  O          6.7890   19.5550    7.1430 O.2   262  ILE262     -0.2867
     17  CB         8.9700   19.0550    9.1340 C.3   262  ILE262      0.0252
     18  CG1       10.4340   19.0010    9.5820 C.3   262  ILE262      0.0019
     19  CG2        8.0340   18.3770   10.1360 C.3   262  ILE262      0.0019
     20  CD1       10.6690   19.5700   10.9830 C.3   262  ILE262      0.0001
     21  N          4.8480   21.5770    6.8050 N.3   271  VAL271     -0.1231
     22  CA         4.5640   22.5520    7.8420 C.3   271  VAL271      0.1692
     23  C          5.7520   23.4580    8.1200 C.2   271  VAL271      0.2591
     24  O          5.5620   24.6180    8.4950 O.2   271  VAL271     -0.2718
     25  CB         4.0740   21.8440    9.1100 C.3   271  VAL271      0.0266
     26  CG1        2.8270   21.0890    8.7600 C.3   271  VAL271      0.0020
     27  CG2        5.1180   20.8960    9.6240 C.3   271  VAL271      0.0020
     28  N          6.9760   22.9690    7.9210 N.am  272  LYS272     -0.1980
     29  CA         8.1100   23.8720    8.0820 C.3   272  LYS272      0.1596
     30  C          9.3430   23.3160    7.4020 C.2   272  LYS272      0.2287
     31  O          9.4050   22.1400    7.0340 O.2   272  LYS272     -0.2864
     32  CB         8.4180   24.1670    9.5590 C.3   272  LYS272      0.0298
     33  CG         8.8230   23.0000   10.3960 C.3   272  LYS272      0.0038
     34  CD         8.8890   23.4370   11.8820 C.3   272  LYS272      0.0206
     35  CE         9.4100   22.3320   12.7950 C.3   272  LYS272      0.1093
     36  NZ         9.3390   22.7100   14.2270 N.3   272  LYS272     -0.1314
     37  N         13.6410   23.6050    8.0360 N.3   274  LEU274     -0.1245
     38  CA        14.7770   24.0460    8.8330 C.3   274  LEU274      0.1561
     39  C         15.9650   24.2530    7.8990 C.2   274  LEU274      0.2260
     40  O         16.4290   23.3060    7.2570 O.2   274  LEU274     -0.2867
     41  CB        15.0960   23.0320    9.9370 C.3   274  LEU274      0.0270
     42  CG        13.9140   22.7240   10.8850 C.3   274  LEU274      0.0019
     43  CD1       14.1120   21.4370   11.6880 C.3   274  LEU274      0.0001
     44  CD2       13.6540   23.9030   11.8080 C.3   274  LEU274      0.0001
     45  N         15.1070   11.6790   14.0190 N.3   287  TRP287     -0.1241
     46  CA        14.0830   12.2950   14.8360 C.3   287  TRP287      0.1605
     47  C         14.1090   11.6170   16.2000 C.2   287  TRP287      0.2264
     48  O         14.1760   10.3830   16.2860 O.2   287  TRP287     -0.2867
     49  CB        12.7090   12.1910   14.1690 C.3   287  TRP287      0.0550
     50  CG        11.7270   13.1890   14.7240 C.ar  287  TRP287      0.0003
     51  CD1       11.4580   13.4000   16.0420 C.ar  287  TRP287      0.0946
     52  CD2       10.8980   14.1090   14.0000 C.ar  287  TRP287      0.0152
     53  NE1       10.5160   14.3860   16.1870 N.ar  287  TRP287     -0.2442
     54  CE2       10.1480   14.8330   14.9520 C.ar  287  TRP287      0.0810
     55  CE3       10.6910   14.3700   12.6490 C.ar  287  TRP287      0.0012
     56  CZ2        9.2200   15.8030   14.5970 C.ar  287  TRP287      0.0191
     57  CZ3        9.7750   15.3400   12.3000 C.ar  287  TRP287      0.0001
     58  CH2        9.0500   16.0420   13.2680 C.ar  287  TRP287      0.0015
     59  N         10.0090   16.5580   20.4330 N.3   292  PRO292     -0.2116
     60  CA        10.1970   17.3450   19.1970 C.3   292  PRO292      0.1372
     61  C         11.6380   17.8220   19.0810 C.2   292  PRO292      0.2244
     62  O         11.9810   19.0070   19.2170 O.2   292  PRO292     -0.2868
     63  CB         9.1990   18.4890   19.3800 C.3   292  PRO292      0.0268
     64  CG         9.0830   18.6560   20.8790 C.3   292  PRO292      0.0207
     65  CD         9.4810   17.3770   21.5360 C.3   292  PRO292      0.0892
     66  N         15.2290   17.1070   16.6310 N.3   294  ILE294     -0.1245
     67  CA        15.8930   16.5180   15.4780 C.3   294  ILE294      0.1561
     68  C         17.3960   16.7310   15.6250 C.2   294  ILE294      0.2260
     69  O         17.8490   17.8480   15.8930 O.2   294  ILE294     -0.2867
     70  CB        15.3470   17.1210   14.1700 C.3   294  ILE294      0.0252
     71  CG1       13.8180   16.9870   14.1740 C.3   294  ILE294      0.0019
     72  CG2       15.9670   16.4430   12.9680 C.3   294  ILE294      0.0019
     73  CD1       13.1400   17.4050   12.9530 C.3   294  ILE294      0.0001
     74  N         18.1960   20.3040   16.8840 N.3   305  TRP305     -0.1227
     75  CA        17.0980   21.2420   16.7270 C.3   305  TRP305      0.1737
     76  C         16.0260   20.8270   17.7160 C.2   305  TRP305      0.2595
     77  O         15.5340   19.6900   17.6560 O.2   305  TRP305     -0.2718
     78  CB        16.5200   21.2380   15.3180 C.3   305  TRP305      0.0564
     79  CG        17.5190   21.2710   14.1950 C.ar  305  TRP305      0.0003
     80  CD1       18.3340   20.2430   13.7790 C.ar  305  TRP305      0.0946
     81  CD2       17.7720   22.3680   13.3020 C.ar  305  TRP305      0.0152
     82  NE1       19.0850   20.6490   12.7070 N.ar  305  TRP305     -0.2442
     83  CE2       18.7580   21.9400   12.3860 C.ar  305  TRP305      0.0810
     84  CE3       17.2590   23.6690   13.1900 C.ar  305  TRP305      0.0012
     85  CZ2       19.2360   22.7600   11.3670 C.ar  305  TRP305      0.0191
     86  CZ3       17.7460   24.4880   12.1810 C.ar  305  TRP305      0.0001
     87  CH2       18.7210   24.0280   11.2840 C.ar  305  TRP305      0.0015
     88  N         15.6840   21.7320   18.6330 N.am  306  ALA306     -0.1966
     89  CA        14.7290   21.4280   19.6830 C.3   306  ALA306      0.1728
     90  C         13.6980   22.5390   19.7970 C.2   306  ALA306      0.2616
     91  O         14.0390   23.7270   19.7640 O.2   306  ALA306     -0.2715
     92  CB        15.4320   21.2360   21.0280 C.3   306  ALA306      0.0334
     93  N         12.4360   22.1380   19.9320 N.am  307  GLN307     -0.1977
     94  CA        11.3930   23.0400   20.3940 C.3   307  GLN307      0.1601
     95  C         11.3980   23.0280   21.9140 C.2   307  GLN307      0.2287
     96  O         11.4640   21.9560   22.5220 O.2   307  GLN307     -0.2864
     97  CB        10.0270   22.6160   19.8730 C.3   307  GLN307      0.0394
     98  CG         9.7320   23.1540   18.5220 C.3   307  GLN307      0.0908
     99  CD         8.3720   22.7660   18.0280 C.2   307  GLN307      0.2608
    100  OE1        7.9420   23.1970   16.9580 O.2   307  GLN307     -0.2717
    101  NE2        7.6830   21.9460   18.7930 N.am  307  GLN307     -0.0878
@<TRIPOS>BOND
     1    13    14    1
     2    21    22    1
     3    31    30    2
     4    16    15    2
     5    40    39    2
     6    15    14    1
     7    30    29    1
     8    14    17    1
     9    22    23    1
    10    22    25    1
    11    39    38    1
    12    28    29    1
    13    28    23   am
    14    37    38    1
    15    29    32    1
    16    23    24    2
    17    26    25    1
    18    38    41    1
    19    25    27    1
    20    17    18    1
    21    17    19    1
    22    32    33    1
    23    18    20    1
    24    41    42    1
    25     3     4    2
    26     3     2    1
    27    33    34    1
    28    42    43    1
    29    42    44    1
    30     2     5    1
    31     2     1    1
    32    87    85   ar
    33    87    86   ar
    34    85    83   ar
    35     7     9   ar
    36     7     6   ar
    37     5     6    1
    38    34    35    1
    39    86    84   ar
    40    57    55   ar
    41    57    58   ar
    42     9    11   ar
    43    83    82   ar
    44    83    81   ar
    45     6     8   ar
    46    55    52   ar
    47    82    80   ar
    48    35    36    1
    49    73    71    1
    50    72    70    1
    51    84    81   ar
    52    58    56   ar
    53    81    79   ar
    54    11    12    1
    55    11    10   ar
    56    80    79   ar
    57     8    10   ar
    58    52    50   ar
    59    52    54   ar
    60    45    46    1
    61    49    50    1
    62    49    46    1
    63    70    71    1
    64    70    67    1
    65    79    78    1
    66    56    54   ar
    67    50    51   ar
    68    46    47    1
    69    54    53   ar
    70    78    75    1
    71    67    68    1
    72    67    66    1
    73    68    69    2
    74    51    53   ar
    75    47    48    2
    76    75    74    1
    77    75    76    1
    78   100    99    2
    79    77    76    2
    80    76    88   am
    81    99    98    1
    82    99   101   am
    83    98    97    1
    84    88    89    1
    85    61    60    1
    86    61    62    2
    87    60    63    1
    88    60    59    1
    89    63    64    1
    90    89    90    1
    91    89    92    1
    92    91    90    2
    93    90    93   am
    94    97    94    1
    95    93    94    1
    96    94    95    1
    97    59    65    1
    98    64    65    1
    99    95    96    2
