@<TRIPOS>MOLECULE
tmp/5ov3A00.pdb
 109 106 0 0 0
SMALL
GASTEIGER

@<TRIPOS>ATOM
      1  N         25.3230   27.7830   38.5120 N.3     1  ASP1       -0.1239
      2  CA        26.0110   26.9610   37.5180 C.3     1  ASP1        0.1674
      3  C         25.1870   26.8610   36.2310 C.2     1  ASP1        0.2266
      4  O         25.5410   26.1350   35.2950 O.2     1  ASP1       -0.2867
      5  CB        26.2790   25.5660   38.0790 C.3     1  ASP1        0.1410
      6  CG        27.4070   24.8370   37.3550 C.2     1  ASP1        0.3668
      7  OD1       27.1280   24.1680   36.3300 O.co2   1  ASP1       -0.2456
      8  OD2       28.5660   24.9180   37.8310 O.co2   1  ASP1       -0.2456
      9  N         27.5310    9.2680   47.4920 N.3   248  TYR248     -0.1241
     10  CA        27.7590   10.6360   47.9210 C.3   248  TYR248      0.1605
     11  C         26.5080   11.1620   48.6010 C.2   248  TYR248      0.2264
     12  O         25.4070   10.6370   48.4190 O.2   248  TYR248     -0.2867
     13  CB        28.0900   11.5710   46.7650 C.3   248  TYR248      0.0534
     14  CG        29.2870   11.2250   45.9420 C.ar  248  TYR248     -0.0201
     15  CD1       29.1790   10.3700   44.8550 C.ar  248  TYR248     -0.0009
     16  CD2       30.5200   11.7910   46.2150 C.ar  248  TYR248     -0.0009
     17  CE1       30.2680   10.0750   44.0870 C.ar  248  TYR248      0.0417
     18  CE2       31.6130   11.5010   45.4500 C.ar  248  TYR248      0.0417
     19  CZ        31.4840   10.6470   44.3830 C.ar  248  TYR248      0.1957
     20  OH        32.5810   10.3480   43.6090 O.3   248  TYR248     -0.2866
     21  N         29.2470   18.3240   49.7390 N.3   261  ILE261     -0.1245
     22  CA        29.1690   16.9950   49.1570 C.3   261  ILE261      0.1561
     23  C         30.2920   16.1470   49.7260 C.2   261  ILE261      0.2260
     24  O         31.4700   16.4340   49.4870 O.2   261  ILE261     -0.2867
     25  CB        29.2460   17.0380   47.6250 C.3   261  ILE261      0.0252
     26  CG1       28.0460   17.8080   47.0720 C.3   261  ILE261      0.0019
     27  CG2       29.3410   15.6150   47.0710 C.3   261  ILE261      0.0019
     28  CD1       28.2120   18.2640   45.6420 C.3   261  ILE261      0.0001
     29  N         34.1060   16.2870   49.7270 N.3   270  VAL270     -0.1231
     30  CA        34.6190   16.2540   48.3630 C.3   270  VAL270      0.1692
     31  C         34.5960   17.6340   47.7320 C.2   270  VAL270      0.2591
     32  O         35.5720   18.0490   47.1050 O.2   270  VAL270     -0.2718
     33  CB        33.8300   15.2250   47.5290 C.3   270  VAL270      0.0266
     34  CG1       34.0760   15.4190   46.0570 C.3   270  VAL270      0.0020
     35  CG2       34.2380   13.8470   47.9420 C.3   270  VAL270      0.0020
     36  N         33.5060   18.3790   47.9020 N.am  271  LYS271     -0.1980
     37  CA        33.4540   19.7210   47.3420 C.3   271  LYS271      0.1596
     38  C         32.2620   20.4720   47.9000 C.2   271  LYS271      0.2287
     39  O         31.3540   19.8910   48.5020 O.2   271  LYS271     -0.2864
     40  CB        33.3920   19.7100   45.8110 C.3   271  LYS271      0.0298
     41  CG        32.1220   19.1920   45.1840 C.3   271  LYS271      0.0038
     42  CD        32.3310   19.1090   43.6770 C.3   271  LYS271      0.0206
     43  CE        31.0700   18.6900   42.9470 C.3   271  LYS271      0.1093
     44  NZ        31.3660   17.7130   41.8480 N.3   271  LYS271     -0.1314
     45  N         29.6110   23.6140   46.6210 N.3   273  LEU273     -0.1245
     46  CA        29.1040   24.4790   45.5730 C.3   273  LEU273      0.1561
     47  C         28.5360   25.7450   46.2070 C.2   273  LEU273      0.2260
     48  O         27.6930   25.6690   47.1000 O.2   273  LEU273     -0.2867
     49  CB        28.0520   23.7300   44.7530 C.3   273  LEU273      0.0270
     50  CG        28.5840   22.3950   44.1990 C.3   273  LEU273      0.0019
     51  CD1       27.4650   21.3980   43.9150 C.3   273  LEU273      0.0001
     52  CD2       29.4100   22.6220   42.9430 C.3   273  LEU273      0.0001
     53  N         19.1420   15.4990   44.1090 N.3   286  TRP286     -0.1241
     54  CA        20.2060   14.8900   43.3350 C.3   286  TRP286      0.1605
     55  C         19.5700   14.0290   42.2520 C.2   286  TRP286      0.2264
     56  O         18.5880   13.3200   42.5070 O.2   286  TRP286     -0.2867
     57  CB        21.1300   14.0490   44.2300 C.3   286  TRP286      0.0550
     58  CG        22.4650   13.7270   43.5980 C.ar  286  TRP286      0.0003
     59  CD1       22.6850   13.1720   42.3560 C.ar  286  TRP286      0.0946
     60  CD2       23.7580   13.9360   44.1750 C.ar  286  TRP286      0.0152
     61  NE1       24.0370   13.0400   42.1300 N.ar  286  TRP286     -0.2442
     62  CE2       24.7150   13.4980   43.2320 C.ar  286  TRP286      0.0810
     63  CE3       24.2020   14.4450   45.3930 C.ar  286  TRP286      0.0012
     64  CZ2       26.0890   13.5580   43.4820 C.ar  286  TRP286      0.0191
     65  CZ3       25.5570   14.5020   45.6330 C.ar  286  TRP286      0.0001
     66  CH2       26.4850   14.0680   44.6810 C.ar  286  TRP286      0.0015
     67  N         25.4260   12.7160   37.6260 N.3   291  PRO291     -0.2116
     68  CA        26.0210   13.7110   38.5360 C.3   291  PRO291      0.1372
     69  C         25.4700   15.1100   38.3120 C.2   291  PRO291      0.2244
     70  O         26.2050   16.0540   38.0020 O.2   291  PRO291     -0.2868
     71  CB        27.5130   13.6440   38.2080 C.3   291  PRO291      0.0268
     72  CG        27.5480   13.1100   36.7850 C.3   291  PRO291      0.0207
     73  CD        26.4000   12.1630   36.6650 C.3   291  PRO291      0.0892
     74  N         22.6700   17.9740   40.1290 N.3   293  ILE293     -0.1245
     75  CA        22.0090   18.3730   41.3650 C.3   293  ILE293      0.1561
     76  C         21.1340   19.5880   41.0740 C.2   293  ILE293      0.2260
     77  O         21.5690   20.5250   40.3890 O.2   293  ILE293     -0.2867
     78  CB        23.0350   18.6880   42.4730 C.3   293  ILE293      0.0252
     79  CG1       23.7970   17.4220   42.8770 C.3   293  ILE293      0.0019
     80  CG2       22.3660   19.2850   43.6750 C.3   293  ILE293      0.0019
     81  CD1       24.8360   17.6440   43.9290 C.3   293  ILE293      0.0001
     82  N         23.2550   22.0850   38.6170 N.3   304  TRP304     -0.1227
     83  CA        24.7010   21.9290   38.6910 C.3   304  TRP304      0.1737
     84  C         25.0460   20.5920   38.0600 C.2   304  TRP304      0.2595
     85  O         24.5470   19.5520   38.4920 O.2   304  TRP304     -0.2718
     86  CB        25.2110   21.9820   40.1310 C.3   304  TRP304      0.0564
     87  CG        24.6760   23.1090   40.9690 C.ar  304  TRP304      0.0003
     88  CD1       23.4130   23.2260   41.4790 C.ar  304  TRP304      0.0946
     89  CD2       25.4010   24.2520   41.4290 C.ar  304  TRP304      0.0152
     90  NE1       23.3020   24.3830   42.2080 N.ar  304  TRP304     -0.2442
     91  CE2       24.5080   25.0320   42.1940 C.ar  304  TRP304      0.0810
     92  CE3       26.7170   24.6970   41.2650 C.ar  304  TRP304      0.0012
     93  CZ2       24.8860   26.2290   42.7940 C.ar  304  TRP304      0.0191
     94  CZ3       27.0920   25.8970   41.8550 C.ar  304  TRP304      0.0001
     95  CH2       26.1780   26.6460   42.6150 C.ar  304  TRP304      0.0015
     96  N         25.8750   20.6090   37.0300 N.am  305  ALA305     -0.1966
     97  CA        26.1640   19.3780   36.3190 C.3   305  ALA305      0.1728
     98  C         27.6610   19.2000   36.1670 C.2   305  ALA305      0.2616
     99  O         28.4520   20.1250   36.3490 O.2   305  ALA305     -0.2715
    100  CB        25.4790   19.3340   34.9520 C.3   305  ALA305      0.0334
    101  N         28.0290   17.9740   35.8330 N.am  306  GLN306     -0.1977
    102  CA        29.4200   17.5690   35.7380 C.3   306  GLN306      0.1601
    103  C         29.5390   16.6790   34.5150 C.2   306  GLN306      0.2287
    104  O         28.9190   15.6110   34.4630 O.2   306  GLN306     -0.2864
    105  CB        29.8440   16.8520   37.0220 C.3   306  GLN306      0.0394
    106  CG        30.9860   15.8680   36.9400 C.3   306  GLN306      0.0908
    107  CD        31.5490   15.5790   38.3300 C.2   306  GLN306      0.2608
    108  OE1       31.7860   16.5050   39.1080 O.2   306  GLN306     -0.2717
    109  NE2       31.7250   14.2990   38.6630 N.am  306  GLN306     -0.0878
@<TRIPOS>BOND
     1   104   103    2
     2   103   102    1
     3   100    97    1
     4     4     3    2
     5   102   101    1
     6   102   105    1
     7   101    98   am
     8    98    97    1
     9    98    99    2
    10     3     2    1
    11    97    96    1
    12     7     6   ar
    13    73    72    1
    14    73    67    1
    15    72    71    1
    16   106   105    1
    17   106   107    1
    18    96    84   am
    19     6     8   ar
    20     6     5    1
    21     2     5    1
    22     2     1    1
    23    67    68    1
    24    70    69    2
    25    84    85    2
    26    84    83    1
    27    71    68    1
    28    69    68    1
    29   107   109   am
    30   107   108    2
    31    82    83    1
    32    83    86    1
    33    74    75    1
    34    86    87    1
    35    77    76    2
    36    87    89   ar
    37    87    88   ar
    38    76    75    1
    39    92    89   ar
    40    92    94   ar
    41    75    78    1
    42    89    91   ar
    43    88    90   ar
    44    44    43    1
    45    94    95   ar
    46    61    59   ar
    47    61    62   ar
    48    91    90   ar
    49    91    93   ar
    50    55    56    2
    51    55    54    1
    52    59    58   ar
    53    78    79    1
    54    78    80    1
    55    95    93   ar
    56    79    81    1
    57    52    50    1
    58    43    42    1
    59    62    64   ar
    60    62    60   ar
    61    54    53    1
    62    54    57    1
    63    64    66   ar
    64    58    60   ar
    65    58    57    1
    66    20    19    1
    67    42    41    1
    68    51    50    1
    69    17    19   ar
    70    17    15   ar
    71    60    63   ar
    72    50    49    1
    73    19    18   ar
    74    66    65   ar
    75    49    46    1
    76    15    14   ar
    77    41    40    1
    78    63    65   ar
    79    18    16   ar
    80    46    47    1
    81    46    45    1
    82    28    26    1
    83    40    37    1
    84    14    16   ar
    85    14    13    1
    86    34    33    1
    87    47    48    2
    88    13    10    1
    89    27    25    1
    90    26    25    1
    91    32    31    2
    92    37    38    1
    93    37    36    1
    94     9    10    1
    95    33    35    1
    96    33    30    1
    97    25    22    1
    98    31    36   am
    99    31    30    1
   100    38    39    2
   101    10    11    1
   102    30    29    1
   103    12    11    2
   104    22    23    1
   105    22    21    1
   106    24    23    2
