@<TRIPOS>MOLECULE
tmp/5ov5A00.pdb
 193 177 0 0 0
SMALL
GASTEIGER

@<TRIPOS>ATOM
      1  N         -6.1550   -5.5890   -5.9020 N.3    10  ARG10      -0.1245
      2  CA        -6.3470   -6.8990   -6.5000 C.3    10  ARG10       0.1563
      3  C         -6.3460   -7.9820   -5.4160 C.2    10  ARG10       0.2260
      4  O         -5.7990   -7.8090   -4.3220 O.2    10  ARG10      -0.2867
      5  CB        -5.2490   -7.1660   -7.5330 C.3    10  ARG10       0.0307
      6  CG        -5.4550   -8.4030   -8.4030 C.3    10  ARG10       0.0489
      7  CD        -4.2980   -8.5910   -9.3790 C.3    10  ARG10       0.2205
      8  NE        -4.2340   -7.5050  -10.3570 N.pl3  10  ARG10      -0.0865
      9  CZ        -3.2560   -7.3510  -11.2490 C.cat  10  ARG10       0.5346
     10  NH1       -2.2470   -8.2120  -11.2900 N.pl3  10  ARG10       0.1354
     11  NH2       -3.2830   -6.3330  -12.0990 N.pl3  10  ARG10       0.1354
     12  N          0.3090  -11.4690   -3.8650 N.3    14  LEU14      -0.1245
     13  CA         1.3220  -10.4530   -4.1160 C.3    14  LEU14       0.1561
     14  C          0.7230   -9.0560   -4.0400 C.2    14  LEU14       0.2260
     15  O          1.3120   -8.1580   -3.4300 O.2    14  LEU14      -0.2867
     16  CB         1.9820  -10.6910   -5.4730 C.3    14  LEU14       0.0270
     17  CG         3.1090   -9.7290   -5.8650 C.3    14  LEU14       0.0019
     18  CD1        4.2250   -9.7080   -4.8150 C.3    14  LEU14       0.0001
     19  CD2        3.6680  -10.0790   -7.2400 C.3    14  LEU14       0.0001
     20  N          1.8330   -6.2260   -1.2840 N.3    18  GLN18      -0.1245
     21  CA         2.2920   -4.8860   -1.6520 C.3    18  GLN18       0.1566
     22  C          1.4040   -3.8120   -1.0490 C.2    18  GLN18       0.2260
     23  O          1.9000   -2.7830   -0.5770 O.2    18  GLN18      -0.2867
     24  CB         2.3230   -4.7380   -3.1780 C.3    18  GLN18       0.0367
     25  CG         3.3820   -5.5730   -3.8390 C.3    18  GLN18       0.0905
     26  CD         3.2580   -5.5820   -5.3470 C.2    18  GLN18       0.2608
     27  OE1        2.2570   -5.1380   -5.9130 O.2    18  GLN18      -0.2717
     28  NE2        4.2830   -6.0890   -6.0080 N.am   18  GLN18      -0.0878
     29  N          1.8720   -2.8790   -9.0610 N.3    60  SER60      -0.1217
     30  CA         3.1870   -3.0390   -9.6770 C.3    60  SER60       0.1889
     31  C          3.2950   -2.0720  -10.8450 C.2    60  SER60       0.2288
     32  O          2.4160   -2.0370  -11.7070 O.2    60  SER60      -0.2866
     33  CB         3.3910   -4.4760  -10.1790 C.3    60  SER60       0.2089
     34  OG         3.6410   -5.3630   -9.1000 O.3    60  SER60      -0.2183
     35  N          5.0030   -2.1080  -13.4750 N.3    62  LYS62      -0.1231
     36  CA         4.9840   -2.6580  -14.8270 C.3    62  LYS62       0.1693
     37  C          3.5920   -3.1070  -15.2580 C.2    62  LYS62       0.2591
     38  O          3.3990   -3.4040  -16.4460 O.2    62  LYS62      -0.2718
     39  CB         5.9900   -3.8080  -14.9760 C.3    62  LYS62       0.0285
     40  CG         5.6910   -5.0820  -14.2090 C.3    62  LYS62       0.0035
     41  CD         6.5430   -6.1950  -14.8260 C.3    62  LYS62       0.0206
     42  CE         6.3330   -7.5310  -14.1520 C.3    62  LYS62       0.1093
     43  NZ         7.2070   -8.5500  -14.8240 N.3    62  LYS62      -0.1314
     44  N          2.6230   -3.1340  -14.3420 N.am   63  GLU63      -0.1979
     45  CA         1.2230   -3.4040  -14.6580 C.3    63  GLU63       0.1602
     46  C          0.4100   -2.1440  -14.9010 C.2    63  GLU63       0.2287
     47  O         -0.7570   -2.2530  -15.2930 O.2    63  GLU63      -0.2864
     48  CB         0.5440   -4.1840  -13.5190 C.3    63  GLU63       0.0415
     49  CG         1.1320   -5.5530  -13.2310 C.3    63  GLU63       0.1163
     50  CD         0.6060   -6.6240  -14.1700 C.2    63  GLU63       0.3649
     51  OE1       -0.4780   -6.4170  -14.7690 O.co2  63  GLU63      -0.2457
     52  OE2        1.2680   -7.6750  -14.2970 O.co2  63  GLU63      -0.2457
     53  N          8.0440  -18.8580  -19.6100 N.3   106  THR106     -0.1203
     54  CA         7.6100  -17.4810  -19.4010 C.3   106  THR106      0.1994
     55  C          6.5760  -17.1410  -20.4660 C.2   106  THR106      0.2619
     56  O          6.7380  -17.5120  -21.6340 O.2   106  THR106     -0.2717
     57  CB         8.7860  -16.4890  -19.4580 C.3   106  THR106      0.1784
     58  OG1        8.2750  -15.1610  -19.5580 O.3   106  THR106     -0.2211
     59  CG2        9.6540  -16.7330  -20.6710 C.3   106  THR106      0.0376
     60  N          5.5070  -16.4540  -20.0670 N.am  107  SER107     -0.1937
     61  CA         4.5430  -15.9890  -21.0570 C.3   107  SER107      0.2055
     62  C          4.8940  -14.6220  -21.6190 C.2   107  SER107      0.2643
     63  O          4.1450  -14.1000  -22.4550 O.2   107  SER107     -0.2714
     64  CB         3.1310  -15.9360  -20.4660 C.3   107  SER107      0.2130
     65  OG         3.0130  -14.8610  -19.5440 O.3   107  SER107     -0.2179
     66  N          6.0070  -14.0300  -21.1810 N.am  108  SER108     -0.1949
     67  CA         6.4060  -12.6860  -21.5850 C.3   108  SER108      0.1924
     68  C          7.2230  -12.7360  -22.8740 C.2   108  SER108      0.2314
     69  O          8.3140  -13.3180  -22.8990 O.2   108  SER108     -0.2863
     70  CB         7.2270  -12.0260  -20.4730 C.3   108  SER108      0.2116
     71  OG         7.9110  -10.8820  -20.9650 O.3   108  SER108     -0.2180
     72  N          8.6290  -10.0920  -24.0880 N.3   110  ARG110     -0.1231
     73  CA         9.8100   -9.2980  -23.7530 C.3   110  ARG110      0.1694
     74  C         10.9430  -10.1780  -23.2330 C.2   110  ARG110      0.2591
     75  O         12.1070  -10.0420  -23.6590 O.2   110  ARG110     -0.2718
     76  CB         9.4400   -8.2480  -22.7030 C.3   110  ARG110      0.0321
     77  CG        10.6610   -7.5480  -22.1630 C.3   110  ARG110      0.0489
     78  CD        10.3010   -6.6720  -20.9600 C.3   110  ARG110      0.2205
     79  NE        10.0150   -7.3890  -19.7060 N.pl3 110  ARG110     -0.0865
     80  CZ        10.9210   -7.9970  -18.9250 C.cat 110  ARG110      0.5346
     81  NH1       12.2130   -8.1090  -19.2950 N.pl3 110  ARG110      0.1354
     82  NH2       10.5270   -8.5430  -17.7650 N.pl3 110  ARG110      0.1354
     83  N         10.6310  -11.0370  -22.2560 N.am  111  ARG111     -0.1980
     84  CA        11.6380  -11.9420  -21.6970 C.3   111  ARG111      0.1597
     85  C         12.0800  -12.9700  -22.7370 C.2   111  ARG111      0.2287
     86  O         13.2810  -13.1540  -22.9790 O.2   111  ARG111     -0.2864
     87  CB        11.0790  -12.6370  -20.4550 C.3   111  ARG111      0.0334
     88  CG        11.0280  -11.7140  -19.2600 C.3   111  ARG111      0.0492
     89  CD        10.2370  -12.2950  -18.1240 C.3   111  ARG111      0.2205
     90  NE        10.4710  -11.5140  -16.9230 N.pl3 111  ARG111     -0.0865
     91  CZ         9.7340  -11.6010  -15.8190 C.cat 111  ARG111      0.5346
     92  NH1        8.6970  -12.4330  -15.7680 N.pl3 111  ARG111      0.1354
     93  NH2       10.0190  -10.8380  -14.7730 N.pl3 111  ARG111      0.1354
     94  N          4.0320  -17.0690   -8.2730 N.3   131  ILE131     -0.1245
     95  CA         5.4090  -17.5280   -8.0800 C.3   131  ILE131      0.1561
     96  C          5.4350  -18.9410   -7.5280 C.2   131  ILE131      0.2260
     97  O          6.1710  -19.8070   -8.0180 O.2   131  ILE131     -0.2867
     98  CB         6.1540  -16.5650   -7.1430 C.3   131  ILE131      0.0252
     99  CG1        6.3600  -15.2170   -7.8210 C.3   131  ILE131      0.0019
    100  CG2        7.4460  -17.1920   -6.6410 C.3   131  ILE131      0.0019
    101  CD1        6.7670  -14.1390   -6.8440 C.3   131  ILE131      0.0001
    102  N          4.4230  -21.4410  -10.2520 N.3   134  ARG134     -0.1245
    103  CA         5.4360  -21.6520  -11.2830 C.3   134  ARG134      0.1563
    104  C          6.6420  -22.4030  -10.7320 C.2   134  ARG134      0.2260
    105  O          7.2260  -23.2360  -11.4310 O.2   134  ARG134     -0.2867
    106  CB         5.8570  -20.3080  -11.8890 C.3   134  ARG134      0.0307
    107  CG         4.6990  -19.5270  -12.5060 C.3   134  ARG134      0.0489
    108  CD         5.2050  -18.3430  -13.3410 C.3   134  ARG134      0.2205
    109  NE         4.1210  -17.5620  -13.9340 N.pl3 134  ARG134     -0.0865
    110  CZ         4.2610  -16.7510  -14.9820 C.cat 134  ARG134      0.5346
    111  NH1        5.4420  -16.6100  -15.5740 N.pl3 134  ARG134      0.1354
    112  NH2        3.2120  -16.0780  -15.4450 N.pl3 134  ARG134      0.1354
    113  N         11.5650  -17.8650  -15.7330 N.3   147  ILE147     -0.1231
    114  CA        11.9980  -16.4950  -15.4550 C.3   147  ILE147      0.1692
    115  C         10.9640  -15.8560  -14.5460 C.2   147  ILE147      0.2592
    116  O          9.7590  -15.9240  -14.8280 O.2   147  ILE147     -0.2718
    117  CB        12.1580  -15.6420  -16.7330 C.3   147  ILE147      0.0266
    118  CG1       13.0410  -16.3150  -17.7930 C.3   147  ILE147      0.0019
    119  CG2       12.6820  -14.2220  -16.3800 C.3   147  ILE147      0.0020
    120  CD1       14.5060  -16.5160  -17.3980 C.3   147  ILE147      0.0001
    121  N         11.4290  -15.1910  -13.4900 N.am  148  LEU148     -0.1966
    122  CA        10.5500  -14.4420  -12.6020 C.3   148  LEU148      0.1728
    123  C         11.1980  -13.1040  -12.2740 C.2   148  LEU148      0.2616
    124  O         12.4160  -12.9510  -12.3670 O.2   148  LEU148     -0.2715
    125  CB        10.2830  -15.2020  -11.3010 C.3   148  LEU148      0.0311
    126  CG         9.6720  -16.6050  -11.3780 C.3   148  LEU148      0.0022
    127  CD1        9.7920  -17.2820  -10.0300 C.3   148  LEU148      0.0001
    128  CD2        8.2240  -16.5460  -11.8220 C.3   148  LEU148      0.0001
    129  N         10.3890  -12.1430  -11.8280 N.am  149  ALA149     -0.1977
    130  CA        10.9750  -10.8940  -11.3520 C.3   149  ALA149      0.1597
    131  C         11.6310  -11.1220   -9.9930 C.2   149  ALA149      0.2287
    132  O         11.0130  -11.6810   -9.0740 O.2   149  ALA149     -0.2864
    133  CB         9.9180   -9.7970  -11.2600 C.3   149  ALA149      0.0319
    134  N         12.0500   -8.9060   -7.8850 N.3   151  ALA151     -0.1231
    135  CA        11.2560   -8.1060   -6.9560 C.3   151  ALA151      0.1694
    136  C         10.0880   -8.8940   -6.3730 C.2   151  ALA151      0.2592
    137  O          9.7950   -8.7760   -5.1760 O.2   151  ALA151     -0.2718
    138  CB        10.7320   -6.8520   -7.6640 C.3   151  ALA151      0.0304
    139  N          9.3920   -9.6700   -7.2040 N.am  152  GLY152     -0.1957
    140  CA         8.2940  -10.4800   -6.7050 C.3   152  GLY152      0.1869
    141  C          8.7660  -11.5950   -5.7930 C.2   152  GLY152      0.2309
    142  O          8.1290  -11.8940   -4.7790 O.2   152  GLY152     -0.2863
    143  N          9.5460   -9.7710   -2.4600 N.3   155  ARG155     -0.1245
    144  CA         8.3490   -9.3480   -1.7350 C.3   155  ARG155      0.1563
    145  C          7.5520  -10.5360   -1.2020 C.2   155  ARG155      0.2260
    146  O          6.8880  -10.4150   -0.1620 O.2   155  ARG155     -0.2867
    147  CB         7.4680   -8.4650   -2.6280 C.3   155  ARG155      0.0307
    148  CG         8.1070   -7.0960   -2.9520 C.3   155  ARG155      0.0489
    149  CD         7.1250   -6.0690   -3.5410 C.3   155  ARG155      0.2205
    150  NE         7.7890   -4.7890   -3.8410 N.pl3 155  ARG155     -0.0865
    151  CZ         7.9840   -4.3010   -5.0700 C.cat 155  ARG155      0.5346
    152  NH1        7.5430   -4.9610   -6.1320 N.pl3 155  ARG155      0.1354
    153  NH2        8.6040   -3.1340   -5.2410 N.pl3 155  ARG155      0.1354
    154  N         11.2870   -5.1740  -17.8610 N.3   175  ALA175     -0.1245
    155  CA        10.0720   -4.4290  -18.1650 C.3   175  ALA175      0.1562
    156  C         10.1300   -3.0410  -17.5390 C.2   175  ALA175      0.2260
    157  O         10.6550   -2.8530  -16.4390 O.2   175  ALA175     -0.2867
    158  CB         8.8470   -5.1640  -17.6340 C.3   175  ALA175      0.0290
    159  N          9.3650   -0.1520  -15.3500 N.3   177  GLY177     -0.1210
    160  CA         8.8480   -0.1370  -13.9980 C.3   177  GLY177      0.1956
    161  C          9.0430   -1.3890  -13.1620 C.2   177  GLY177      0.2612
    162  O          8.5660   -1.4170  -12.0260 O.2   177  GLY177     -0.2717
    163  N          9.7220   -2.4170  -13.6650 N.am  178  GLN178     -0.1965
    164  CA         9.8660   -3.6320  -12.8730 C.3   178  GLN178      0.1733
    165  C         10.5980   -3.3260  -11.5700 C.2   178  GLN178      0.2617
    166  O         11.5950   -2.6020  -11.5670 O.2   178  GLN178     -0.2715
    167  CB        10.6210   -4.6930  -13.6750 C.3   178  GLN178      0.0408
    168  CG        10.6790   -6.0560  -12.9630 C.3   178  GLN178      0.0908
    169  CD        10.9330   -7.1980  -13.9300 C.2   178  GLN178      0.2608
    170  OE1        9.9900   -7.8170  -14.4420 O.2   178  GLN178     -0.2717
    171  NE2       12.2080   -7.4930  -14.1770 N.am  178  GLN178     -0.0878
    172  N         10.0950   -3.8620  -10.4560 N.am  179  GLY179     -0.1940
    173  CA        10.6530   -3.5580   -9.1490 C.3   179  GLY179      0.2014
    174  C         10.1050   -2.2940   -8.5020 C.2   179  GLY179      0.2638
    175  O         10.3290   -2.0790   -7.3020 O.2   179  GLY179     -0.2714
    176  N          9.3950   -1.4590   -9.2480 N.am  180  ALA180     -0.1977
    177  CA         8.7740   -0.2560   -8.7080 C.3   180  ALA180      0.1597
    178  C          7.2950   -0.4990   -8.4330 C.2   180  ALA180      0.2287
    179  O          6.6340   -1.2860   -9.1130 O.2   180  ALA180     -0.2864
    180  CB         8.9170    0.9290   -9.6760 C.3   180  ALA180      0.0319
    181  N          2.2690   -4.4970  -21.3600 N.3   222  CYS222     -0.1235
    182  CA         2.6270   -5.8350  -20.8840 C.3   222  CYS222      0.1677
    183  C          2.8410   -6.8310  -22.0170 C.2   222  CYS222      0.2270
    184  O          3.8100   -7.6010  -22.0080 O.2   222  CYS222     -0.2867
    185  CB         1.5230   -6.3570  -19.9710 C.3   222  CYS222      0.0956
    186  SG         1.9180   -6.2990  -18.2640 S.3   222  CYS222     -0.0801
    187  N          3.6200   -6.5080  -25.0170 N.3   224  VAL224     -0.1245
    188  CA         4.5110   -6.0530  -26.0810 C.3   224  VAL224      0.1561
    189  C          5.9590   -6.4030  -25.7410 C.2   224  VAL224      0.2260
    190  O          6.3640   -6.2480  -24.5780 O.2   224  VAL224     -0.2867
    191  CB         4.3320   -4.5380  -26.2790 C.3   224  VAL224      0.0252
    192  CG1        5.1630   -4.0330  -27.4330 C.3   224  VAL224      0.0019
    193  CG2        2.8570   -4.2120  -26.4800 C.3   224  VAL224      0.0019
@<TRIPOS>BOND
     1   192   191    1
     2   193   191    1
     3   191   188    1
     4   188   189    1
     5   188   187    1
     6   189   190    2
     7    72    73    1
     8    73    74    1
     9    73    76    1
    10    75    74    2
    11    74    83   am
    12    86    85    2
    13    69    68    2
    14    68    67    1
    15    85    84    1
    16    76    77    1
    17    63    62    2
    18    83    84    1
    19    77    78    1
    20   183   184    2
    21   183   182    1
    22    84    87    1
    23    56    55    2
    24    62    66   am
    25    62    61    1
    26    67    66    1
    27    67    70    1
    28   181   182    1
    29    61    64    1
    30    61    60    1
    31    71    70    1
    32    78    79    1
    33   182   185    1
    34    59    57    1
    35    64    65    1
    36    55    60   am
    37    55    54    1
    38    87    88    1
    39   185   186    1
    40    79    80    2
    41    53    54    1
    42    58    57    1
    43    57    54    1
    44    81    80    1
    45    88    89    1
    46    80    82    1
    47   155   154    1
    48   155   158    1
    49   155   156    1
    50    89    90    1
    51   118   120    1
    52   118   117    1
    53   156   157    2
    54    90    91    2
    55   117   119    1
    56   117   114    1
    57    38    37    2
    58    91    92    1
    59    91    93    1
    60   113   114    1
    61   111   110    1
    62   114   115    1
    63   112   110    1
    64   159   160    1
    65    47    46    2
    66    37    36    1
    67    37    44   am
    68   110   109    2
    69    39    36    1
    70    39    40    1
    71    46    45    1
    72   116   115    2
    73    36    35    1
    74    41    40    1
    75    41    42    1
    76    43    42    1
    77    51    50   ar
    78    45    44    1
    79    45    48    1
    80   115   121   am
    81   170   169    2
    82    52    50   ar
    83   171   169   am
    84    50    49    1
    85   160   161    1
    86   109   108    1
    87   169   168    1
    88   167   168    1
    89   167   164    1
    90   163   161   am
    91   163   164    1
    92    48    49    1
    93   121   122    1
    94   108   107    1
    95   161   162    2
    96   164   165    1
    97   122   123    1
    98   122   125    1
    99   107   106    1
   100   124   123    2
   101   123   129   am
   102    11     9    1
   103   106   103    1
   104   129   130    1
   105   128   126    1
   106    32    31    2
   107   165   166    2
   108   165   172   am
   109   105   104    2
   110   126   125    1
   111   126   127    1
   112   130   133    1
   113   130   131    1
   114    10     9    1
   115   103   104    1
   116   103   102    1
   117     9     8    2
   118    31    30    1
   119   172   173    1
   120     8     7    1
   121    33    30    1
   122    33    34    1
   123   131   132    2
   124    30    29    1
   125   180   177    1
   126     7     6    1
   127   176   177    1
   128   176   174   am
   129   173   174    1
   130   179   178    2
   131   177   178    1
   132   174   175    2
   133     6     5    1
   134    94    95    1
   135    95    96    1
   136    95    98    1
   137    97    96    2
   138   134   135    1
   139    99    98    1
   140    99   101    1
   141   138   135    1
   142     5     2    1
   143    19    17    1
   144   139   140    1
   145   139   136   am
   146    98   100    1
   147   135   136    1
   148   140   141    1
   149     2     1    1
   150     2     3    1
   151   136   137    2
   152   152   151    1
   153    28    26   am
   154    27    26    2
   155    17    16    1
   156    17    18    1
   157   141   142    2
   158    16    13    1
   159     3     4    2
   160    26    25    1
   161   153   151    1
   162   151   150    2
   163    13    14    1
   164    13    12    1
   165    14    15    2
   166   150   149    1
   167    25    24    1
   168   149   148    1
   169    24    21    1
   170   148   147    1
   171   147   144    1
   172   143   144    1
   173   144   145    1
   174    21    20    1
   175    21    22    1
   176   145   146    2
   177    22    23    2
