@<TRIPOS>MOLECULE
tmp/5ov6A00.pdb
 95 87 0 0 0
SMALL
GASTEIGER

@<TRIPOS>ATOM
      1  N          5.1450   -2.3080  -13.2260 N.3    61  LYS61      -0.1231
      2  CA         5.1420   -2.9360  -14.5430 C.3    61  LYS61       0.1693
      3  C          3.7390   -3.3150  -15.0000 C.2    61  LYS61       0.2592
      4  O          3.5350   -3.5490  -16.1940 O.2    61  LYS61      -0.2718
      5  CB         6.0570   -4.1650  -14.5610 C.3    61  LYS61       0.0285
      6  CG         5.5600   -5.3780  -13.7740 C.3    61  LYS61       0.0035
      7  CD         6.4650   -6.5880  -14.0260 C.3    61  LYS61       0.0206
      8  CE         6.0000   -7.8300  -13.2770 C.3    61  LYS61       0.1093
      9  NZ         6.7900   -9.0440  -13.6450 N.3    61  LYS61      -0.1314
     10  N          2.7680   -3.3660  -14.0870 N.am   62  ASN62      -0.1974
     11  CA         1.3840   -3.6310  -14.4540 C.3    62  ASN62       0.1688
     12  C          0.5740   -2.3650  -14.6950 C.2    62  ASN62       0.2292
     13  O         -0.5730   -2.4590  -15.1410 O.2    62  ASN62      -0.2864
     14  CB         0.6990   -4.4760  -13.3730 C.3    62  ASN62       0.1181
     15  CG         1.2440   -5.8890  -13.3090 C.2    62  ASN62       0.2629
     16  OD1        1.7200   -6.4290  -14.3110 O.2    62  ASN62      -0.2716
     17  ND2        1.1730   -6.4980  -12.1310 N.am   62  ASN62      -0.0877
     18  N          7.7450  -19.0980  -19.3300 N.3   105  THR105     -0.1203
     19  CA         7.3620  -17.7070  -19.1340 C.3   105  THR105      0.1994
     20  C          6.3330  -17.3470  -20.1930 C.2   105  THR105      0.2619
     21  O          6.4710  -17.7400  -21.3530 O.2   105  THR105     -0.2717
     22  CB         8.5690  -16.7540  -19.2110 C.3   105  THR105      0.1784
     23  OG1        8.1100  -15.3950  -19.2520 O.3   105  THR105     -0.2211
     24  CG2        9.4130  -17.0270  -20.4400 C.3   105  THR105      0.0376
     25  N          5.2960  -16.6200  -19.7860 N.am  106  SER106     -0.1937
     26  CA         4.2820  -16.1490  -20.7180 C.3   106  SER106      0.2055
     27  C          4.5750  -14.7460  -21.2310 C.2   106  SER106      0.2643
     28  O          3.7590  -14.1840  -21.9670 O.2   106  SER106     -0.2714
     29  CB         2.9000  -16.1880  -20.0620 C.3   106  SER106      0.2130
     30  OG         2.8200  -15.2630  -18.9920 O.3   106  SER106     -0.2179
     31  N          5.7180  -14.1750  -20.8620 N.am  107  SER107     -0.1949
     32  CA         6.1000  -12.8380  -21.2930 C.3   107  SER107      0.1924
     33  C          6.8960  -12.9300  -22.5870 C.2   107  SER107      0.2314
     34  O          7.9510  -13.5730  -22.6270 O.2   107  SER107     -0.2863
     35  CB         6.9240  -12.1400  -20.2120 C.3   107  SER107      0.2116
     36  OG         7.5940  -11.0060  -20.7370 O.3   107  SER107     -0.2180
     37  N          8.3960  -10.3870  -23.8140 N.3   109  ARG109     -0.1231
     38  CA         9.5940   -9.6120  -23.5110 C.3   109  ARG109      0.1694
     39  C         10.7050  -10.5080  -22.9830 C.2   109  ARG109      0.2591
     40  O         11.8470  -10.4430  -23.4550 O.2   109  ARG109     -0.2718
     41  CB         9.2680   -8.5180  -22.4950 C.3   109  ARG109      0.0321
     42  CG        10.4970   -7.7880  -22.0050 C.3   109  ARG109      0.0489
     43  CD        10.2050   -6.9150  -20.8020 C.3   109  ARG109      0.2205
     44  NE         9.8790   -7.6660  -19.5890 N.pl3 109  ARG109     -0.0865
     45  CZ        10.7700   -8.3080  -18.8350 C.cat 109  ARG109      0.5346
     46  NH1       12.0530   -8.3270  -19.1810 N.pl3 109  ARG109      0.1354
     47  NH2       10.3750   -8.9430  -17.7350 N.pl3 109  ARG109      0.1354
     48  N         10.3850  -11.3550  -22.0010 N.am  110  ARG110     -0.1980
     49  CA        11.3900  -12.2380  -21.4200 C.3   110  ARG110      0.1597
     50  C         11.8300  -13.2980  -22.4190 C.2   110  ARG110      0.2287
     51  O         13.0300  -13.5010  -22.6330 O.2   110  ARG110     -0.2864
     52  CB        10.8460  -12.8880  -20.1490 C.3   110  ARG110      0.0334
     53  CG        10.7790  -11.9380  -18.9730 C.3   110  ARG110      0.0492
     54  CD        10.0000  -12.5170  -17.8100 C.3   110  ARG110      0.2205
     55  NE        10.1630  -11.6910  -16.6180 N.pl3 110  ARG110     -0.0865
     56  CZ         9.3670  -11.7360  -15.5570 C.cat 110  ARG110      0.5346
     57  NH1        8.3390  -12.5740  -15.5280 N.pl3 110  ARG110      0.1354
     58  NH2        9.5970  -10.9380  -14.5250 N.pl3 110  ARG110      0.1354
     59  N          4.1950  -21.6220   -9.9170 N.3   133  ARG133     -0.1245
     60  CA         5.1950  -21.8510  -10.9570 C.3   133  ARG133      0.1563
     61  C          6.4130  -22.5870  -10.4090 C.2   133  ARG133      0.2260
     62  O          7.0090  -23.4170  -11.1050 O.2   133  ARG133     -0.2867
     63  CB         5.6040  -20.5200  -11.5890 C.3   133  ARG133      0.0307
     64  CG         4.4620  -19.7750  -12.2750 C.3   133  ARG133      0.0489
     65  CD         4.9640  -18.5420  -13.0230 C.3   133  ARG133      0.2205
     66  NE         3.8720  -17.7740  -13.6200 N.pl3 133  ARG133     -0.0865
     67  CZ         4.0140  -16.9370  -14.6460 C.cat 133  ARG133      0.5346
     68  NH1        5.2010  -16.7620  -15.2060 N.pl3 133  ARG133      0.1354
     69  NH2        2.9630  -16.2810  -15.1210 N.pl3 133  ARG133      0.1354
     70  N         11.2710  -18.1610  -15.4840 N.3   146  ILE146     -0.1245
     71  CA        11.6940  -16.7890  -15.2390 C.3   146  ILE146      0.1561
     72  C         10.6740  -16.1380  -14.3210 C.2   146  ILE146      0.2260
     73  O          9.4660  -16.2210  -14.5670 O.2   146  ILE146     -0.2867
     74  CB        11.8420  -15.9910  -16.5440 C.3   146  ILE146      0.0252
     75  CG1       12.7380  -16.7440  -17.5250 C.3   146  ILE146      0.0019
     76  CG2       12.4270  -14.6100  -16.2520 C.3   146  ILE146      0.0019
     77  CD1       14.1540  -16.9240  -17.0330 C.3   146  ILE146      0.0001
     78  N         11.2370   -5.4530  -17.5850 N.3   174  ALA174     -0.1245
     79  CA        10.0360   -4.7160  -17.9400 C.3   174  ALA174      0.1562
     80  C         10.0960   -3.3240  -17.3240 C.2   174  ALA174      0.2260
     81  O         10.6510   -3.1320  -16.2380 O.2   174  ALA174     -0.2867
     82  CB         8.7870   -5.4520  -17.4580 C.3   174  ALA174      0.0290
     83  N          2.3120   -4.9090  -21.2300 N.3   221  CYS221     -0.1235
     84  CA         2.7680   -6.2230  -20.7830 C.3   221  CYS221      0.1677
     85  C          2.7510   -7.2630  -21.8970 C.2   221  CYS221      0.2270
     86  O          3.5090   -8.2380  -21.8350 O.2   221  CYS221     -0.2867
     87  CB         1.9180   -6.6940  -19.6050 C.3   221  CYS221      0.0956
     88  SG         2.2190   -5.7860  -18.0770 S.3   221  CYS221     -0.0801
     89  N          3.5150   -6.6330  -25.0860 N.3   223  VAL223     -0.1245
     90  CA         4.4540   -6.2540  -26.1400 C.3   223  VAL223      0.1561
     91  C          5.8670   -6.6560  -25.7290 C.2   223  VAL223      0.2260
     92  O          6.2510   -6.4580  -24.5670 O.2   223  VAL223     -0.2867
     93  CB         4.3740   -4.7450  -26.4260 C.3   223  VAL223      0.0252
     94  CG1        5.2320   -4.3720  -27.6240 C.3   223  VAL223      0.0019
     95  CG2        2.9250   -4.3180  -26.6360 C.3   223  VAL223      0.0019
@<TRIPOS>BOND
     1    94    93    1
     2    95    93    1
     3    93    90    1
     4    90    91    1
     5    90    89    1
     6    91    92    2
     7    37    38    1
     8    38    39    1
     9    38    41    1
    10    40    39    2
    11    39    48   am
    12    51    50    2
    13    34    33    2
    14    33    32    1
    15    41    42    1
    16    50    49    1
    17    42    43    1
    18    48    49    1
    19    28    27    2
    20    85    86    2
    21    85    84    1
    22    49    52    1
    23    21    20    2
    24    32    31    1
    25    32    35    1
    26    27    31   am
    27    27    26    1
    28    83    84    1
    29    43    44    1
    30    84    87    1
    31    36    35    1
    32    26    29    1
    33    26    25    1
    34    24    22    1
    35    20    25   am
    36    20    19    1
    37    52    53    1
    38    29    30    1
    39    87    88    1
    40    44    45    2
    41    18    19    1
    42    23    22    1
    43    22    19    1
    44    46    45    1
    45    53    54    1
    46    45    47    1
    47    79    78    1
    48    79    82    1
    49    79    80    1
    50    54    55    1
    51    75    77    1
    52    75    74    1
    53    80    81    2
    54    55    56    2
    55    74    76    1
    56    74    71    1
    57     4     3    2
    58    56    57    1
    59    56    58    1
    60    70    71    1
    61    71    72    1
    62    68    67    1
    63    13    12    2
    64    69    67    1
    65     3     2    1
    66     3    10   am
    67    12    11    1
    68    67    66    2
    69    73    72    2
    70     5     2    1
    71     5     6    1
    72     2     1    1
    73    11    10    1
    74    11    14    1
    75    16    15    2
    76     7     6    1
    77     7     8    1
    78     9     8    1
    79    66    65    1
    80    14    15    1
    81    15    17   am
    82    65    64    1
    83    64    63    1
    84    63    60    1
    85    62    61    2
    86    60    61    1
    87    60    59    1
