@<TRIPOS>MOLECULE
tmp/5ov7D01.pdb
 183 172 0 0 0
SMALL
GASTEIGER

@<TRIPOS>ATOM
      1  N         19.0960   -3.4140  -27.7020 N.3   200  TYR200     -0.1241
      2  CA        17.7470   -3.9490  -27.8270 C.3   200  TYR200      0.1605
      3  C         17.8210   -5.3700  -28.3710 C.2   200  TYR200      0.2264
      4  O         18.2700   -5.5830  -29.5040 O.2   200  TYR200     -0.2867
      5  CB        16.8950   -3.0730  -28.7400 C.3   200  TYR200      0.0534
      6  CG        16.7170   -1.6610  -28.2500 C.ar  200  TYR200     -0.0201
      7  CD1       15.8870   -1.3750  -27.1740 C.ar  200  TYR200     -0.0009
      8  CD2       17.3590   -0.6070  -28.8800 C.ar  200  TYR200     -0.0009
      9  CE1       15.7140   -0.0800  -26.7280 C.ar  200  TYR200      0.0417
     10  CE2       17.1900    0.6870  -28.4450 C.ar  200  TYR200      0.0417
     11  CZ        16.3680    0.9470  -27.3700 C.ar  200  TYR200      0.1957
     12  OH        16.1990    2.2410  -26.9360 O.3   200  TYR200     -0.2866
     13  N          8.9510    2.7360  -32.4180 N.3   235  GLY235     -0.1210
     14  CA         8.4870    3.0090  -31.0660 C.3   235  GLY235      0.1956
     15  C          9.6040    3.4060  -30.1170 C.2   235  GLY235      0.2611
     16  O          9.5090    4.4180  -29.4190 O.2   235  GLY235     -0.2717
     17  N         10.6920    2.6280  -30.0910 N.am  236  VAL236     -0.1979
     18  CA        11.7540    2.9010  -29.1240 C.3   236  VAL236      0.1595
     19  C         12.5140    4.1830  -29.4440 C.2   236  VAL236      0.2287
     20  O         13.1410    4.7600  -28.5510 O.2   236  VAL236     -0.2864
     21  CB        12.7410    1.7210  -29.0090 C.3   236  VAL236      0.0276
     22  CG1       11.9930    0.4310  -28.7120 C.3   236  VAL236      0.0022
     23  CG2       13.5900    1.5980  -30.2610 C.3   236  VAL236      0.0022
     24  N         10.6740    9.0490  -29.0570 N.3   239  CYS239     -0.1221
     25  CA        10.9480   10.1990  -28.2060 C.3   239  CYS239      0.1808
     26  C         12.3860   10.6880  -28.3210 C.2   239  CYS239      0.2601
     27  O         12.8010   11.5510  -27.5400 O.2   239  CYS239     -0.2717
     28  CB        10.6190    9.8700  -26.7510 C.3   239  CYS239      0.0970
     29  SG        11.3490    8.3470  -26.1800 S.3   239  CYS239     -0.0800
     30  N         13.1570   10.1330  -29.2530 N.am  240  LEU240     -0.1979
     31  CA        14.3660   10.7860  -29.7320 C.3   240  LEU240      0.1596
     32  C         14.0590   11.7280  -30.8830 C.2   240  LEU240      0.2287
     33  O         14.7540   12.7360  -31.0590 O.2   240  LEU240     -0.2864
     34  CB        15.3950    9.7440  -30.1780 C.3   240  LEU240      0.0297
     35  CG        15.7410    8.6470  -29.1670 C.3   240  LEU240      0.0022
     36  CD1       16.6140    7.5850  -29.8140 C.3   240  LEU240      0.0001
     37  CD2       16.4230    9.2350  -27.9400 C.3   240  LEU240      0.0001
     38  N         10.3430   14.9570  -21.6340 N.3   246  LEU246     -0.1245
     39  CA        11.6190   14.3190  -21.3430 C.3   246  LEU246      0.1561
     40  C         12.6970   14.8580  -22.2720 C.2   246  LEU246      0.2260
     41  O         13.8300   15.1050  -21.8450 O.2   246  LEU246     -0.2867
     42  CB        11.5030   12.7950  -21.4450 C.3   246  LEU246      0.0270
     43  CG        10.6300   11.9600  -20.5020 C.3   246  LEU246      0.0019
     44  CD1       10.6200   10.5100  -20.9620 C.3   246  LEU246      0.0001
     45  CD2       11.0920   12.0400  -19.0560 C.3   246  LEU246      0.0001
     46  N         14.1370   13.2000  -24.8680 N.3   248  ALA248     -0.1231
     47  CA        15.0280   12.0760  -24.6360 C.3   248  ALA248      0.1694
     48  C         16.2290   12.1000  -25.5710 C.2   248  ALA248      0.2592
     49  O         16.1720   12.6060  -26.6940 O.2   248  ALA248     -0.2718
     50  CB        14.2720   10.7600  -24.8130 C.3   248  ALA248      0.0304
     51  N         17.3320   11.5490  -25.0700 N.am  249  ASP249     -0.1960
     52  CA        18.5430   11.3140  -25.8380 C.3   249  ASP249      0.1840
     53  C         19.1230    9.9880  -25.3720 C.2   249  ASP249      0.2621
     54  O         18.6750    9.4080  -24.3790 O.2   249  ASP249     -0.2715
     55  CB        19.5590   12.4520  -25.6660 C.3   249  ASP249      0.1450
     56  CG        20.1100   12.5390  -24.2500 C.2   249  ASP249      0.3671
     57  OD1       20.7370   11.5640  -23.7840 O.co2 249  ASP249     -0.2456
     58  OD2       19.9110   13.5850  -23.5980 O.co2 249  ASP249     -0.2456
     59  N         20.1310    9.5030  -26.0980 N.am  250  LEU250     -0.1977
     60  CA        20.6610    8.1750  -25.8080 C.3   250  LEU250      0.1596
     61  C         21.2610    8.1000  -24.4070 C.2   250  LEU250      0.2287
     62  O         21.1200    7.0760  -23.7250 O.2   250  LEU250     -0.2864
     63  CB        21.6990    7.7820  -26.8640 C.3   250  LEU250      0.0297
     64  CG        21.1680    7.5450  -28.2820 C.3   250  LEU250      0.0022
     65  CD1       22.3110    7.4330  -29.2760 C.3   250  LEU250      0.0001
     66  CD2       20.2890    6.3010  -28.3420 C.3   250  LEU250      0.0001
     67  N         20.5830    9.9780  -21.5290 N.3   252  LYS252     -0.1231
     68  CA        19.5910    9.9580  -20.4560 C.3   252  LYS252      0.1693
     69  C         18.9290    8.5890  -20.3630 C.2   252  LYS252      0.2591
     70  O         18.7330    8.0480  -19.2620 O.2   252  LYS252     -0.2718
     71  CB        18.5470   11.0570  -20.6720 C.3   252  LYS252      0.0285
     72  CG        18.9980   12.4540  -20.2390 C.3   252  LYS252      0.0035
     73  CD        18.0850   13.5430  -20.8020 C.3   252  LYS252      0.0206
     74  CE        18.5330   14.9410  -20.3830 C.3   252  LYS252      0.1093
     75  NZ        18.0580   15.3100  -19.0190 N.3   252  LYS252     -0.1314
     76  N         18.5940    8.0040  -21.5160 N.am  253  LEU253     -0.1980
     77  CA        18.0760    6.6410  -21.5330 C.3   253  LEU253      0.1596
     78  C         19.0380    5.6860  -20.8410 C.2   253  LEU253      0.2287
     79  O         18.6350    4.9080  -19.9700 O.2   253  LEU253     -0.2864
     80  CB        17.8190    6.1850  -22.9680 C.3   253  LEU253      0.0297
     81  CG        17.3290    4.7360  -23.0700 C.3   253  LEU253      0.0022
     82  CD1       15.8840    4.6260  -22.6120 C.3   253  LEU253      0.0001
     83  CD2       17.5040    4.1800  -24.4740 C.3   253  LEU253      0.0001
     84  N         19.1650    6.1030  -17.0230 N.3   256  ASN256     -0.1225
     85  CA        17.9930    5.6840  -16.2610 C.3   256  ASN256      0.1785
     86  C         17.6200    4.2180  -16.4530 C.2   256  ASN256      0.2597
     87  O         16.8490    3.6830  -15.6480 O.2   256  ASN256     -0.2718
     88  CB        16.8020    6.5840  -16.5980 C.3   256  ASN256      0.1169
     89  CG        16.9970    8.0030  -16.0930 C.2   256  ASN256      0.2627
     90  OD1       16.8850    8.2650  -14.8950 O.2   256  ASN256     -0.2716
     91  ND2       17.3180    8.9190  -16.9990 N.am  256  ASN256     -0.0877
     92  N         18.1520    3.5470  -17.4730 N.am  257  MET257     -0.1979
     93  CA        17.7910    2.1560  -17.7180 C.3   257  MET257      0.1605
     94  C         18.8470    1.1540  -17.2660 C.2   257  MET257      0.2287
     95  O         18.5140   -0.0160  -17.0520 O.2   257  MET257     -0.2864
     96  CB        17.5000    1.9360  -19.2080 C.3   257  MET257      0.0413
     97  CG        16.2260    2.6100  -19.6990 C.3   257  MET257      0.0598
     98  SD        14.7630    1.9180  -18.9040 S.3   257  MET257     -0.1393
     99  CE        14.8230    0.2200  -19.4700 C.3   257  MET257      0.0692
    100  N         14.3210   -1.8190  -14.5360 N.3   303  THR303     -0.1203
    101  CA        13.8400   -0.5420  -15.0430 C.3   303  THR303      0.1994
    102  C         12.9030   -0.7960  -16.2170 C.2   303  THR303      0.2618
    103  O         12.9890   -1.8310  -16.8850 O.2   303  THR303     -0.2717
    104  CB        14.9960    0.3730  -15.4780 C.3   303  THR303      0.1784
    105  OG1       15.8670   -0.3390  -16.3660 O.3   303  THR303     -0.2211
    106  CG2       15.7960    0.8420  -14.2710 C.3   303  THR303      0.0376
    107  N         12.0030    0.1540  -16.4600 N.am  304  VAL304     -0.1965
    108  CA        11.0770    0.0780  -17.5850 C.3   304  VAL304      0.1727
    109  C         10.8610    1.4710  -18.1600 C.2   304  VAL304      0.2616
    110  O         10.7910    2.4580  -17.4200 O.2   304  VAL304     -0.2715
    111  CB         9.7290   -0.5530  -17.1780 C.3   304  VAL304      0.0290
    112  CG1        8.7530   -0.4800  -18.3370 C.3   304  VAL304      0.0023
    113  CG2        9.9260   -1.9990  -16.7290 C.3   304  VAL304      0.0023
    114  N         10.7580    1.5460  -19.4860 N.am  305  ALA305     -0.1963
    115  CA        10.4190    2.7740  -20.1940 C.3   305  ALA305      0.1728
    116  C          9.2910    2.4880  -21.1770 C.2   305  ALA305      0.2616
    117  O          9.3780    1.5430  -21.9620 O.2   305  ALA305     -0.2715
    118  CB        11.6410    3.3430  -20.9240 C.3   305  ALA305      0.0334
    119  N          8.2390    3.3010  -21.1500 N.am  306  ALA306     -0.1963
    120  CA         7.0590    3.0440  -21.9660 C.3   306  ALA306      0.1728
    121  C          6.6310    4.3210  -22.6740 C.2   306  ALA306      0.2616
    122  O          6.6760    5.4070  -22.0910 O.2   306  ALA306     -0.2715
    123  CB         5.9010    2.5010  -21.1130 C.3   306  ALA306      0.0334
    124  N          6.2340    4.1830  -23.9400 N.am  307  ILE307     -0.1977
    125  CA         5.7350    5.2880  -24.7530 C.3   307  ILE307      0.1596
    126  C          4.3340    4.9440  -25.2420 C.2   307  ILE307      0.2287
    127  O          4.1040    3.8450  -25.7570 O.2   307  ILE307     -0.2864
    128  CB         6.6650    5.5800  -25.9450 C.3   307  ILE307      0.0276
    129  CG1        8.0300    6.0480  -25.4490 C.3   307  ILE307      0.0022
    130  CG2        6.0540    6.6290  -26.8420 C.3   307  ILE307      0.0022
    131  CD1        8.0690    7.4890  -25.0020 C.3   307  ILE307      0.0001
    132  N         10.8610    4.1180   -8.0950 N.3   338  ASN338     -0.1225
    133  CA        10.3670    4.8420   -9.2660 C.3   338  ASN338      0.1785
    134  C         11.1030    4.4190  -10.5370 C.2   338  ASN338      0.2597
    135  O         11.5590    5.2460  -11.3320 O.2   338  ASN338     -0.2718
    136  CB        10.4730    6.3520   -9.0510 C.3   338  ASN338      0.1169
    137  CG         9.6810    7.1420  -10.0740 C.2   338  ASN338      0.2627
    138  OD1        8.6040    6.7240  -10.5020 O.2   338  ASN338     -0.2716
    139  ND2       10.2270    8.2760  -10.4950 N.am  338  ASN338     -0.0877
    140  N         11.2070    3.1090  -10.7360 N.am  339  ASN339     -0.1960
    141  CA        12.0130    2.5690  -11.8200 C.3   339  ASN339      0.1819
    142  C         11.2330    2.3950  -13.1210 C.2   339  ASN339      0.2621
    143  O         11.7370    1.7480  -14.0430 O.2   339  ASN339     -0.2715
    144  CB        12.6330    1.2310  -11.3940 C.3   339  ASN339      0.1195
    145  CG        11.6020    0.2430  -10.8890 C.2   339  ASN339      0.2630
    146  OD1       10.4630    0.6100  -10.6050 O.2   339  ASN339     -0.2716
    147  ND2       12.0000   -1.0190  -10.7650 N.am  339  ASN339     -0.0877
    148  N         10.0300    2.9580  -13.2240 N.am  340  VAL340     -0.1963
    149  CA         9.2250    2.8940  -14.4390 C.3   340  VAL340      0.1727
    150  C          8.9560    4.3140  -14.9210 C.2   340  VAL340      0.2616
    151  O          8.4840    5.1570  -14.1490 O.2   340  VAL340     -0.2715
    152  CB         7.9050    2.1350  -14.2050 C.3   340  VAL340      0.0290
    153  CG1        7.1410    2.0000  -15.5100 C.3   340  VAL340      0.0023
    154  CG2        8.1770    0.7670  -13.5850 C.3   340  VAL340      0.0023
    155  N          9.2570    4.5730  -16.1910 N.am  341  LYS341     -0.1977
    156  CA         9.0550    5.8720  -16.8150 C.3   341  LYS341      0.1596
    157  C          8.0350    5.7470  -17.9310 C.2   341  LYS341      0.2287
    158  O          8.0290    4.7530  -18.6610 O.2   341  LYS341     -0.2864
    159  CB        10.3570    6.4260  -17.3930 C.3   341  LYS341      0.0298
    160  CG        10.2010    7.7700  -18.0920 C.3   341  LYS341      0.0038
    161  CD         9.4370    8.7660  -17.2270 C.3   341  LYS341      0.0206
    162  CE         9.8000   10.2030  -17.5740 C.3   341  LYS341      0.1093
    163  NZ         8.9710   11.1890  -16.8210 N.3   341  LYS341     -0.1314
    164  N          5.9470    8.0320  -21.1350 N.3   343  ALA343     -0.1245
    165  CA         5.8190    9.2160  -21.9730 C.3   343  ALA343      0.1562
    166  C          4.6430    9.0280  -22.9170 C.2   343  ALA343      0.2260
    167  O          4.2340    7.9040  -23.2130 O.2   343  ALA343     -0.2867
    168  CB         7.1030    9.4930  -22.7680 C.3   343  ALA343      0.0290
    169  N          4.7800    1.2580  -26.8620 N.3   357  THR357     -0.1218
    170  CA         6.0440    0.5480  -26.9720 C.3   357  THR357      0.1862
    171  C          6.6970    0.4910  -25.6010 C.2   357  THR357      0.2287
    172  O          6.6660    1.4680  -24.8470 O.2   357  THR357     -0.2866
    173  CB         6.9870    1.2160  -27.9780 C.3   357  THR357      0.1770
    174  OG1        6.3130    1.3690  -29.2310 O.3   357  THR357     -0.2211
    175  CG2        8.2320    0.3720  -28.1860 C.3   357  THR357      0.0375
    176  N         10.0820   -0.9230  -23.1810 N.3   359  ILE359     -0.1245
    177  CA        11.4760   -1.3290  -23.0950 C.3   359  ILE359      0.1561
    178  C         11.7120   -1.7570  -21.6570 C.2   359  ILE359      0.2260
    179  O         11.5930   -0.9370  -20.7400 O.2   359  ILE359     -0.2867
    180  CB        12.4380   -0.1950  -23.4860 C.3   359  ILE359      0.0252
    181  CG1       12.0240    0.4150  -24.8280 C.3   359  ILE359      0.0019
    182  CG2       13.8630   -0.7030  -23.5450 C.3   359  ILE359      0.0019
    183  CD1       12.9030    1.5560  -25.2790 C.3   359  ILE359      0.0001
@<TRIPOS>BOND
     1    13    14    1
     2    14    15    1
     3    33    32    2
     4    32    31    1
     5    23    21    1
     6    34    31    1
     7    34    35    1
     8    15    17   am
     9    15    16    2
    10    17    18    1
    11    36    35    1
    12    31    30    1
    13     4     3    2
    14    19    18    1
    15    19    20    2
    16    65    64    1
    17    30    26   am
    18   174   173    1
    19    35    37    1
    20    18    21    1
    21    24    25    1
    22    21    22    1
    23     8    10   ar
    24     8     6   ar
    25     5     6    1
    26     5     2    1
    27    10    11   ar
    28     3     2    1
    29    66    64    1
    30    26    25    1
    31    26    27    2
    32    64    63    1
    33     6     7   ar
    34    25    28    1
    35   175   173    1
    36   173   170    1
    37     2     1    1
    38    11    12    1
    39    11     9   ar
    40     7     9   ar
    41   170   169    1
    42   170   171    1
    43    63    60    1
    44   130   128    1
    45    28    29    1
    46    49    48    2
    47    59    60    1
    48    59    53   am
    49   128   129    1
    50   128   125    1
    51    52    55    1
    52    52    53    1
    53    52    51    1
    54    60    61    1
    55   127   126    2
    56    55    56    1
    57   171   172    2
    58    48    51   am
    59    48    47    1
    60   129   131    1
    61    53    54    2
    62   183   181    1
    63   126   125    1
    64    46    47    1
    65   181   180    1
    66    50    47    1
    67   125   124    1
    68    83    81    1
    69    61    62    2
    70    56    57   ar
    71    56    58   ar
    72   124   121   am
    73   182   180    1
    74   180   177    1
    75   167   166    2
    76   176   177    1
    77   177   178    1
    78    81    80    1
    79    81    82    1
    80    80    77    1
    81   166   165    1
    82   168   165    1
    83   121   122    2
    84   121   120    1
    85    40    41    2
    86    40    39    1
    87   165   164    1
    88   120   119    1
    89   120   123    1
    90   117   116    2
    91   178   179    2
    92    38    39    1
    93    77    76    1
    94    77    78    1
    95    67    68    1
    96    76    69   am
    97    42    39    1
    98    42    43    1
    99   116   119   am
   100   116   115    1
   101    44    43    1
   102   118   115    1
   103    78    79    2
   104    73    74    1
   105    73    72    1
   106    71    68    1
   107    71    72    1
   108    43    45    1
   109    68    69    1
   110    74    75    1
   111    69    70    2
   112   115   114    1
   113    97    96    1
   114    97    98    1
   115   114   109   am
   116    99    98    1
   117    96    93    1
   118   158   157    2
   119   112   111    1
   120   109   108    1
   121   109   110    2
   122   160   159    1
   123   160   161    1
   124   157   156    1
   125    93    92    1
   126    93    94    1
   127   108   111    1
   128   108   107    1
   129   162   161    1
   130   162   163    1
   131    92    86   am
   132   159   156    1
   133    94    95    2
   134   111   113    1
   135    84    85    1
   136    91    89   am
   137   103   102    2
   138   156   155    1
   139    88    85    1
   140    88    89    1
   141   107   102   am
   142    86    85    1
   143    86    87    2
   144   105   104    1
   145   102   101    1
   146   155   150   am
   147    89    90    2
   148   153   152    1
   149   104   101    1
   150   104   106    1
   151   101   100    1
   152   150   149    1
   153   150   151    2
   154   149   152    1
   155   149   148    1
   156   152   154    1
   157   143   142    2
   158   148   142   am
   159   142   141    1
   160   141   144    1
   161   141   140    1
   162   144   145    1
   163   135   134    2
   164   145   147   am
   165   145   146    2
   166   140   134   am
   167   134   133    1
   168   138   137    2
   169   139   137   am
   170   137   136    1
   171   133   136    1
   172   133   132    1
