@<TRIPOS>MOLECULE
tmp/5ov9A03.pdb
 115 113 0 0 0
SMALL
GASTEIGER

@<TRIPOS>ATOM
      1  N         39.5430   23.6400   17.7630 N.3    72  TYR72      -0.1241
      2  CA        39.1290   24.8370   17.0510 C.3    72  TYR72       0.1605
      3  C         37.9700   25.5320   17.7440 C.2    72  TYR72       0.2264
      4  O         37.0530   24.8660   18.2200 O.2    72  TYR72      -0.2867
      5  CB        38.7210   24.4460   15.6400 C.3    72  TYR72       0.0534
      6  CG        38.0040   25.5150   14.8720 C.ar   72  TYR72      -0.0201
      7  CD1       36.6160   25.5510   14.8520 C.ar   72  TYR72      -0.0009
      8  CD2       38.7080   26.4840   14.1540 C.ar   72  TYR72      -0.0009
      9  CE1       35.9310   26.5290   14.1350 C.ar   72  TYR72       0.0417
     10  CE2       38.0350   27.4600   13.4370 C.ar   72  TYR72       0.0417
     11  CZ        36.6400   27.4760   13.4280 C.ar   72  TYR72       0.1957
     12  OH        35.9510   28.4430   12.7140 O.3    72  TYR72      -0.2866
     13  N         35.1050   28.6220   16.9570 N.3    74  ASP74      -0.1225
     14  CA        34.5700   29.4440   15.8700 C.3    74  ASP74       0.1805
     15  C         34.3650   30.8730   16.3080 C.2    74  ASP74       0.2598
     16  O         33.6320   31.1510   17.2570 O.2    74  ASP74      -0.2718
     17  CB        33.2540   28.9030   15.3270 C.3    74  ASP74       0.1424
     18  CG        32.9840   29.4020   13.8920 C.2    74  ASP74       0.3668
     19  OD1       33.1430   28.6020   12.9460 O.co2  74  ASP74      -0.2456
     20  OD2       32.6730   30.6060   13.7080 O.co2  74  ASP74      -0.2456
     21  N         35.0180   31.7810   15.5990 N.am   75  THR75      -0.1939
     22  CA        35.0280   33.1870   15.9860 C.3    75  THR75       0.2028
     23  C         34.5160   34.0860   14.8540 C.2    75  THR75       0.2642
     24  O         34.5070   35.3180   14.9770 O.2    75  THR75      -0.2714
     25  CB        36.4410   33.6170   16.3950 C.3    75  THR75       0.1808
     26  OG1       37.3450   33.3650   15.3140 O.3    75  THR75      -0.2208
     27  CG2       36.8970   32.8310   17.6440 C.3    75  THR75       0.0379
     28  N         34.0680   33.4720   13.7620 N.am   76  LEU76      -0.1963
     29  CA        33.6820   34.2410   12.5810 C.3    76  LEU76       0.1728
     30  C         32.5140   35.1950   12.8530 C.2    76  LEU76       0.2616
     31  O         32.5480   36.3460   12.4120 O.2    76  LEU76      -0.2715
     32  CB        33.3200   33.3040   11.4130 C.3    76  LEU76       0.0311
     33  CG        33.0080   34.0470   10.1210 C.3    76  LEU76       0.0022
     34  CD1       34.1540   35.0310    9.7190 C.3    76  LEU76       0.0001
     35  CD2       32.7020   33.0750    8.9780 C.3    76  LEU76       0.0001
     36  N         31.4910   34.7140   13.5650 N.am   77  TYR77      -0.1974
     37  CA        30.2450   35.4710   13.7630 C.3    77  TYR77       0.1639
     38  C         30.0020   35.8370   15.2320 C.2    77  TYR77       0.2290
     39  O         29.2490   35.1360   15.9100 O.2    77  TYR77      -0.2864
     40  CB        29.0430   34.6710   13.2290 C.3    77  TYR77       0.0560
     41  CG        29.0390   34.5110   11.7070 C.ar   77  TYR77      -0.0198
     42  CD1       28.9880   35.6290   10.8770 C.ar   77  TYR77      -0.0009
     43  CD2       29.0820   33.2490   11.1040 C.ar   77  TYR77      -0.0009
     44  CE1       28.9790   35.5030    9.4760 C.ar   77  TYR77       0.0417
     45  CE2       29.0630   33.1120    9.7090 C.ar   77  TYR77       0.0417
     46  CZ        29.0110   34.2470    8.9070 C.ar   77  TYR77       0.1957
     47  OH        29.0080   34.1360    7.5380 O.3    77  TYR77      -0.2866
     48  N         26.4300   29.4280   15.5540 N.3    83  THR83      -0.1218
     49  CA        27.7540   28.8430   15.7400 C.3    83  THR83       0.1862
     50  C         28.0940   28.6830   17.2500 C.2    83  THR83       0.2287
     51  O         28.6820   27.6760   17.6600 O.2    83  THR83      -0.2866
     52  CB        28.8120   29.6910   15.0210 C.3    83  THR83       0.1770
     53  OG1       28.6780   31.0560   15.4320 O.3    83  THR83      -0.2211
     54  CG2       28.6310   29.6070   13.4600 C.3    83  THR83       0.0375
     55  N         40.0640   20.8540   -1.9500 N.3   285  GLU285     -0.1231
     56  CA        39.0650   21.8230   -1.5820 C.3   285  GLU285      0.1699
     57  C         37.7440   21.0850   -1.3300 C.2   285  GLU285      0.2592
     58  O         37.2350   20.3800   -2.2220 O.2   285  GLU285     -0.2718
     59  CB        38.9360   22.8520   -2.7070 C.3   285  GLU285      0.0402
     60  CG        38.0900   24.0570   -2.4040 C.3   285  GLU285      0.1161
     61  CD        38.1250   25.0740   -3.5200 C.2   285  GLU285      0.3649
     62  OE1       38.1140   24.6700   -4.7070 O.co2 285  GLU285     -0.2457
     63  OE2       38.1840   26.2810   -3.2110 O.co2 285  GLU285     -0.2457
     64  N         37.1890   21.2440   -0.1310 N.am  286  SER286     -0.1952
     65  CA        36.0570   20.4060    0.3040 C.3   286  SER286      0.1924
     66  C         35.1990   21.0060    1.4130 C.2   286  SER286      0.2314
     67  O         35.6520   21.8650    2.1730 O.2   286  SER286     -0.2863
     68  CB        36.5710   19.0450    0.7810 C.3   286  SER286      0.2116
     69  OG        37.4270   19.2030    1.8930 O.3   286  SER286     -0.2180
     70  N         27.7010   26.8700    3.6350 N.3   333  VAL333     -0.1231
     71  CA        28.2060   28.2240    3.9320 C.3   333  VAL333      0.1692
     72  C         29.6500   28.1600    4.4280 C.2   333  VAL333      0.2592
     73  O         30.2980   29.1850    4.6260 O.2   333  VAL333     -0.2718
     74  CB        27.3280   28.9750    4.9660 C.3   333  VAL333      0.0266
     75  CG1       25.9370   29.3030    4.3760 C.3   333  VAL333      0.0020
     76  CG2       27.1930   28.1770    6.2150 C.3   333  VAL333      0.0020
     77  N         30.1750   26.9510    4.5750 N.am  334  TYR334     -0.1962
     78  CA        31.5580   26.7860    5.0220 C.3   334  TYR334      0.1771
     79  C         32.5660   26.6280    3.8630 C.2   334  TYR334      0.2620
     80  O         33.7150   26.2480    4.0930 O.2   334  TYR334     -0.2715
     81  CB        31.6570   25.5830    5.9850 C.3   334  TYR334      0.0574
     82  CG        31.1680   25.9120    7.3860 C.ar  334  TYR334     -0.0198
     83  CD1       29.8100   25.8590    7.7010 C.ar  334  TYR334     -0.0009
     84  CD2       32.0630   26.2940    8.3890 C.ar  334  TYR334     -0.0009
     85  CE1       29.3520   26.1630    8.9760 C.ar  334  TYR334      0.0417
     86  CE2       31.6180   26.6050    9.6740 C.ar  334  TYR334      0.0417
     87  CZ        30.2550   26.5380    9.9620 C.ar  334  TYR334      0.1957
     88  OH        29.7870   26.8510   11.2250 O.3   334  TYR334     -0.2866
     89  N         32.1680   26.9220    2.6310 N.am  335  GLY335     -0.1954
     90  CA        33.1240   26.8490    1.5390 C.3   335  GLY335      0.1869
     91  C         32.6260   26.6490    0.1070 C.2   335  GLY335      0.2309
     92  O         33.4460   26.4940   -0.7970 O.2   335  GLY335     -0.2863
     93  N         24.9310   32.6560    5.1170 N.3   341  LYS341     -0.1245
     94  CA        23.8390   32.5430    6.0690 C.3   341  LYS341      0.1561
     95  C         23.0260   33.8310    6.0120 C.2   341  LYS341      0.2260
     96  O         21.8710   33.8540    6.4390 O.2   341  LYS341     -0.2867
     97  CB        24.3530   32.2700    7.5050 C.3   341  LYS341      0.0271
     98  CG        24.9170   33.4920    8.2700 C.3   341  LYS341      0.0035
     99  CD        25.3540   33.1230    9.6770 C.3   341  LYS341      0.0206
    100  CE        25.6360   34.3450   10.5230 C.3   341  LYS341      0.1093
    101  NZ        24.4100   35.1860   10.7530 N.3   341  LYS341     -0.1314
    102  N         19.8820   30.1660   12.2390 N.3   432  TRP432     -0.1241
    103  CA        20.2770   29.9450   10.8350 C.3   432  TRP432      0.1605
    104  C         19.1000   30.3470    9.9350 C.2   432  TRP432      0.2264
    105  O         17.9480   30.2590   10.3650 O.2   432  TRP432     -0.2867
    106  CB        20.6660   28.4900   10.5930 C.3   432  TRP432      0.0550
    107  CG        21.9330   28.0870   11.2660 C.ar  432  TRP432      0.0003
    108  CD1       22.0460   27.3090   12.3810 C.ar  432  TRP432      0.0946
    109  CD2       23.2770   28.4410   10.8850 C.ar  432  TRP432      0.0152
    110  NE1       23.3720   27.1620   12.7230 N.ar  432  TRP432     -0.2442
    111  CE2       24.1490   27.8430   11.8310 C.ar  432  TRP432      0.0810
    112  CE3       23.8280   29.2050    9.8470 C.ar  432  TRP432      0.0012
    113  CZ2       25.5410   27.9660   11.7570 C.ar  432  TRP432      0.0191
    114  CZ3       25.2130   29.3300    9.7720 C.ar  432  TRP432      0.0001
    115  CH2       26.0530   28.7140   10.7210 C.ar  432  TRP432      0.0015
@<TRIPOS>BOND
     1    62    61   ar
     2    61    63   ar
     3    61    60    1
     4    59    60    1
     5    59    56    1
     6    58    57    2
     7    55    56    1
     8    56    57    1
     9    57    64   am
    10    92    91    2
    11    64    65    1
    12    91    90    1
    13    65    68    1
    14    65    66    1
    15    68    69    1
    16    66    67    2
    17    90    89    1
    18    89    79   am
    19    70    71    1
    20    79    80    2
    21    79    78    1
    22    71    72    1
    23    71    74    1
    24    75    74    1
    25    72    77   am
    26    72    73    2
    27    77    78    1
    28    74    76    1
    29    78    81    1
    30    93    94    1
    31    81    82    1
    32    95    94    1
    33    95    96    2
    34    94    97    1
    35    82    83   ar
    36    82    84   ar
    37    97    98    1
    38    47    46    1
    39    83    85   ar
    40    98    99    1
    41    84    86   ar
    42    46    44   ar
    43    46    45   ar
    44    85    87   ar
    45    35    33    1
    46    44    42   ar
    47    86    87   ar
    48    99   100    1
    49    45    43   ar
    50    34    33    1
    51   114   112   ar
    52   114   115   ar
    53   112   109   ar
    54   104   105    2
    55   104   103    1
    56    87    88    1
    57    33    32    1
    58   100   101    1
    59   106   103    1
    60   106   107    1
    61   115   113   ar
    62   103   102    1
    63    42    41   ar
    64   109   107   ar
    65   109   111   ar
    66    43    41   ar
    67   107   108   ar
    68    32    29    1
    69    41    40    1
    70   113   111   ar
    71   111   110   ar
    72   108   110   ar
    73    31    30    2
    74    29    30    1
    75    29    28    1
    76    12    11    1
    77    30    36   am
    78    19    18   ar
    79    40    37    1
    80    11    10   ar
    81    11     9   ar
    82    10     8   ar
    83    54    52    1
    84    36    37    1
    85    20    18   ar
    86    28    23   am
    87    37    38    1
    88    18    17    1
    89     9     7   ar
    90     8     6   ar
    91     7     6   ar
    92    23    24    2
    93    23    22    1
    94     6     5    1
    95    52    53    1
    96    52    49    1
    97    38    39    2
    98    26    25    1
    99    17    14    1
   100    48    49    1
   101    21    22    1
   102    21    15   am
   103     5     2    1
   104    49    50    1
   105    14    15    1
   106    14    13    1
   107    22    25    1
   108    15    16    2
   109    25    27    1
   110     2     3    1
   111     2     1    1
   112    50    51    2
   113     3     4    2
