@<TRIPOS>MOLECULE
tmp/5ov9A04.pdb
 110 110 0 0 0
SMALL
GASTEIGER

@<TRIPOS>ATOM
      1  N         39.5430   23.6400   17.7630 N.3    72  TYR72      -0.1227
      2  CA        39.1290   24.8370   17.0510 C.3    72  TYR72       0.1736
      3  C         37.9700   25.5320   17.7440 C.2    72  TYR72       0.2595
      4  O         37.0530   24.8660   18.2200 O.2    72  TYR72      -0.2718
      5  CB        38.7210   24.4460   15.6400 C.3    72  TYR72       0.0548
      6  CG        38.0040   25.5150   14.8720 C.ar   72  TYR72      -0.0200
      7  CD1       36.6160   25.5510   14.8520 C.ar   72  TYR72      -0.0009
      8  CD2       38.7080   26.4840   14.1540 C.ar   72  TYR72      -0.0009
      9  CE1       35.9310   26.5290   14.1350 C.ar   72  TYR72       0.0417
     10  CE2       38.0350   27.4600   13.4370 C.ar   72  TYR72       0.0417
     11  CZ        36.6400   27.4760   13.4280 C.ar   72  TYR72       0.1957
     12  OH        35.9510   28.4430   12.7140 O.3    72  TYR72      -0.2866
     13  N         38.0230   26.8570   17.8260 N.am   73  VAL73      -0.1966
     14  CA        36.8810   27.6560   18.3020 C.3    73  VAL73       0.1727
     15  C         36.4150   28.6060   17.2120 C.2    73  VAL73       0.2616
     16  O         37.2250   29.3290   16.6310 O.2    73  VAL73      -0.2715
     17  CB        37.2170   28.4890   19.5540 C.3    73  VAL73       0.0290
     18  CG1       36.0050   29.2940   20.0280 C.3    73  VAL73       0.0023
     19  CG2       37.6570   27.5960   20.6510 C.3    73  VAL73       0.0023
     20  N         35.1050   28.6220   16.9570 N.am   74  ASP74      -0.1971
     21  CA        34.5700   29.4440   15.8700 C.3    74  ASP74       0.1709
     22  C         34.3650   30.8730   16.3080 C.2    74  ASP74       0.2293
     23  O         33.6320   31.1510   17.2570 O.2    74  ASP74      -0.2864
     24  CB        33.2540   28.9030   15.3270 C.3    74  ASP74       0.1436
     25  CG        32.9840   29.4020   13.8920 C.2    74  ASP74       0.3671
     26  OD1       33.1430   28.6020   12.9460 O.co2  74  ASP74      -0.2456
     27  OD2       32.6730   30.6060   13.7080 O.co2  74  ASP74      -0.2456
     28  N         36.7470   17.0210   15.2720 N.3   124  TYR124     -0.1241
     29  CA        37.7010   18.0970   15.5220 C.3   124  TYR124      0.1605
     30  C         37.1660   19.0340   16.5950 C.2   124  TYR124      0.2264
     31  O         37.8160   20.0130   16.9450 O.2   124  TYR124     -0.2867
     32  CB        38.0060   18.9170   14.2330 C.3   124  TYR124      0.0534
     33  CG        36.8440   19.7970   13.8020 C.ar  124  TYR124     -0.0201
     34  CD1       36.6810   21.0840   14.3190 C.ar  124  TYR124     -0.0009
     35  CD2       35.8880   19.3270   12.9040 C.ar  124  TYR124     -0.0009
     36  CE1       35.6020   21.8740   13.9470 C.ar  124  TYR124      0.0417
     37  CE2       34.8210   20.1110   12.5180 C.ar  124  TYR124      0.0417
     38  CZ        34.6760   21.3730   13.0490 C.ar  124  TYR124      0.1957
     39  OH        33.6040   22.1400   12.6800 O.3   124  TYR124     -0.2866
     40  N         47.9470   24.8710   20.5350 N.3   272  GLN272     -0.1245
     41  CA        47.2870   25.8030   19.6210 C.3   272  GLN272      0.1566
     42  C         47.9730   25.8470   18.2630 C.2   272  GLN272      0.2260
     43  O         47.3270   26.1660   17.2710 O.2   272  GLN272     -0.2867
     44  CB        47.2290   27.2210   20.2090 C.3   272  GLN272      0.0367
     45  CG        46.3720   28.2220   19.4120 C.3   272  GLN272      0.0905
     46  CD        44.9100   27.8130   19.3290 C.2   272  GLN272      0.2608
     47  OE1       44.2830   27.4730   20.3330 O.2   272  GLN272     -0.2717
     48  NE2       44.3620   27.8410   18.1250 N.am  272  GLN272     -0.0878
     49  N         46.2440   23.1070   16.3120 N.3   275  VAL275     -0.1231
     50  CA        44.9090   23.5330   15.9160 C.3   275  VAL275      0.1692
     51  C         44.9680   24.5340   14.7470 C.2   275  VAL275      0.2592
     52  O         44.1100   24.5280   13.8670 O.2   275  VAL275     -0.2718
     53  CB        44.1620   24.1760   17.0990 C.3   275  VAL275      0.0266
     54  CG1       42.8170   24.7400   16.6540 C.3   275  VAL275      0.0020
     55  CG2       43.9480   23.1520   18.2260 C.3   275  VAL275      0.0020
     56  N         45.9970   25.3760   14.7530 N.am  276  ASP276     -0.1974
     57  CA        46.1430   26.4480   13.7980 C.3   276  ASP276      0.1709
     58  C         46.4260   25.8960   12.3910 C.2   276  ASP276      0.2293
     59  O         46.1330   26.5510   11.3950 O.2   276  ASP276     -0.2864
     60  CB        47.2620   27.3870   14.2260 C.3   276  ASP276      0.1436
     61  CG        46.8190   28.4140   15.3040 C.2   276  ASP276      0.3671
     62  OD1       45.6570   28.3760   15.7480 O.co2 276  ASP276     -0.2456
     63  OD2       47.6470   29.2670   15.7070 O.co2 276  ASP276     -0.2456
     64  N         43.6210   22.0520    9.4750 N.3   279  TRP279     -0.1227
     65  CA        42.8400   22.0990    8.2380 C.3   279  TRP279      0.1737
     66  C         43.7020   22.1650    6.9720 C.2   279  TRP279      0.2595
     67  O         43.2020   21.8870    5.8850 O.2   279  TRP279     -0.2718
     68  CB        41.8840   23.3110    8.2340 C.3   279  TRP279      0.0564
     69  CG        40.8740   23.2450    9.3170 C.ar  279  TRP279      0.0003
     70  CD1       40.9180   23.8760   10.5350 C.ar  279  TRP279      0.0946
     71  CD2       39.6660   22.4910    9.3000 C.ar  279  TRP279      0.0152
     72  NE1       39.8050   23.5630   11.2640 N.ar  279  TRP279     -0.2442
     73  CE2       39.0140   22.7190   10.5320 C.ar  279  TRP279      0.0810
     74  CE3       39.0640   21.6490    8.3630 C.ar  279  TRP279      0.0012
     75  CZ2       37.7960   22.1290   10.8510 C.ar  279  TRP279      0.0191
     76  CZ3       37.8500   21.0800    8.6710 C.ar  279  TRP279      0.0001
     77  CH2       37.2320   21.3130    9.9140 C.ar  279  TRP279      0.0015
     78  N         44.9770   22.5260    7.1150 N.am  280  HIS280     -0.1975
     79  CA        45.8500   22.7370    5.9550 C.3   280  HIS280      0.1656
     80  C         46.2770   21.4540    5.2750 C.2   280  HIS280      0.2291
     81  O         46.8210   21.5000    4.1960 O.2   280  HIS280     -0.2864
     82  CB        47.1180   23.4910    6.3470 C.3   280  HIS280      0.0771
     83  CG        46.8850   24.9290    6.6740 C.ar  280  HIS280      0.0820
     84  ND1       46.3220   25.3350    7.8620 N.ar  280  HIS280     -0.2267
     85  CD2       47.1240   26.0550    5.9680 C.ar  280  HIS280      0.1154
     86  CE1       46.2300   26.6490    7.8760 C.ar  280  HIS280      0.1986
     87  NE2       46.7180   27.1110    6.7440 N.ar  280  HIS280     -0.2212
     88  N         37.2060   16.3820    7.2920 N.3   290  PHE290     -0.1241
     89  CA        37.9010   16.7670    8.4950 C.3   290  PHE290      0.1605
     90  C         39.2270   16.0360    8.4660 C.2   290  PHE290      0.2264
     91  O         39.2630   14.8950    8.0420 O.2   290  PHE290     -0.2867
     92  CB        37.0270   16.4170    9.7190 C.3   290  PHE290      0.0534
     93  CG        35.5630   16.7020    9.5070 C.ar  290  PHE290     -0.0203
     94  CD1       35.0760   18.0160    9.5130 C.ar  290  PHE290     -0.0042
     95  CD2       34.6760   15.6660    9.2560 C.ar  290  PHE290     -0.0042
     96  CE1       33.7140   18.2780    9.3050 C.ar  290  PHE290     -0.0003
     97  CE2       33.3180   15.9190    9.0380 C.ar  290  PHE290     -0.0003
     98  CZ        32.8380   17.2180    9.0600 C.ar  290  PHE290     -0.0000
     99  N         30.1750   26.9510    4.5750 N.3   334  TYR334     -0.1241
    100  CA        31.5580   26.7860    5.0220 C.3   334  TYR334      0.1605
    101  C         32.5660   26.6280    3.8630 C.2   334  TYR334      0.2264
    102  O         33.7150   26.2480    4.0930 O.2   334  TYR334     -0.2867
    103  CB        31.6570   25.5830    5.9850 C.3   334  TYR334      0.0534
    104  CG        31.1680   25.9120    7.3860 C.ar  334  TYR334     -0.0201
    105  CD1       29.8100   25.8590    7.7010 C.ar  334  TYR334     -0.0009
    106  CD2       32.0630   26.2940    8.3890 C.ar  334  TYR334     -0.0009
    107  CE1       29.3520   26.1630    8.9760 C.ar  334  TYR334      0.0417
    108  CE2       31.6180   26.6050    9.6740 C.ar  334  TYR334      0.0417
    109  CZ        30.2550   26.5380    9.9620 C.ar  334  TYR334      0.1957
    110  OH        29.7870   26.8510   11.2250 O.3   334  TYR334     -0.2866
@<TRIPOS>BOND
     1   101   102    2
     2   101   100    1
     3    81    80    2
     4    99   100    1
     5   100   103    1
     6    80    79    1
     7    67    66    2
     8    79    82    1
     9    79    78    1
    10    85    83   ar
    11    85    87   ar
    12   103   104    1
    13    82    83    1
    14    83    84   ar
    15    87    86   ar
    16    66    78   am
    17    66    65    1
    18    88    89    1
    19   104   105   ar
    20   104   106   ar
    21   105   107   ar
    22    84    86   ar
    23    91    90    2
    24    68    65    1
    25    68    69    1
    26    65    64    1
    27    74    76   ar
    28    74    71   ar
    29   106   108   ar
    30    90    89    1
    31    89    92    1
    32    76    77   ar
    33   107   109   ar
    34    97    98   ar
    35    97    95   ar
    36    98    96   ar
    37    95    93   ar
    38    71    69   ar
    39    71    73   ar
    40    96    94   ar
    41    69    70   ar
    42    93    94   ar
    43    93    92    1
    44   108   109   ar
    45    77    75   ar
    46   109   110    1
    47    73    75   ar
    48    73    72   ar
    49    70    72   ar
    50    59    58    2
    51    58    57    1
    52    37    35   ar
    53    37    38   ar
    54    39    38    1
    55    12    11    1
    56    35    33   ar
    57    26    25   ar
    58    38    36   ar
    59    11    10   ar
    60    11     9   ar
    61    10     8   ar
    62    27    25   ar
    63    57    60    1
    64    57    56    1
    65    33    32    1
    66    33    34   ar
    67    52    51    2
    68    25    24    1
    69    36    34   ar
    70     9     7   ar
    71     8     6   ar
    72    60    61    1
    73    32    29    1
    74    51    56   am
    75    51    50    1
    76     7     6   ar
    77     6     5    1
    78    28    29    1
    79    61    63   ar
    80    61    62   ar
    81    24    21    1
    82    29    30    1
    83     5     2    1
    84    21    22    1
    85    21    20    1
    86    50    49    1
    87    50    53    1
    88    22    23    2
    89    30    31    2
    90    16    15    2
    91    54    53    1
    92    20    15   am
    93     2     3    1
    94     2     1    1
    95    53    55    1
    96    15    14    1
    97    43    42    2
    98     3    13   am
    99     3     4    2
   100    13    14    1
   101    48    46   am
   102    42    41    1
   103    14    17    1
   104    46    45    1
   105    46    47    2
   106    45    44    1
   107    17    18    1
   108    17    19    1
   109    41    44    1
   110    41    40    1
