@<TRIPOS>MOLECULE
tmp/5ov9B04.pdb
 94 95 0 0 0
SMALL
GASTEIGER

@<TRIPOS>ATOM
      1  N         19.0190  -11.2640  -41.6940 N.3   276  TRP276     -0.1227
      2  CA        19.1800  -10.9770  -40.2760 C.3   276  TRP276      0.1737
      3  C         20.5010  -11.4810  -39.7340 C.2   276  TRP276      0.2595
      4  O         20.9950  -10.9600  -38.7420 O.2   276  TRP276     -0.2718
      5  CB        18.0370  -11.5970  -39.4780 C.3   276  TRP276      0.0564
      6  CG        16.6700  -10.9700  -39.7660 C.ar  276  TRP276      0.0003
      7  CD1       15.7320  -11.4180  -40.6570 C.ar  276  TRP276      0.0946
      8  CD2       16.0950   -9.8000  -39.1350 C.ar  276  TRP276      0.0152
      9  NE1       14.6220  -10.5990  -40.6230 N.ar  276  TRP276     -0.2442
     10  CE2       14.8200   -9.6050  -39.7010 C.ar  276  TRP276      0.0810
     11  CE3       16.5350   -8.9110  -38.1420 C.ar  276  TRP276      0.0012
     12  CZ2       13.9830   -8.5620  -39.3140 C.ar  276  TRP276      0.0191
     13  CZ3       15.7060   -7.8690  -37.7760 C.ar  276  TRP276      0.0001
     14  CH2       14.4430   -7.7050  -38.3580 C.ar  276  TRP276      0.0015
     15  N         21.0730  -12.4860  -40.3890 N.am  277  HIS277     -0.1975
     16  CA        22.2710  -13.1480  -39.8860 C.3   277  HIS277      0.1656
     17  C         23.5120  -12.2690  -39.7840 C.2   277  HIS277      0.2291
     18  O         24.4970  -12.7070  -39.2020 O.2   277  HIS277     -0.2864
     19  CB        22.6220  -14.3410  -40.7620 C.3   277  HIS277      0.0771
     20  CG        21.6370  -15.4570  -40.6720 C.ar  277  HIS277      0.0820
     21  ND1       20.3610  -15.3610  -41.1810 N.ar  277  HIS277     -0.2267
     22  CD2       21.7420  -16.6980  -40.1410 C.ar  277  HIS277      0.1154
     23  CE1       19.7190  -16.4960  -40.9620 C.ar  277  HIS277      0.1986
     24  NE2       20.5340  -17.3220  -40.3300 N.ar  277  HIS277     -0.2212
     25  N         23.6230   -9.1700  -38.2960 N.3   279  LEU279     -0.1231
     26  CA        23.6140   -8.2550  -37.1400 C.3   279  LEU279      0.1678
     27  C         24.7750   -8.5790  -36.2130 C.2   279  LEU279      0.2434
     28  O         25.0490   -9.7420  -35.9320 O.2   279  LEU279     -0.2733
     29  CB        22.2810   -8.3080  -36.3730 C.3   279  LEU279      0.0284
     30  CG        21.1140   -7.5620  -37.0480 C.3   279  LEU279      0.0019
     31  CD1       19.8190   -7.7820  -36.3010 C.3   279  LEU279      0.0001
     32  CD2       21.3820   -6.0730  -37.2010 C.3   279  LEU279      0.0001
     33  N         25.4910   -7.5480  -35.7550 N.am  280  PRO280     -0.2718
     34  CA        26.6960   -7.8070  -34.9540 C.3   280  PRO280      0.1535
     35  C         26.4000   -8.3450  -33.5480 C.2   280  PRO280      0.2598
     36  O         27.1450   -9.1780  -33.0360 O.2   280  PRO280     -0.2715
     37  CB        27.3840   -6.4350  -34.8800 C.3   280  PRO280      0.0310
     38  CG        26.3400   -5.4250  -35.1600 C.3   280  PRO280      0.0237
     39  CD        25.1660   -6.1160  -35.8490 C.3   280  PRO280      0.0939
     40  N         25.3120   -7.8900  -32.9440 N.am  281  GLN281     -0.1964
     41  CA        24.9300   -8.3520  -31.6060 C.3   281  GLN281      0.1733
     42  C         23.5440   -9.0020  -31.5900 C.2   281  GLN281      0.2616
     43  O         22.6790   -8.7430  -32.4530 O.2   281  GLN281     -0.2715
     44  CB        24.9530   -7.1830  -30.5850 C.3   281  GLN281      0.0408
     45  CG        26.3460   -6.6450  -30.2010 C.3   281  GLN281      0.0908
     46  CD        26.9120   -5.6380  -31.1930 C.2   281  GLN281      0.2608
     47  OE1       26.1900   -4.8090  -31.7330 O.2   281  GLN281     -0.2717
     48  NE2       28.2130   -5.7110  -31.4360 N.am  281  GLN281     -0.0878
     49  N         23.3720   -9.8690  -30.6030 N.am  282  GLU282     -0.1963
     50  CA        22.0720  -10.3150  -30.1340 C.3   282  GLU282      0.1733
     51  C         21.2730   -9.0830  -29.7100 C.2   282  GLU282      0.2617
     52  O         21.6650   -8.3620  -28.7750 O.2   282  GLU282     -0.2715
     53  CB        22.2370  -11.2970  -28.9570 C.3   282  GLU282      0.0429
     54  CG        20.9420  -12.0250  -28.6370 C.3   282  GLU282      0.1163
     55  CD        21.0500  -13.0000  -27.4940 C.2   282  GLU282      0.3649
     56  OE1       22.1750  -13.3220  -27.0500 O.co2 282  GLU282     -0.2457
     57  OE2       19.9840  -13.4450  -27.0270 O.co2 282  GLU282     -0.2457
     58  N         20.1580   -8.8370  -30.3820 N.am  283  SER283     -0.1936
     59  CA        19.4740   -7.5610  -30.2590 C.3   283  SER283      0.2055
     60  C         17.9900   -7.6350  -30.5670 C.2   283  SER283      0.2642
     61  O         17.5010   -8.6360  -31.1050 O.2   283  SER283     -0.2714
     62  CB        20.1410   -6.5350  -31.1820 C.3   283  SER283      0.2130
     63  OG        20.0300   -6.9010  -32.5570 O.3   283  SER283     -0.2179
     64  N         17.2790   -6.5720  -30.1860 N.am  284  ILE284     -0.1977
     65  CA        15.9410   -6.2980  -30.7070 C.3   284  ILE284      0.1596
     66  C         15.9370   -4.8410  -31.1560 C.2   284  ILE284      0.2287
     67  O         16.8220   -4.0920  -30.7890 O.2   284  ILE284     -0.2864
     68  CB        14.8240   -6.5600  -29.6880 C.3   284  ILE284      0.0276
     69  CG1       15.0290   -5.7170  -28.4250 C.3   284  ILE284      0.0022
     70  CG2       14.7470   -8.0700  -29.3550 C.3   284  ILE284      0.0022
     71  CD1       13.9210   -5.8920  -27.4080 C.3   284  ILE284      0.0001
     72  N         16.8280   -3.7710  -33.9020 N.3   286  ARG286     -0.1245
     73  CA        17.9560   -3.5880  -34.8150 C.3   286  ARG286      0.1563
     74  C         17.6490   -4.2770  -36.1460 C.2   286  ARG286      0.2260
     75  O         17.2040   -5.4210  -36.1920 O.2   286  ARG286     -0.2867
     76  CB        19.2620   -4.1550  -34.2550 C.3   286  ARG286      0.0307
     77  CG        19.8240   -3.4320  -33.0480 C.3   286  ARG286      0.0489
     78  CD        20.1020   -1.9640  -33.2820 C.3   286  ARG286      0.2205
     79  NE        20.6080   -1.3530  -32.0710 N.pl3 286  ARG286     -0.0865
     80  CZ        19.8940   -0.6360  -31.2070 C.cat 286  ARG286      0.5346
     81  NH1       18.6110   -0.3820  -31.4020 N.pl3 286  ARG286      0.1354
     82  NH2       20.4870   -0.1560  -30.1380 N.pl3 286  ARG286      0.1354
     83  N         10.2010  -10.3890  -29.6180 N.3   331  TYR331     -0.1241
     84  CA        10.9880  -10.8200  -30.7800 C.3   331  TYR331      0.1605
     85  C         12.4060  -11.3050  -30.4280 C.2   331  TYR331      0.2264
     86  O         13.1610  -11.7080  -31.3140 O.2   331  TYR331     -0.2867
     87  CB        11.0640   -9.6790  -31.8040 C.3   331  TYR331      0.0534
     88  CG         9.7880   -9.5400  -32.6150 C.ar  331  TYR331     -0.0201
     89  CD1        8.7990   -8.6280  -32.2530 C.ar  331  TYR331     -0.0009
     90  CD2        9.5570  -10.3550  -33.7370 C.ar  331  TYR331     -0.0009
     91  CE1        7.6210   -8.5170  -32.9860 C.ar  331  TYR331      0.0417
     92  CE2        8.3970  -10.2510  -34.4680 C.ar  331  TYR331      0.0417
     93  CZ         7.4300   -9.3300  -34.0980 C.ar  331  TYR331      0.1957
     94  OH         6.2700   -9.2410  -34.8390 O.3   331  TYR331     -0.2866
@<TRIPOS>BOND
     1     1     2    1
     2    21    23   ar
     3    21    20   ar
     4    23    24   ar
     5    19    20    1
     6    19    16    1
     7    20    22   ar
     8     7     9   ar
     9     7     6   ar
    10     9    10   ar
    11    15    16    1
    12    15     3   am
    13    24    22   ar
    14     2     3    1
    15     2     5    1
    16    16    17    1
    17    17    18    2
    18     6     5    1
    19     6     8   ar
    20     3     4    2
    21    10    12   ar
    22    10     8   ar
    23    12    14   ar
    24     8    11   ar
    25    14    13   ar
    26    25    26    1
    27    11    13   ar
    28    32    30    1
    29    26    29    1
    30    26    27    1
    31    30    29    1
    32    30    31    1
    33    27    28    2
    34    27    33   am
    35    75    74    2
    36    74    73    1
    37    39    33    1
    38    39    38    1
    39    33    34    1
    40    38    37    1
    41    34    37    1
    42    34    35    1
    43    94    93    1
    44    73    76    1
    45    73    72    1
    46    92    93   ar
    47    92    90   ar
    48    76    77    1
    49    93    91   ar
    50    90    88   ar
    51    35    36    2
    52    35    40   am
    53    78    77    1
    54    78    79    1
    55    91    89   ar
    56    40    41    1
    57    88    89   ar
    58    88    87    1
    59    63    62    1
    60    43    42    2
    61    79    80    2
    62    87    84    1
    63    47    46    2
    64    41    42    1
    65    41    44    1
    66    42    49   am
    67    48    46   am
    68    81    80    1
    69    86    85    2
    70    80    82    1
    71    46    45    1
    72    62    59    1
    73    66    67    2
    74    66    65    1
    75    61    60    2
    76    84    85    1
    77    84    83    1
    78    65    64    1
    79    65    68    1
    80    49    50    1
    81    44    45    1
    82    60    59    1
    83    60    64   am
    84    58    59    1
    85    58    51   am
    86    50    51    1
    87    50    53    1
    88    51    52    2
    89    68    70    1
    90    68    69    1
    91    53    54    1
    92    54    55    1
    93    69    71    1
    94    55    56   ar
    95    55    57   ar
