@<TRIPOS>MOLECULE
tmp/5ovbA00.pdb
 134 130 0 0 0
SMALL
GASTEIGER

@<TRIPOS>ATOM
      1  N          5.0950   47.6380   11.6480 N.3    40  TRP40      -0.1228
      2  CA         5.5640   48.9780   11.2880 C.3    40  TRP40       0.1722
      3  C          6.2810   49.7450   12.4110 C.2    40  TRP40       0.2437
      4  O          7.2410   50.4650   12.0830 O.2    40  TRP40      -0.2733
      5  CB         4.4090   49.7960   10.6740 C.3    40  TRP40       0.0563
      6  CG         3.4830   50.4780   11.6340 C.ar   40  TRP40       0.0003
      7  CD1        3.5570   51.7780   12.0650 C.ar   40  TRP40       0.0946
      8  CD2        2.3240   49.9100   12.2630 C.ar   40  TRP40       0.0152
      9  NE1        2.5150   52.0470   12.9410 N.ar   40  TRP40      -0.2442
     10  CE2        1.7530   50.9160   13.0790 C.ar   40  TRP40       0.0810
     11  CE3        1.7260   48.6410   12.2340 C.ar   40  TRP40       0.0012
     12  CZ2        0.6110   50.6920   13.8480 C.ar   40  TRP40       0.0191
     13  CZ3        0.5990   48.4220   12.9940 C.ar   40  TRP40       0.0001
     14  CH2        0.0490   49.4450   13.7930 C.ar   40  TRP40       0.0015
     15  N          5.9400   49.6320   13.7070 N.am   41  PRO41      -0.2718
     16  CA         6.7510   50.3470   14.7200 C.3    41  PRO41       0.1535
     17  C          8.1630   49.7960   14.8520 C.2    41  PRO41       0.2598
     18  O          9.0210   50.4520   15.4570 O.2    41  PRO41      -0.2715
     19  CB         5.9560   50.1660   16.0280 C.3    41  PRO41       0.0310
     20  CG         4.5650   49.6600   15.5910 C.3    41  PRO41       0.0237
     21  CD         4.8460   48.8740   14.3370 C.3    41  PRO41       0.0939
     22  N          8.4380   48.6260   14.2820 N.am   42  PHE42      -0.1974
     23  CA         9.7300   47.9640   14.4150 C.3    42  PHE42       0.1639
     24  C         10.5230   47.9530   13.1160 C.2    42  PHE42       0.2290
     25  O         11.5670   47.3000   13.0530 O.2    42  PHE42      -0.2864
     26  CB         9.5130   46.5410   14.9310 C.3    42  PHE42       0.0560
     27  CG         8.6390   46.4920   16.1640 C.ar   42  PHE42      -0.0200
     28  CD1        9.1750   46.7480   17.4150 C.ar   42  PHE42      -0.0042
     29  CD2        7.2750   46.2250   16.0590 C.ar   42  PHE42      -0.0042
     30  CE1        8.3670   46.7290   18.5560 C.ar   42  PHE42      -0.0003
     31  CE2        6.4600   46.2050   17.1870 C.ar   42  PHE42      -0.0003
     32  CZ         7.0080   46.4500   18.4380 C.ar   42  PHE42      -0.0000
     33  N         12.0290   50.5540   11.6750 N.3    44  GLN44      -0.1245
     34  CA        13.0330   51.6120   11.6890 C.3    44  GLN44       0.1566
     35  C         13.3460   51.9270   13.1430 C.2    44  GLN44       0.2260
     36  O         12.5770   51.5480   14.0340 O.2    44  GLN44      -0.2867
     37  CB        12.5300   52.8770   10.9670 C.3    44  GLN44       0.0367
     38  CG        11.2810   53.4920   11.6080 C.3    44  GLN44       0.0905
     39  CD        10.0250   52.6650   11.3270 C.2    44  GLN44       0.2608
     40  OE1        9.7540   52.3170   10.1750 O.2    44  GLN44      -0.2717
     41  NE2        9.2620   52.3340   12.3820 N.am   44  GLN44      -0.0878
     42  N         13.4580   53.5830   16.7540 N.3    46  VAL46      -0.1245
     43  CA        12.4640   54.3570   17.4950 C.3    46  VAL46       0.1561
     44  C         12.8110   55.8320   17.3900 C.2    46  VAL46       0.2260
     45  O         13.9020   56.2640   17.7880 O.2    46  VAL46      -0.2867
     46  CB        12.3930   53.8950   18.9540 C.3    46  VAL46       0.0252
     47  CG1       11.5350   54.8430   19.7790 C.3    46  VAL46       0.0019
     48  CG2       11.8300   52.4470   19.0120 C.3    46  VAL46       0.0019
     49  N          7.6720   60.3080   18.3440 N.3    51  LEU51      -0.1245
     50  CA         6.7220   59.5460   19.1460 C.3    51  LEU51       0.1561
     51  C          6.5230   60.1300   20.5370 C.2    51  LEU51       0.2260
     52  O          5.7690   59.5550   21.3260 O.2    51  LEU51      -0.2867
     53  CB         7.1670   58.0820   19.2730 C.3    51  LEU51       0.0270
     54  CG         7.0940   57.2510   17.9950 C.3    51  LEU51       0.0019
     55  CD1        7.8010   55.9180   18.1710 C.3    51  LEU51       0.0001
     56  CD2        5.6400   57.0470   17.5880 C.3    51  LEU51       0.0001
     57  N          8.5350   60.2750   23.2810 N.3    53  LEU53      -0.1245
     58  CA         8.9980   59.3620   24.3280 C.3    53  LEU53       0.1561
     59  C         10.3670   59.8470   24.8000 C.2    53  LEU53       0.2260
     60  O         11.3950   59.2210   24.5220 O.2    53  LEU53      -0.2867
     61  CB         9.0680   57.9280   23.8050 C.3    53  LEU53       0.0270
     62  CG         7.8620   57.3510   23.0620 C.3    53  LEU53       0.0019
     63  CD1        8.1980   55.9980   22.4480 C.3    53  LEU53       0.0001
     64  CD2        6.6730   57.2510   23.9910 C.3    53  LEU53       0.0001
     65  N         13.2250   57.6030   26.1650 N.3    56  TYR56      -0.1241
     66  CA        13.4420   56.2930   25.5490 C.3    56  TYR56       0.1605
     67  C         14.9200   55.9290   25.5330 C.2    56  TYR56       0.2264
     68  O         15.3090   54.8480   25.9900 O.2    56  TYR56      -0.2867
     69  CB        12.8780   56.2500   24.1300 C.3    56  TYR56       0.0534
     70  CG        13.0010   54.8610   23.5320 C.ar   56  TYR56      -0.0201
     71  CD1       12.0290   53.8850   23.7760 C.ar   56  TYR56      -0.0009
     72  CD2       14.1010   54.5090   22.7430 C.ar   56  TYR56      -0.0009
     73  CE1       12.1470   52.6020   23.2490 C.ar   56  TYR56       0.0417
     74  CE2       14.2250   53.2310   22.2110 C.ar   56  TYR56       0.0417
     75  CZ        13.2460   52.2830   22.4620 C.ar   56  TYR56       0.1957
     76  OH        13.3760   51.0180   21.9220 O.3    56  TYR56      -0.2866
     77  N         11.4860   46.5470   23.7710 N.3    95  CYS95      -0.1235
     78  CA        10.0720   46.8790   23.8850 C.3    95  CYS95       0.1677
     79  C          9.5220   46.4430   25.2400 C.2    95  CYS95       0.2270
     80  O          8.7470   47.1700   25.8750 O.2    95  CYS95      -0.2867
     81  CB         9.3200   46.2070   22.7360 C.3    95  CYS95       0.0956
     82  SG         7.5940   46.6310   22.6210 S.3    95  CYS95      -0.0801
     83  N         10.9820   48.9130   28.0220 N.3    98  TYR98      -0.1227
     84  CA        10.5490   50.3050   28.0250 C.3    98  TYR98       0.1736
     85  C          9.0670   50.4270   28.3460 C.2    98  TYR98       0.2595
     86  O          8.6530   51.3530   29.0530 O.2    98  TYR98      -0.2718
     87  CB        10.8530   50.9740   26.6780 C.3    98  TYR98       0.0548
     88  CG        10.4220   52.4210   26.6950 C.ar   98  TYR98      -0.0200
     89  CD1       11.1590   53.3730   27.3990 C.ar   98  TYR98      -0.0009
     90  CD2        9.2480   52.8300   26.0780 C.ar   98  TYR98      -0.0009
     91  CE1       10.7520   54.6870   27.4590 C.ar   98  TYR98       0.0417
     92  CE2        8.8330   54.1530   26.1340 C.ar   98  TYR98       0.0417
     93  CZ         9.5900   55.0750   26.8300 C.ar   98  TYR98       0.1957
     94  OH         9.1780   56.3910   26.8820 O.3    98  TYR98      -0.2866
     95  N          8.2560   49.5100   27.8450 N.am   99  ASN99      -0.1974
     96  CA         6.8120   49.6430   27.9110 C.3    99  ASN99       0.1688
     97  C          6.2220   48.7590   29.0050 C.2    99  ASN99       0.2292
     98  O          6.7400   47.6830   29.3090 O.2    99  ASN99      -0.2864
     99  CB         6.1980   49.2930   26.5590 C.3    99  ASN99       0.1181
    100  CG         6.6560   50.2230   25.4760 C.2    99  ASN99       0.2629
    101  OD1        6.1930   51.3620   25.3950 O.2    99  ASN99      -0.2716
    102  ND2        7.5670   49.7550   24.6320 N.am   99  ASN99      -0.0877
    103  N          0.6660   46.6310   27.4690 N.3   103  ASP103     -0.1225
    104  CA         0.4210   47.7360   26.5460 C.3   103  ASP103      0.1805
    105  C          0.2710   47.2180   25.1180 C.2   103  ASP103      0.2598
    106  O          0.8400   46.1830   24.7500 O.2   103  ASP103     -0.2718
    107  CB         1.5790   48.7460   26.5770 C.3   103  ASP103      0.1424
    108  CG         1.4990   49.7250   27.7490 C.2   103  ASP103      0.3668
    109  OD1        0.5780   49.6090   28.5970 O.co2 103  ASP103     -0.2456
    110  OD2        2.3780   50.6190   27.8010 O.co2 103  ASP103     -0.2456
    111  N         -0.4740   47.9760   24.3020 N.am  104  ASP104     -0.1960
    112  CA        -0.6880   47.6310   22.8930 C.3   104  ASP104      0.1840
    113  C          0.6210   47.2790   22.1740 C.2   104  ASP104      0.2621
    114  O          0.7270   46.2280   21.5280 O.2   104  ASP104     -0.2715
    115  CB        -1.3770   48.7950   22.1670 C.3   104  ASP104      0.1450
    116  CG        -2.7530   49.1180   22.7220 C.2   104  ASP104      0.3671
    117  OD1       -3.4050   48.2180   23.2780 O.co2 104  ASP104     -0.2456
    118  OD2       -3.1710   50.2810   22.5900 O.co2 104  ASP104     -0.2456
    119  N          1.6330   48.1460   22.2710 N.am  105  ILE105     -0.1977
    120  CA         2.8780   47.8750   21.5430 C.3   105  ILE105      0.1596
    121  C          3.5230   46.5820   22.0290 C.2   105  ILE105      0.2287
    122  O          4.1590   45.8580   21.2460 O.2   105  ILE105     -0.2864
    123  CB         3.8550   49.0650   21.6440 C.3   105  ILE105      0.0276
    124  CG1        5.0170   48.8540   20.6720 C.3   105  ILE105      0.0022
    125  CG2        4.4140   49.2170   23.0540 C.3   105  ILE105      0.0022
    126  CD1        4.6070   48.9230   19.2120 C.3   105  ILE105      0.0001
    127  N          1.8000   43.7250   20.4000 N.3   108  MET108     -0.1245
    128  CA         2.2700   43.6540   19.0210 C.3   108  MET108      0.1570
    129  C          3.6220   42.9600   18.9410 C.2   108  MET108      0.2261
    130  O          3.8140   42.0510   18.1290 O.2   108  MET108     -0.2867
    131  CB         2.3370   45.0620   18.4190 C.3   108  MET108      0.0387
    132  CG         0.9630   45.7240   18.2960 C.3   108  MET108      0.0595
    133  SD         1.0600   47.4830   17.8820 S.3   108  MET108     -0.1393
    134  CE         1.7250   47.4090   16.2190 C.3   108  MET108      0.0692
@<TRIPOS>BOND
     1    40    39    2
     2     5     2    1
     3     5     6    1
     4    37    38    1
     5    37    34    1
     6     2     1    1
     7     2     3    1
     8    39    38    1
     9    39    41   am
    10     6     7   ar
    11     6     8   ar
    12    33    34    1
    13    34    35    1
    14     7     9   ar
    15     4     3    2
    16    11     8   ar
    17    11    13   ar
    18     8    10   ar
    19     3    15   am
    20     9    10   ar
    21    13    14   ar
    22    25    24    2
    23    10    12   ar
    24    24    23    1
    25    35    36    2
    26    15    21    1
    27    15    16    1
    28    14    12   ar
    29    22    23    1
    30    22    17   am
    31    21    20    1
    32    23    26    1
    33    16    17    1
    34    16    19    1
    35    17    18    2
    36    26    27    1
    37    20    19    1
    38    29    27   ar
    39    29    31   ar
    40    27    28   ar
    41   134   133    1
    42    42    43    1
    43    31    32   ar
    44    44    43    1
    45    44    45    2
    46    28    30   ar
    47    43    46    1
    48    56    54    1
    49   133   132    1
    50    54    55    1
    51    54    53    1
    52   130   129    2
    53   132   131    1
    54    49    50    1
    55   131   128    1
    56    32    30   ar
    57   129   128    1
    58    46    48    1
    59    46    47    1
    60   128   127    1
    61    50    53    1
    62    50    51    1
    63   126   124    1
    64    51    52    2
    65   124   123    1
    66   122   121    2
    67   114   113    2
    68   120   123    1
    69   120   121    1
    70   120   119    1
    71   123   125    1
    72    76    75    1
    73   115   116    1
    74   115   112    1
    75   113   119   am
    76   113   112    1
    77    74    75   ar
    78    74    72   ar
    79    63    62    1
    80    75    73   ar
    81   118   116   ar
    82    82    81    1
    83   116   117   ar
    84    81    78    1
    85    72    70   ar
    86   112   111    1
    87    62    61    1
    88    62    64    1
    89    73    71   ar
    90    57    58    1
    91    70    71   ar
    92    70    69    1
    93    77    78    1
    94    61    58    1
    95    78    79    1
    96    69    66    1
    97   111   105   am
    98    58    59    1
    99    60    59    2
   100   102   100   am
   101   106   105    2
   102   105   104    1
   103    79    80    2
   104   101   100    2
   105   100    99    1
   106    67    66    1
   107    67    68    2
   108    66    65    1
   109    90    92   ar
   110    90    88   ar
   111    92    93   ar
   112   104   107    1
   113   104   103    1
   114    99    96    1
   115   107   108    1
   116    87    88    1
   117    87    84    1
   118    88    89   ar
   119    93    94    1
   120    93    91   ar
   121    89    91   ar
   122   108   110   ar
   123   108   109   ar
   124    95    96    1
   125    95    85   am
   126    96    97    1
   127    83    84    1
   128    84    85    1
   129    85    86    2
   130    97    98    2
