@<TRIPOS>MOLECULE
tmp/5oveA00.pdb
 100 95 0 0 0
SMALL
GASTEIGER

@<TRIPOS>ATOM
      1  N         -0.5190  -32.2580   35.8200 N.3   303  VAL303     -0.1245
      2  CA        -0.3580  -31.7830   37.2060 C.3   303  VAL303      0.1561
      3  C         -1.6970  -31.3010   37.7730 C.2   303  VAL303      0.2260
      4  O         -2.0630  -31.6550   38.8990 O.2   303  VAL303     -0.2867
      5  CB         0.7100  -30.6650   37.3070 C.3   303  VAL303      0.0252
      6  CG1        0.6870  -29.9640   38.6690 C.3   303  VAL303      0.0019
      7  CG2        2.0970  -31.2450   37.0350 C.3   303  VAL303      0.0019
      8  N         -3.8480  -34.3140   38.4750 N.3   306  MET306     -0.1230
      9  CA        -3.3480  -35.0180   39.6490 C.3   306  MET306      0.1702
     10  C         -3.5700  -34.2440   40.9510 C.2   306  MET306      0.2592
     11  O         -3.7940  -34.8560   41.9940 O.2   306  MET306     -0.2718
     12  CB        -1.8560  -35.3660   39.4810 C.3   306  MET306      0.0401
     13  CG        -1.5580  -36.3350   38.3370 C.3   306  MET306      0.0596
     14  SD        -2.1960  -38.0010   38.5660 S.3   306  MET306     -0.1393
     15  CE        -2.0010  -38.6960   36.9270 C.3   306  MET306      0.0692
     16  N         -3.5150  -32.9110   40.8890 N.am  307  ASN307     -0.1974
     17  CA        -3.7450  -32.0550   42.0640 C.3   307  ASN307      0.1688
     18  C         -5.2200  -31.7520   42.3530 C.2   307  ASN307      0.2292
     19  O         -5.5230  -31.1490   43.3800 O.2   307  ASN307     -0.2864
     20  CB        -2.9740  -30.7380   41.9350 C.3   307  ASN307      0.1181
     21  CG        -1.4820  -30.9080   42.1560 C.2   307  ASN307      0.2629
     22  OD1       -1.0320  -31.9080   42.7140 O.2   307  ASN307     -0.2716
     23  ND2       -0.7120  -29.9200   41.7350 N.am  307  ASN307     -0.0877
     24  N         -6.2670  -36.0330   44.0060 N.3   312  TYR312     -0.1241
     25  CA        -5.2090  -35.7950   45.0030 C.3   312  TYR312      0.1605
     26  C         -5.4200  -36.5520   46.3230 C.2   312  TYR312      0.2264
     27  O         -4.4500  -36.9410   46.9750 O.2   312  TYR312     -0.2867
     28  CB        -5.0550  -34.2900   45.2800 C.3   312  TYR312      0.0534
     29  CG        -3.8090  -33.9490   46.0690 C.ar  312  TYR312     -0.0201
     30  CD1       -2.5460  -34.1200   45.5060 C.ar  312  TYR312     -0.0009
     31  CD2       -3.8850  -33.4750   47.3820 C.ar  312  TYR312     -0.0009
     32  CE1       -1.3940  -33.8350   46.2220 C.ar  312  TYR312      0.0417
     33  CE2       -2.7340  -33.1750   48.1040 C.ar  312  TYR312      0.0417
     34  CZ        -1.4920  -33.3570   47.5190 C.ar  312  TYR312      0.1957
     35  OH        -0.3420  -33.0650   48.2210 O.3   312  TYR312     -0.2866
     36  N         -2.1250  -43.8410   45.0390 N.3   318  PHE318     -0.1241
     37  CA        -0.7620  -43.2910   44.9910 C.3   318  PHE318      0.1605
     38  C          0.2540  -44.0620   45.8390 C.2   318  PHE318      0.2264
     39  O          1.4580  -43.9650   45.5880 O.2   318  PHE318     -0.2867
     40  CB        -0.7520  -41.7900   45.3240 C.3   318  PHE318      0.0534
     41  CG        -1.2830  -40.9330   44.2080 C.ar  318  PHE318     -0.0203
     42  CD1       -0.5340  -40.7420   43.0510 C.ar  318  PHE318     -0.0042
     43  CD2       -2.5470  -40.3530   44.2850 C.ar  318  PHE318     -0.0042
     44  CE1       -1.0190  -39.9730   42.0020 C.ar  318  PHE318     -0.0003
     45  CE2       -3.0360  -39.5820   43.2400 C.ar  318  PHE318     -0.0003
     46  CZ        -2.2750  -39.3950   42.0950 C.ar  318  PHE318     -0.0000
     47  N          6.2970  -41.1310   41.3070 N.3   326  LYS326     -0.1245
     48  CA         6.0240  -40.1090   42.3360 C.3   326  LYS326      0.1561
     49  C          6.9590  -38.9090   42.1900 C.2   326  LYS326      0.2260
     50  O          6.5160  -37.7660   42.2550 O.2   326  LYS326     -0.2867
     51  CB         6.1800  -40.6680   43.7570 C.3   326  LYS326      0.0271
     52  CG         4.9980  -41.4510   44.3020 C.3   326  LYS326      0.0035
     53  CD         5.2250  -41.7510   45.7790 C.3   326  LYS326      0.0206
     54  CE         4.0440  -42.4520   46.4260 C.3   326  LYS326      0.1093
     55  NZ         4.0620  -43.9220   46.2040 N.3   326  LYS326     -0.1314
     56  N          6.1280  -36.7020   39.2220 N.3   329  LEU329     -0.1231
     57  CA         5.0020  -35.8290   39.5980 C.3   329  LEU329      0.1693
     58  C          5.4170  -34.6910   40.5350 C.2   329  LEU329      0.2591
     59  O          4.9420  -33.5640   40.3840 O.2   329  LEU329     -0.2718
     60  CB         3.8660  -36.6330   40.2450 C.3   329  LEU329      0.0284
     61  CG         2.9820  -37.4940   39.3430 C.3   329  LEU329      0.0019
     62  CD1        1.9410  -38.1860   40.2050 C.3   329  LEU329      0.0001
     63  CD2        2.3070  -36.6720   38.2540 C.3   329  LEU329      0.0001
     64  N          6.2870  -34.9940   41.5020 N.am  330  GLU330     -0.1979
     65  CA         6.8300  -33.9760   42.4170 C.3   330  GLU330      0.1602
     66  C          7.5820  -32.8740   41.6740 C.2   330  GLU330      0.2287
     67  O          7.3590  -31.6870   41.9270 O.2   330  GLU330     -0.2864
     68  CB         7.7560  -34.6080   43.4690 C.3   330  GLU330      0.0415
     69  CG         7.0240  -35.3250   44.5950 C.3   330  GLU330      0.1163
     70  CD         7.9520  -35.8940   45.6590 C.2   330  GLU330      0.3649
     71  OE1        7.4370  -36.3500   46.7000 O.co2 330  GLU330     -0.2457
     72  OE2        9.1870  -35.8940   45.4660 O.co2 330  GLU330     -0.2457
     73  N          5.1530  -30.7120   39.5560 N.3   333  HIS333     -0.1226
     74  CA         4.4790  -29.7590   40.4460 C.3   333  HIS333      0.1752
     75  C          5.3960  -28.6080   40.8360 C.2   333  HIS333      0.2595
     76  O          4.9700  -27.4540   40.8640 O.2   333  HIS333     -0.2718
     77  CB         3.9760  -30.4500   41.7200 C.3   333  HIS333      0.0759
     78  CG         3.3430  -29.5110   42.7000 C.ar  333  HIS333      0.0818
     79  ND1        2.0110  -29.1630   42.6420 N.ar  333  HIS333     -0.2268
     80  CD2        3.8650  -28.8300   43.7490 C.ar  333  HIS333      0.1154
     81  CE1        1.7360  -28.3200   43.6210 C.ar  333  HIS333      0.1986
     82  NE2        2.8450  -28.0970   44.3040 N.ar  333  HIS333     -0.2212
     83  N          6.6540  -28.9420   41.1340 N.am  334  GLU334     -0.1979
     84  CA         7.6650  -27.9550   41.5250 C.3   334  GLU334      0.1602
     85  C          7.9200  -26.8590   40.4850 C.2   334  GLU334      0.2287
     86  O          8.3910  -25.7880   40.8500 O.2   334  GLU334     -0.2864
     87  CB         8.9790  -28.6550   41.9290 C.3   334  GLU334      0.0415
     88  CG         8.9110  -29.2630   43.3290 C.3   334  GLU334      0.1163
     89  CD         9.9230  -30.3710   43.5890 C.2   334  GLU334      0.3649
     90  OE1       10.9680  -30.4300   42.9070 O.co2 334  GLU334     -0.2457
     91  OE2        9.6710  -31.1880   44.5000 O.co2 334  GLU334     -0.2457
     92  N          5.8700  -23.8130   41.6970 N.3   337  GLU337     -0.1245
     93  CA         6.1830  -23.2160   43.0060 C.3   337  GLU337      0.1567
     94  C          6.9340  -21.8870   42.8810 C.2   337  GLU337      0.2260
     95  O          7.6710  -21.6720   41.9170 O.2   337  GLU337     -0.2867
     96  CB         6.9870  -24.1960   43.8750 C.3   337  GLU337      0.0388
     97  CG         6.2050  -25.4370   44.2900 C.3   337  GLU337      0.1160
     98  CD         6.9760  -26.3570   45.2250 C.2   337  GLU337      0.3649
     99  OE1        6.3220  -27.0850   45.9980 O.co2 337  GLU337     -0.2457
    100  OE2        8.2270  -26.3580   45.1990 O.co2 337  GLU337     -0.2457
@<TRIPOS>BOND
     1     1     2    1
     2    15    14    1
     3     7     5    1
     4     2     5    1
     5     2     3    1
     6     5     6    1
     7     3     4    2
     8    63    61    1
     9    13    14    1
    10    13    12    1
    11     8     9    1
    12    56    57    1
    13    61    62    1
    14    61    60    1
    15    12     9    1
    16    73    74    1
    17    57    60    1
    18    57    58    1
    19     9    10    1
    20    59    58    2
    21    74    75    1
    22    74    77    1
    23    85    86    2
    24    85    84    1
    25    58    64   am
    26    75    76    2
    27    75    83   am
    28    16    10   am
    29    16    17    1
    30    10    11    2
    31    83    84    1
    32    47    48    1
    33    64    65    1
    34    84    87    1
    35    66    67    2
    36    66    65    1
    37    92    93    1
    38    77    78    1
    39    23    21   am
    40    95    94    2
    41    87    88    1
    42    20    17    1
    43    20    21    1
    44    44    46   ar
    45    44    42   ar
    46    17    18    1
    47    46    45   ar
    48    21    22    2
    49    49    50    2
    50    49    48    1
    51    48    51    1
    52    18    19    2
    53    65    68    1
    54    79    78   ar
    55    79    81   ar
    56    78    80   ar
    57    94    93    1
    58    90    89   ar
    59    93    96    1
    60    42    41   ar
    61    45    43   ar
    62    88    89    1
    63    68    69    1
    64    89    91   ar
    65    81    82   ar
    66    80    82   ar
    67    51    52    1
    68    96    97    1
    69    24    25    1
    70    41    43   ar
    71    41    40    1
    72    97    98    1
    73    52    53    1
    74    69    70    1
    75    37    36    1
    76    37    40    1
    77    37    38    1
    78    25    28    1
    79    25    26    1
    80   100    98   ar
    81    98    99   ar
    82    28    29    1
    83    72    70   ar
    84    30    29   ar
    85    30    32   ar
    86    39    38    2
    87    70    71   ar
    88    53    54    1
    89    29    31   ar
    90    55    54    1
    91    32    34   ar
    92    26    27    2
    93    31    33   ar
    94    34    33   ar
    95    34    35    1
