@<TRIPOS>MOLECULE
tmp/5ovfA00.pdb
 100 95 0 0 0
SMALL
GASTEIGER

@<TRIPOS>ATOM
      1  N         18.4690  -31.8000   35.8580 N.3   302  VAL302     -0.1245
      2  CA        18.7880  -31.3240   37.2040 C.3   302  VAL302      0.1561
      3  C         17.5270  -30.8030   37.9070 C.2   302  VAL302      0.2260
      4  O         17.3080  -31.0950   39.0810 O.2   302  VAL302     -0.2867
      5  CB        19.8950  -30.2430   37.1730 C.3   302  VAL302      0.0252
      6  CG1       20.0340  -29.5420   38.5160 C.3   302  VAL302      0.0019
      7  CG2       21.2310  -30.8670   36.7780 C.3   302  VAL302      0.0019
      8  N         15.4440  -33.8470   38.8770 N.3   305  MET305     -0.1230
      9  CA        16.0840  -34.5680   39.9840 C.3   305  MET305      0.1702
     10  C         16.0460  -33.8050   41.3100 C.2   305  MET305      0.2592
     11  O         16.0050  -34.4270   42.3800 O.2   305  MET305     -0.2718
     12  CB        17.5390  -34.9070   39.6340 C.3   305  MET305      0.0401
     13  CG        17.6920  -35.8590   38.4620 C.3   305  MET305      0.0596
     14  SD        17.0680  -37.5110   38.7910 S.3   305  MET305     -0.1393
     15  CE        17.0230  -38.1650   37.1230 C.3   305  MET305      0.0692
     16  N         16.0680  -32.4730   41.2350 N.am  306  ASN306     -0.1974
     17  CA        15.9590  -31.6120   42.4180 C.3   306  ASN306      0.1688
     18  C         14.5390  -31.3090   42.8840 C.2   306  ASN306      0.2292
     19  O         14.3660  -30.7740   43.9780 O.2   306  ASN306     -0.2864
     20  CB        16.6780  -30.2830   42.1820 C.3   306  ASN306      0.1181
     21  CG        18.1820  -30.4200   42.2050 C.2   306  ASN306      0.2629
     22  OD1       18.7320  -31.4490   42.6040 O.2   306  ASN306     -0.2716
     23  ND2       18.8590  -29.3710   41.7900 N.am  306  ASN306     -0.0877
     24  N         13.7280  -35.6230   44.5760 N.3   311  TYR311     -0.1241
     25  CA        14.9070  -35.3840   45.4280 C.3   311  TYR311      0.1605
     26  C         14.8840  -36.1590   46.7550 C.2   311  TYR311      0.2264
     27  O         15.9260  -36.6020   47.2330 O.2   311  TYR311     -0.2867
     28  CB        15.0820  -33.8850   45.7080 C.3   311  TYR311      0.0534
     29  CG        16.4110  -33.5480   46.3520 C.ar  311  TYR311     -0.0201
     30  CD1       17.6060  -33.7240   45.6530 C.ar  311  TYR311     -0.0009
     31  CD2       16.4790  -33.0670   47.6600 C.ar  311  TYR311     -0.0009
     32  CE1       18.8270  -33.4350   46.2350 C.ar  311  TYR311      0.0417
     33  CE2       17.7000  -32.7670   48.2500 C.ar  311  TYR311      0.0417
     34  CZ        18.8700  -32.9510   47.5320 C.ar  311  TYR311      0.1957
     35  OH        20.0820  -32.6540   48.1040 O.3   311  TYR311     -0.2866
     36  N         18.1040  -43.3370   45.0030 N.3   317  PHE317     -0.1241
     37  CA        19.4710  -42.8270   44.8050 C.3   317  PHE317      0.1605
     38  C         20.5460  -43.6360   45.5380 C.2   317  PHE317      0.2264
     39  O         21.7090  -43.5960   45.1390 O.2   317  PHE317     -0.2867
     40  CB        19.5680  -41.3410   45.1820 C.3   317  PHE317      0.0534
     41  CG        18.8780  -40.4300   44.2040 C.ar  317  PHE317     -0.0203
     42  CD1       19.4210  -40.2150   42.9400 C.ar  317  PHE317     -0.0042
     43  CD2       17.6840  -39.7960   44.5350 C.ar  317  PHE317     -0.0042
     44  CE1       18.7860  -39.3850   42.0270 C.ar  317  PHE317     -0.0003
     45  CE2       17.0480  -38.9630   43.6270 C.ar  317  PHE317     -0.0003
     46  CZ        17.5960  -38.7580   42.3720 C.ar  317  PHE317     -0.0000
     47  N         25.9260  -40.5740   40.2600 N.3   325  LYS325     -0.1245
     48  CA        25.7330  -39.5760   41.3200 C.3   325  LYS325      0.1561
     49  C         26.7110  -38.4040   41.1980 C.2   325  LYS325      0.2260
     50  O         26.3150  -37.2520   41.3710 O.2   325  LYS325     -0.2867
     51  CB        25.8290  -40.2140   42.7170 C.3   325  LYS325      0.0271
     52  CG        24.5100  -40.8030   43.1980 C.3   325  LYS325      0.0035
     53  CD        24.5880  -41.3770   44.6120 C.3   325  LYS325      0.0206
     54  CE        24.7700  -42.8790   44.6190 C.3   325  LYS325      0.1093
     55  NZ        24.5500  -43.4840   45.9580 N.3   325  LYS325     -0.1314
     56  N         25.5860  -36.1720   38.4530 N.3   328  LEU328     -0.1231
     57  CA        24.4280  -35.3990   38.9280 C.3   328  LEU328      0.1693
     58  C         24.8800  -34.2330   39.8000 C.2   328  LEU328      0.2591
     59  O         24.4080  -33.1040   39.6370 O.2   328  LEU328     -0.2718
     60  CB        23.4420  -36.2740   39.7140 C.3   328  LEU328      0.0284
     61  CG        22.3880  -37.0130   38.8960 C.3   328  LEU328      0.0019
     62  CD1       21.5170  -37.8510   39.8170 C.3   328  LEU328      0.0001
     63  CD2       21.5410  -36.0270   38.1090 C.3   328  LEU328      0.0001
     64  N         25.8000  -34.5130   40.7220 N.am  329  GLU329     -0.1979
     65  CA        26.3520  -33.4930   41.6190 C.3   329  GLU329      0.1602
     66  C         27.0830  -32.3730   40.8800 C.2   329  GLU329      0.2287
     67  O         26.9370  -31.2010   41.2380 O.2   329  GLU329     -0.2864
     68  CB        27.2960  -34.1280   42.6420 C.3   329  GLU329      0.0415
     69  CG        26.5840  -34.9480   43.7040 C.3   329  GLU329      0.1163
     70  CD        27.5190  -35.4710   44.7750 C.2   329  GLU329      0.3649
     71  OE1       27.0240  -35.7390   45.8850 O.co2 329  GLU329     -0.2457
     72  OE2       28.7380  -35.6090   44.5230 O.co2 329  GLU329     -0.2457
     73  N         24.4630  -30.1800   39.1220 N.3   332  HIS332     -0.1226
     74  CA        23.8910  -29.2390   40.0980 C.3   332  HIS332      0.1752
     75  C         24.7930  -28.0370   40.3610 C.2   332  HIS332      0.2595
     76  O         24.3290  -26.8940   40.3830 O.2   332  HIS332     -0.2718
     77  CB        23.6230  -29.9240   41.4360 C.3   332  HIS332      0.0759
     78  CG        23.1960  -28.9760   42.5120 C.ar  332  HIS332      0.0818
     79  ND1       21.9120  -28.4880   42.6000 N.ar  332  HIS332     -0.2268
     80  CD2       23.8850  -28.4060   43.5290 C.ar  332  HIS332      0.1154
     81  CE1       21.8230  -27.6660   43.6310 C.ar  332  HIS332      0.1986
     82  NE2       23.0070  -27.6010   44.2120 N.ar  332  HIS332     -0.2212
     83  N         26.0790  -28.3160   40.5750 N.am  333  GLU333     -0.1979
     84  CA        27.0740  -27.2840   40.8840 C.3   333  GLU333      0.1602
     85  C         27.2680  -26.2320   39.7750 C.2   333  GLU333      0.2287
     86  O         27.7870  -25.1530   40.0450 O.2   333  GLU333     -0.2864
     87  CB        28.4080  -27.9420   41.2730 C.3   333  GLU333      0.0415
     88  CG        28.3380  -28.6370   42.6350 C.3   333  GLU333      0.1163
     89  CD        29.4100  -29.6940   42.8690 C.2   333  GLU333      0.3649
     90  OE1       30.2740  -29.9180   41.9940 O.co2 333  GLU333     -0.2457
     91  OE2       29.3860  -30.3090   43.9550 O.co2 333  GLU333     -0.2457
     92  N         25.2290  -23.2490   41.1420 N.3   336  GLU336     -0.1245
     93  CA        25.6460  -22.6140   42.4010 C.3   336  GLU336      0.1567
     94  C         26.3780  -21.2880   42.1690 C.2   336  GLU336      0.2260
     95  O         26.9700  -21.0760   41.1110 O.2   336  GLU336     -0.2867
     96  CB        26.5210  -23.5680   43.2260 C.3   336  GLU336      0.0388
     97  CG        25.7700  -24.7860   43.7550 C.3   336  GLU336      0.1160
     98  CD        26.6170  -25.6870   44.6420 C.2   336  GLU336      0.3649
     99  OE1       26.0310  -26.4580   45.4310 O.co2 336  GLU336     -0.2457
    100  OE2       27.8630  -25.6350   44.5560 O.co2 336  GLU336     -0.2457
@<TRIPOS>BOND
     1     1     2    1
     2     7     5    1
     3    15    14    1
     4     5     2    1
     5     5     6    1
     6     2     3    1
     7     3     4    2
     8    63    61    1
     9    56    57    1
    10    13    14    1
    11    13    12    1
    12     8     9    1
    13    61    60    1
    14    61    62    1
    15    57    60    1
    16    57    58    1
    17    73    74    1
    18    12     9    1
    19    59    58    2
    20    85    86    2
    21    85    84    1
    22    58    64   am
    23     9    10    1
    24    74    75    1
    25    74    77    1
    26    47    48    1
    27    75    76    2
    28    75    83   am
    29    83    84    1
    30    64    65    1
    31    66    67    2
    32    66    65    1
    33    84    87    1
    34    95    94    2
    35    92    93    1
    36    49    48    1
    37    49    50    2
    38    16    10   am
    39    16    17    1
    40    87    88    1
    41    10    11    2
    42    48    51    1
    43    77    78    1
    44    65    68    1
    45    23    21   am
    46    90    89   ar
    47    44    46   ar
    48    44    42   ar
    49    94    93    1
    50    20    21    1
    51    20    17    1
    52    21    22    2
    53    46    45   ar
    54    93    96    1
    55    17    18    1
    56    78    79   ar
    57    78    80   ar
    58    79    81   ar
    59    88    89    1
    60    68    69    1
    61    51    52    1
    62    89    91   ar
    63    18    19    2
    64    42    41   ar
    65    52    53    1
    66    96    97    1
    67    80    82   ar
    68    45    43   ar
    69    81    82   ar
    70    69    70    1
    71    97    98    1
    72    41    43   ar
    73    41    40    1
    74    72    70   ar
    75   100    98   ar
    76    24    25    1
    77    53    54    1
    78    54    55    1
    79    98    99   ar
    80    70    71   ar
    81    37    36    1
    82    37    40    1
    83    37    38    1
    84    39    38    2
    85    25    28    1
    86    25    26    1
    87    30    32   ar
    88    30    29   ar
    89    28    29    1
    90    32    34   ar
    91    29    31   ar
    92    26    27    2
    93    34    35    1
    94    34    33   ar
    95    31    33   ar
