@<TRIPOS>MOLECULE
tmp/5ovgA00.pdb
 108 102 0 0 0
SMALL
GASTEIGER

@<TRIPOS>ATOM
      1  N         -0.6430  -32.6070   35.7770 N.3   286  VAL286     -0.1245
      2  CA        -0.4470  -32.1100   37.1520 C.3   286  VAL286      0.1561
      3  C         -1.7510  -31.5580   37.7420 C.2   286  VAL286      0.2260
      4  O         -2.0770  -31.8370   38.8960 O.2   286  VAL286     -0.2867
      5  CB         0.6700  -31.0370   37.2070 C.3   286  VAL286      0.0252
      6  CG1        0.6900  -30.3060   38.5390 C.3   286  VAL286      0.0019
      7  CG2        2.0310  -31.6790   36.9580 C.3   286  VAL286      0.0019
      8  N         -3.9190  -34.7020   38.5930 N.3   289  MET289     -0.1230
      9  CA        -3.4440  -35.4450   39.7740 C.3   289  MET289      0.1702
     10  C         -3.6450  -34.6700   41.0880 C.2   289  MET289      0.2592
     11  O         -3.7420  -35.2810   42.1590 O.2   289  MET289     -0.2718
     12  CB        -1.9650  -35.8330   39.6240 C.3   289  MET289      0.0401
     13  CG        -1.6530  -36.7470   38.4450 C.3   289  MET289      0.0596
     14  SD        -2.4610  -38.3500   38.5030 S.3   289  MET289     -0.1393
     15  CE        -2.1700  -38.9350   36.8400 C.3   289  MET289      0.0692
     16  N         -3.7030  -33.3390   41.0000 N.am  290  ASN290     -0.1974
     17  CA        -3.9480  -32.4590   42.1580 C.3   290  ASN290      0.1688
     18  C         -5.4080  -32.1210   42.4200 C.2   290  ASN290      0.2292
     19  O         -5.7110  -31.4860   43.4290 O.2   290  ASN290     -0.2864
     20  CB        -3.2000  -31.1380   41.9870 C.3   290  ASN290      0.1181
     21  CG        -1.7190  -31.2820   42.1720 C.2   290  ASN290      0.2629
     22  OD1       -1.2440  -32.1500   42.9050 O.2   290  ASN290     -0.2716
     23  ND2       -0.9710  -30.4160   41.5250 N.am  290  ASN290     -0.0877
     24  N         -6.2960  -36.4440   43.9810 N.3   295  TYR295     -0.1241
     25  CA        -5.2280  -36.2270   44.9800 C.3   295  TYR295      0.1605
     26  C         -5.4030  -37.0470   46.2760 C.2   295  TYR295      0.2264
     27  O         -4.4250  -37.5250   46.8540 O.2   295  TYR295     -0.2867
     28  CB        -5.1140  -34.7350   45.3140 C.3   295  TYR295      0.0534
     29  CG        -3.8680  -34.3530   46.0880 C.ar  295  TYR295     -0.0201
     30  CD1       -2.6050  -34.4620   45.5070 C.ar  295  TYR295     -0.0009
     31  CD2       -3.9510  -33.8540   47.3900 C.ar  295  TYR295     -0.0009
     32  CE1       -1.4610  -34.1010   46.2030 C.ar  295  TYR295      0.0417
     33  CE2       -2.8110  -33.4930   48.0970 C.ar  295  TYR295      0.0417
     34  CZ        -1.5670  -33.6170   47.5020 C.ar  295  TYR295      0.1957
     35  OH        -0.4290  -33.2580   48.1960 O.3   295  TYR295     -0.2866
     36  N         -5.1720  -42.1840   48.2150 N.3   298  ASP298     -0.1239
     37  CA        -3.9600  -42.6780   48.8790 C.3   298  ASP298      0.1674
     38  C         -3.6560  -44.1370   48.5700 C.2   298  ASP298      0.2266
     39  O         -2.4930  -44.5030   48.4160 O.2   298  ASP298     -0.2867
     40  CB        -4.0570  -42.5010   50.4000 C.3   298  ASP298      0.1410
     41  CG        -3.9920  -41.0510   50.8270 C.2   298  ASP298      0.3668
     42  OD1       -3.0320  -40.3540   50.4370 O.co2 298  ASP298     -0.2456
     43  OD2       -4.8970  -40.6110   51.5650 O.co2 298  ASP298     -0.2456
     44  N         -2.1660  -44.2210   44.8750 N.3   301  PHE301     -0.1241
     45  CA        -0.8140  -43.6900   44.7960 C.3   301  PHE301      0.1605
     46  C          0.2040  -44.5170   45.5890 C.2   301  PHE301      0.2264
     47  O          1.3680  -44.5320   45.2210 O.2   301  PHE301     -0.2867
     48  CB        -0.7830  -42.2000   45.1670 C.3   301  PHE301      0.0534
     49  CG        -1.3140  -41.3060   44.0740 C.ar  301  PHE301     -0.0203
     50  CD1       -0.4690  -40.8280   43.0710 C.ar  301  PHE301     -0.0042
     51  CD2       -2.6680  -40.9720   44.0170 C.ar  301  PHE301     -0.0042
     52  CE1       -0.9610  -40.0210   42.0490 C.ar  301  PHE301     -0.0003
     53  CE2       -3.1640  -40.1610   43.0000 C.ar  301  PHE301     -0.0003
     54  CZ        -2.3110  -39.6870   42.0140 C.ar  301  PHE301     -0.0000
     55  N          6.2990  -41.4910   40.9330 N.3   309  LYS309     -0.1245
     56  CA         5.9390  -40.4710   41.9360 C.3   309  LYS309      0.1561
     57  C          6.8690  -39.2690   41.8890 C.2   309  LYS309      0.2260
     58  O          6.4100  -38.1270   41.9200 O.2   309  LYS309     -0.2867
     59  CB         5.9940  -41.0350   43.3530 C.3   309  LYS309      0.0271
     60  CG         4.8180  -41.8930   43.7450 C.3   309  LYS309      0.0035
     61  CD         5.0980  -42.5390   45.0940 C.3   309  LYS309      0.0206
     62  CE         3.9370  -43.3990   45.5230 C.3   309  LYS309      0.1093
     63  NZ         4.3670  -44.6000   46.2680 N.3   309  LYS309     -0.1314
     64  N          6.2100  -37.1010   38.8930 N.3   312  LEU312     -0.1231
     65  CA         4.9930  -36.3300   39.1220 C.3   312  LEU312      0.1693
     66  C          5.2170  -35.1910   40.1290 C.2   312  LEU312      0.2591
     67  O          4.7490  -34.0710   39.9150 O.2   312  LEU312     -0.2718
     68  CB         3.8600  -37.2610   39.5750 C.3   312  LEU312      0.0284
     69  CG         2.4680  -36.6580   39.7640 C.3   312  LEU312      0.0019
     70  CD1        2.0060  -35.9130   38.5200 C.3   312  LEU312      0.0001
     71  CD2        1.4750  -37.7470   40.1410 C.3   312  LEU312      0.0001
     72  N          5.9460  -35.4710   41.2090 N.am  313  GLU313     -0.1979
     73  CA         6.3410  -34.4300   42.1810 C.3   313  GLU313      0.1602
     74  C          7.2320  -33.3490   41.5650 C.2   313  GLU313      0.2287
     75  O          7.0470  -32.1630   41.8380 O.2   313  GLU313     -0.2864
     76  CB         7.0490  -35.0420   43.3980 C.3   313  GLU313      0.0415
     77  CG         6.1170  -35.7910   44.3420 C.3   313  GLU313      0.1163
     78  CD         6.8460  -36.5050   45.4710 C.2   313  GLU313      0.3649
     79  OE1        6.2280  -37.3980   46.0890 O.co2 313  GLU313     -0.2457
     80  OE2        8.0260  -36.1830   45.7450 O.co2 313  GLU313     -0.2457
     81  N          5.0930  -31.0220   39.4920 N.3   316  HIS316     -0.1226
     82  CA         4.3680  -30.0800   40.3610 C.3   316  HIS316      0.1752
     83  C          5.2350  -28.9080   40.7640 C.2   316  HIS316      0.2595
     84  O          4.7820  -27.7590   40.7540 O.2   316  HIS316     -0.2718
     85  CB         3.8760  -30.7480   41.6450 C.3   316  HIS316      0.0759
     86  CG         3.2480  -29.7880   42.6120 C.ar  316  HIS316      0.0818
     87  ND1        1.9600  -29.3230   42.4630 N.ar  316  HIS316     -0.2268
     88  CD2        3.7350  -29.1930   43.7270 C.ar  316  HIS316      0.1154
     89  CE1        1.6760  -28.4900   43.4480 C.ar  316  HIS316      0.1986
     90  NE2        2.7360  -28.3940   44.2300 N.ar  316  HIS316     -0.2212
     91  N          6.4800  -29.2150   41.1190 N.am  317  GLU317     -0.1979
     92  CA         7.4390  -28.2130   41.5780 C.3   317  GLU317      0.1602
     93  C          7.8140  -27.1680   40.5220 C.2   317  GLU317      0.2287
     94  O          8.4080  -26.1460   40.8650 O.2   317  GLU317     -0.2864
     95  CB         8.6860  -28.8950   42.1660 C.3   317  GLU317      0.0415
     96  CG         8.3900  -29.5580   43.5110 C.3   317  GLU317      0.1163
     97  CD         9.4900  -30.4760   44.0110 C.2   317  GLU317      0.3649
     98  OE1       10.6370  -30.3780   43.5230 O.co2 317  GLU317     -0.2457
     99  OE2        9.2000  -31.2970   44.9090 O.co2 317  GLU317     -0.2457
    100  N          5.7330  -24.1050   41.7130 N.3   320  GLU320     -0.1245
    101  CA         6.0110  -23.5010   43.0270 C.3   320  GLU320      0.1567
    102  C          6.7440  -22.1730   42.9150 C.2   320  GLU320      0.2260
    103  O          7.4690  -21.9410   41.9490 O.2   320  GLU320     -0.2867
    104  CB         6.8250  -24.4530   43.9060 C.3   320  GLU320      0.0388
    105  CG         6.0470  -25.6760   44.3630 C.3   320  GLU320      0.1160
    106  CD         6.8480  -26.5900   45.2730 C.2   320  GLU320      0.3649
    107  OE1        6.2220  -27.4490   45.9280 O.co2 320  GLU320     -0.2457
    108  OE2        8.0920  -26.4600   45.3410 O.co2 320  GLU320     -0.2457
@<TRIPOS>BOND
     1     1     2    1
     2    15    14    1
     3     7     5    1
     4     2     5    1
     5     2     3    1
     6     5     6    1
     7     3     4    2
     8    13    14    1
     9    13    12    1
    10    70    69    1
    11     8     9    1
    12    64    65    1
    13    65    68    1
    14    65    66    1
    15    81    82    1
    16    68    69    1
    17    12     9    1
    18    69    71    1
    19     9    10    1
    20    67    66    2
    21    66    72   am
    22    82    83    1
    23    82    85    1
    24    93    94    2
    25    93    92    1
    26    84    83    2
    27    83    91   am
    28    55    56    1
    29    16    10   am
    30    16    17    1
    31    10    11    2
    32    91    92    1
    33    72    73    1
    34    23    21   am
    35    74    75    2
    36    74    73    1
    37    92    95    1
    38    85    86    1
    39   100   101    1
    40    57    58    2
    41    57    56    1
    42    56    59    1
    43   103   102    2
    44    20    17    1
    45    20    21    1
    46    54    52   ar
    47    54    53   ar
    48    52    50   ar
    49    17    18    1
    50    95    96    1
    51    21    22    2
    52    73    76    1
    53    18    19    2
    54    87    86   ar
    55    87    89   ar
    56    86    88   ar
    57   102   101    1
    58    53    51   ar
    59   101   104    1
    60    50    49   ar
    61    59    60    1
    62    76    77    1
    63    89    90   ar
    64    96    97    1
    65    98    97   ar
    66    88    90   ar
    67    60    61    1
    68   104   105    1
    69    24    25    1
    70    97    99   ar
    71    51    49   ar
    72    49    48    1
    73    77    78    1
    74   105   106    1
    75    45    44    1
    76    45    48    1
    77    45    46    1
    78    25    28    1
    79    25    26    1
    80    61    62    1
    81    47    46    2
    82   106   108   ar
    83   106   107   ar
    84    28    29    1
    85    78    80   ar
    86    78    79   ar
    87    30    29   ar
    88    30    32   ar
    89    62    63    1
    90    29    31   ar
    91    32    34   ar
    92    26    27    2
    93    31    33   ar
    94    34    33   ar
    95    34    35    1
    96    36    37    1
    97    39    38    2
    98    38    37    1
    99    37    40    1
   100    40    41    1
   101    42    41   ar
   102    41    43   ar
