@<TRIPOS>MOLECULE
tmp/5ovhA00.pdb
 145 137 0 0 0
SMALL
GASTEIGER

@<TRIPOS>ATOM
      1  N         17.1410  -44.2880   36.1550 N.3   262  VAL262     -0.1245
      2  CA        17.9340  -43.1610   36.6520 C.3   262  VAL262      0.1561
      3  C         19.3780  -43.2390   36.1440 C.2   262  VAL262      0.2260
      4  O         19.9290  -42.2390   35.6750 O.2   262  VAL262     -0.2867
      5  CB        17.9100  -43.0790   38.2060 C.3   262  VAL262      0.0252
      6  CG1       18.9610  -42.1010   38.7400 C.3   262  VAL262      0.0019
      7  CG2       16.5310  -42.6470   38.6840 C.3   262  VAL262      0.0019
      8  N         20.0140  -32.4340   35.5940 N.3   285  VAL285     -0.1245
      9  CA        20.2050  -31.9630   36.9760 C.3   285  VAL285      0.1561
     10  C         18.8900  -31.4550   37.5740 C.2   285  VAL285      0.2260
     11  O         18.5740  -31.7550   38.7260 O.2   285  VAL285     -0.2867
     12  CB        21.3000  -30.8720   37.0490 C.3   285  VAL285      0.0252
     13  CG1       21.2730  -30.1180   38.3730 C.3   285  VAL285      0.0019
     14  CG2       22.6750  -31.4940   36.8380 C.3   285  VAL285      0.0019
     15  N         16.6290  -34.4590   38.2790 N.3   288  MET288     -0.1230
     16  CA        17.1300  -35.1970   39.4360 C.3   288  MET288      0.1702
     17  C         16.9510  -34.4410   40.7550 C.2   288  MET288      0.2592
     18  O         16.8470  -35.0710   41.8130 O.2   288  MET288     -0.2718
     19  CB        18.6090  -35.5600   39.2380 C.3   288  MET288      0.0401
     20  CG        18.8770  -36.4820   38.0600 C.3   288  MET288      0.0596
     21  SD        18.1620  -38.1100   38.2860 S.3   288  MET288     -0.1393
     22  CE        18.4840  -38.8490   36.6850 C.3   288  MET288      0.0692
     23  N         16.9300  -33.1060   40.6880 N.am  289  ASN289     -0.1974
     24  CA        16.6750  -32.2460   41.8580 C.3   289  ASN289      0.1688
     25  C         15.2060  -31.9280   42.1290 C.2   289  ASN289      0.2292
     26  O         14.8840  -31.3970   43.1910 O.2   289  ASN289     -0.2864
     27  CB        17.4370  -30.9260   41.7230 C.3   289  ASN289      0.1181
     28  CG        18.9260  -31.0930   41.9170 C.2   289  ASN289      0.2629
     29  OD1       19.3870  -32.0800   42.4860 O.2   289  ASN289     -0.2716
     30  ND2       19.6880  -30.1230   41.4490 N.am  289  ASN289     -0.0877
     31  N         11.7700  -36.6980   42.3790 N.3   293  VAL293     -0.1231
     32  CA        12.9500  -37.5450   42.1790 C.3   293  VAL293      0.1692
     33  C         13.9480  -37.4200   43.3290 C.2   293  VAL293      0.2592
     34  O         14.4280  -38.4370   43.8310 O.2   293  VAL293     -0.2718
     35  CB        13.6590  -37.2340   40.8400 C.3   293  VAL293      0.0266
     36  CG1       14.8970  -38.1180   40.6540 C.3   293  VAL293      0.0020
     37  CG2       12.6940  -37.4220   39.6770 C.3   293  VAL293      0.0020
     38  N         14.2600  -36.1910   43.7370 N.am  294  TYR294     -0.1976
     39  CA        15.3170  -35.9480   44.7390 C.3   294  TYR294      0.1639
     40  C         15.1230  -36.6920   46.0630 C.2   294  TYR294      0.2290
     41  O         16.1070  -37.1260   46.6780 O.2   294  TYR294     -0.2864
     42  CB        15.4960  -34.4480   45.0180 C.3   294  TYR294      0.0560
     43  CG        16.7520  -34.1490   45.8110 C.ar  294  TYR294     -0.0198
     44  CD1       18.0110  -34.2840   45.2270 C.ar  294  TYR294     -0.0009
     45  CD2       16.6890  -33.7620   47.1510 C.ar  294  TYR294     -0.0009
     46  CE1       19.1710  -34.0390   45.9480 C.ar  294  TYR294      0.0417
     47  CE2       17.8440  -33.5080   47.8780 C.ar  294  TYR294      0.0417
     48  CZ        19.0830  -33.6480   47.2710 C.ar  294  TYR294      0.1957
     49  OH        20.2330  -33.3990   47.9820 O.3   294  TYR294     -0.2866
     50  N         13.8580  -39.6760   46.4940 N.3   296  LEU296     -0.1231
     51  CA        13.8990  -41.1430   46.3490 C.3   296  LEU296      0.1693
     52  C         15.2460  -41.7050   46.8200 C.2   296  LEU296      0.2592
     53  O         16.0930  -42.1030   46.0070 O.2   296  LEU296     -0.2718
     54  CB        13.6150  -41.5660   44.8990 C.3   296  LEU296      0.0284
     55  CG        12.2600  -41.1750   44.2990 C.3   296  LEU296      0.0019
     56  CD1       12.2570  -41.4070   42.7930 C.3   296  LEU296      0.0001
     57  CD2       11.1090  -41.9260   44.9540 C.3   296  LEU296      0.0001
     58  N         15.4100  -41.7570   48.1420 N.am  297  ASP297     -0.1974
     59  CA        16.6740  -42.1530   48.7860 C.3   297  ASP297      0.1709
     60  C         17.0750  -43.5990   48.4950 C.2   297  ASP297      0.2293
     61  O         18.2720  -43.9020   48.4160 O.2   297  ASP297     -0.2864
     62  CB        16.6010  -41.9740   50.3120 C.3   297  ASP297      0.1436
     63  CG        16.3240  -40.5420   50.7300 C.2   297  ASP297      0.3671
     64  OD1       16.9350  -39.6120   50.1630 O.co2 297  ASP297     -0.2456
     65  OD2       15.4900  -40.3530   51.6410 O.co2 297  ASP297     -0.2456
     66  N         16.4050  -45.2270   45.7000 N.3   299  THR299     -0.1203
     67  CA        16.9060  -45.2360   44.3140 C.3   299  THR299      0.1994
     68  C         18.3560  -44.7410   44.2510 C.2   299  THR299      0.2617
     69  O         19.2050  -45.3880   43.6430 O.2   299  THR299     -0.2717
     70  CB        16.0150  -44.3940   43.3840 C.3   299  THR299      0.1784
     71  OG1       14.6580  -44.8490   43.4770 O.3   299  THR299     -0.2211
     72  CG2       16.4770  -44.4930   41.9330 C.3   299  THR299      0.0376
     73  N         18.6160  -43.6060   44.8970 N.am  300  PHE300     -0.1975
     74  CA        19.9650  -43.0300   45.0460 C.3   300  PHE300      0.1639
     75  C         20.9890  -44.0480   45.5570 C.2   300  PHE300      0.2290
     76  O         22.1010  -44.1270   45.0350 O.2   300  PHE300     -0.2864
     77  CB        19.8920  -41.8270   46.0000 C.3   300  PHE300      0.0560
     78  CG        21.2270  -41.1980   46.3240 C.ar  300  PHE300     -0.0200
     79  CD1       21.8720  -40.3750   45.4010 C.ar  300  PHE300     -0.0042
     80  CD2       21.8220  -41.3940   47.5720 C.ar  300  PHE300     -0.0042
     81  CE1       23.0940  -39.7840   45.7040 C.ar  300  PHE300     -0.0003
     82  CE2       23.0420  -40.8040   47.8790 C.ar  300  PHE300     -0.0003
     83  CZ        23.6790  -39.9980   46.9430 C.ar  300  PHE300     -0.0000
     84  N         22.5370  -46.3990   42.9330 N.3   303  ILE303     -0.1245
     85  CA        23.3010  -45.7830   41.8440 C.3   303  ILE303      0.1561
     86  C         24.7960  -45.9940   42.1290 C.2   303  ILE303      0.2260
     87  O         25.2420  -45.6990   43.2380 O.2   303  ILE303     -0.2867
     88  CB        23.0150  -44.2670   41.7100 C.3   303  ILE303      0.0252
     89  CG1       21.5370  -44.0000   41.3730 C.3   303  ILE303      0.0019
     90  CG2       23.9330  -43.6200   40.6740 C.3   303  ILE303      0.0019
     91  CD1       21.0360  -44.6190   40.0820 C.3   303  ILE303      0.0001
     92  N         27.0050  -41.4490   40.8900 N.3   308  LYS308     -0.1245
     93  CA        26.6970  -40.5010   41.9820 C.3   308  LYS308      0.1561
     94  C         27.5600  -39.2440   41.8940 C.2   308  LYS308      0.2260
     95  O         27.0470  -38.1270   41.9320 O.2   308  LYS308     -0.2867
     96  CB        26.9260  -41.1330   43.3610 C.3   308  LYS308      0.0271
     97  CG        25.7780  -41.9450   43.9220 C.3   308  LYS308      0.0035
     98  CD        26.0670  -42.2820   45.3800 C.3   308  LYS308      0.0206
     99  CE        24.9250  -43.0360   46.0330 C.3   308  LYS308      0.1093
    100  NZ        24.8800  -44.4640   45.6260 N.3   308  LYS308     -0.1314
    101  N         26.6700  -36.8900   38.9560 N.3   311  LEU311     -0.1231
    102  CA        25.5060  -36.0450   39.2840 C.3   311  LEU311      0.1693
    103  C         25.8440  -34.9530   40.2890 C.2   311  LEU311      0.2591
    104  O         25.4190  -33.8010   40.1340 O.2   311  LEU311     -0.2718
    105  CB        24.3230  -36.8710   39.8190 C.3   311  LEU311      0.0284
    106  CG        23.3220  -37.4230   38.8040 C.3   311  LEU311      0.0019
    107  CD1       22.1790  -38.1040   39.5420 C.3   311  LEU311      0.0001
    108  CD2       22.7710  -36.3380   37.8870 C.3   311  LEU311      0.0001
    109  N         26.5940  -35.3290   41.3200 N.am  312  GLU312     -0.1979
    110  CA        27.0080  -34.3900   42.3620 C.3   312  GLU312      0.1602
    111  C         27.9190  -33.2910   41.8190 C.2   312  GLU312      0.2287
    112  O         27.7730  -32.1290   42.1990 O.2   312  GLU312     -0.2864
    113  CB        27.6800  -35.1340   43.5200 C.3   312  GLU312      0.0415
    114  CG        26.6930  -35.9440   44.3520 C.3   312  GLU312      0.1163
    115  CD        27.3540  -36.8770   45.3540 C.2   312  GLU312      0.3649
    116  OE1       26.6220  -37.7030   45.9410 O.co2 312  GLU312     -0.2457
    117  OE2       28.5880  -36.7910   45.5600 O.co2 312  GLU312     -0.2457
    118  N         25.6650  -30.9500   39.6150 N.3   315  HIS315     -0.1226
    119  CA        24.9270  -29.9960   40.4620 C.3   315  HIS315      0.1752
    120  C         25.7940  -28.8040   40.8230 C.2   315  HIS315      0.2595
    121  O         25.3510  -27.6560   40.7370 O.2   315  HIS315     -0.2718
    122  CB        24.4520  -30.6410   41.7670 C.3   315  HIS315      0.0759
    123  CG        23.8730  -29.6610   42.7470 C.ar  315  HIS315      0.0818
    124  ND1       22.6030  -29.1430   42.6190 N.ar  315  HIS315     -0.2268
    125  CD2       24.3970  -29.0920   43.8580 C.ar  315  HIS315      0.1154
    126  CE1       22.3660  -28.3010   43.6080 C.ar  315  HIS315      0.1986
    127  NE2       23.4400  -28.2510   44.3740 N.ar  315  HIS315     -0.2212
    128  N         27.0250  -29.1050   41.2350 N.am  316  GLU316     -0.1979
    129  CA        27.9840  -28.1030   41.7100 C.3   316  GLU316      0.1602
    130  C         28.3280  -27.0280   40.6800 C.2   316  GLU316      0.2287
    131  O         28.7740  -25.9490   41.0650 O.2   316  GLU316     -0.2864
    132  CB        29.2570  -28.7870   42.2470 C.3   316  GLU316      0.0415
    133  CG        29.0310  -29.4600   43.6010 C.3   316  GLU316      0.1163
    134  CD        30.0550  -30.5280   43.9590 C.2   316  GLU316      0.3649
    135  OE1       31.1620  -30.5480   43.3840 O.co2 316  GLU316     -0.2457
    136  OE2       29.7470  -31.3560   44.8410 O.co2 316  GLU316     -0.2457
    137  N         26.2250  -23.9620   41.7140 N.3   319  GLU319     -0.1245
    138  CA        26.4960  -23.2860   42.9990 C.3   319  GLU319      0.1567
    139  C         27.2650  -21.9750   42.8270 C.2   319  GLU319      0.2260
    140  O         27.9890  -21.8020   41.8470 O.2   319  GLU319     -0.2867
    141  CB        27.2550  -24.2160   43.9540 C.3   319  GLU319      0.0388
    142  CG        26.4200  -25.3970   44.4370 C.3   319  GLU319      0.1160
    143  CD        27.2040  -26.4160   45.2480 C.2   319  GLU319      0.3649
    144  OE1       26.5590  -27.2620   45.9010 O.co2 319  GLU319     -0.2457
    145  OE2       28.4540  -26.3850   45.2370 O.co2 319  GLU319     -0.2457
@<TRIPOS>BOND
     1     8     9    1
     2     4     3    2
     3     3     2    1
     4     1     2    1
     5     2     5    1
     6    22    21    1
     7    14    12    1
     8     9    12    1
     9     9    10    1
    10    12    13    1
    11    10    11    2
    12   108   106    1
    13    20    21    1
    14    20    19    1
    15     5     7    1
    16     5     6    1
    17    15    16    1
    18   106   107    1
    19   106   105    1
    20   101   102    1
    21    19    16    1
    22   102   105    1
    23   102   103    1
    24    16    17    1
    25   118   119    1
    26    37    35    1
    27    91    89    1
    28   104   103    2
    29   103   109   am
    30   119   120    1
    31   119   122    1
    32    36    35    1
    33    90    88    1
    34   130   131    2
    35   130   129    1
    36    23    17   am
    37    23    24    1
    38   121   120    2
    39    17    18    2
    40   120   128   am
    41    35    32    1
    42    92    93    1
    43   128   129    1
    44   109   110    1
    45    89    88    1
    46    30    28   am
    47    88    85    1
    48   129   132    1
    49   137   138    1
    50    27    24    1
    51    27    28    1
    52   122   123    1
    53   111   112    2
    54   111   110    1
    55    85    86    1
    56    85    84    1
    57   140   139    2
    58    24    25    1
    59    94    95    2
    60    94    93    1
    61    28    29    2
    62    72    70    1
    63    93    96    1
    64    25    26    2
    65    86    87    2
    66    32    31    1
    67    32    33    1
    68   132   133    1
    69   110   113    1
    70   124   123   ar
    71   124   126   ar
    72   123   125   ar
    73    56    55    1
    74   139   138    1
    75   138   141    1
    76    33    38   am
    77    33    34    2
    78    96    97    1
    79    70    71    1
    80    70    67    1
    81   135   134   ar
    82   113   114    1
    83   133   134    1
    84   126   127   ar
    85    69    68    2
    86    38    39    1
    87   125   127   ar
    88    97    98    1
    89   141   142    1
    90   134   136   ar
    91    68    67    1
    92    68    73   am
    93    55    54    1
    94    55    57    1
    95    67    66    1
    96   114   115    1
    97   142   143    1
    98    39    42    1
    99    39    40    1
   100    73    74    1
   101    54    51    1
   102    42    43    1
   103    76    75    2
   104    74    75    1
   105    74    77    1
   106    44    43   ar
   107    44    46   ar
   108   145   143   ar
   109   143   144   ar
   110   115   117   ar
   111   115   116   ar
   112    98    99    1
   113    79    81   ar
   114    79    78   ar
   115   100    99    1
   116    81    83   ar
   117    43    45   ar
   118    46    48   ar
   119    77    78    1
   120    53    52    2
   121    40    41    2
   122    78    80   ar
   123    51    50    1
   124    51    52    1
   125    52    58   am
   126    83    82   ar
   127    45    47   ar
   128    48    47   ar
   129    48    49    1
   130    80    82   ar
   131    58    59    1
   132    61    60    2
   133    60    59    1
   134    59    62    1
   135    64    63   ar
   136    62    63    1
   137    63    65   ar
