@<TRIPOS>MOLECULE
tmp/5oviA00.pdb
 128 122 0 0 0
SMALL
GASTEIGER

@<TRIPOS>ATOM
      1  N         -4.4840  -43.5890   36.8580 N.3   274  VAL274     -0.1245
      2  CA        -3.6350  -42.4620   37.2500 C.3   274  VAL274      0.1561
      3  C         -2.2890  -42.5660   36.5220 C.2   274  VAL274      0.2260
      4  O         -1.8050  -41.5850   35.9650 O.2   274  VAL274     -0.2867
      5  CB        -3.4360  -42.3940   38.7870 C.3   274  VAL274      0.0252
      6  CG1       -2.3460  -41.3970   39.1780 C.3   274  VAL274      0.0019
      7  CG2       -4.7430  -42.0300   39.4780 C.3   274  VAL274      0.0019
      8  N         -1.8370  -31.7360   35.5880 N.3   297  VAL297     -0.1245
      9  CA        -1.4930  -31.2030   36.9110 C.3   297  VAL297      0.1561
     10  C         -2.7540  -30.6930   37.6330 C.2   297  VAL297      0.2260
     11  O         -2.9820  -30.9970   38.8140 O.2   297  VAL297     -0.2867
     12  CB        -0.4410  -30.0610   36.7850 C.3   297  VAL297      0.0252
     13  CG1       -0.3030  -29.2500   38.0680 C.3   297  VAL297      0.0019
     14  CG2        0.9220  -30.6180   36.3810 C.3   297  VAL297      0.0019
     15  N         -4.8610  -33.6490   38.7740 N.3   300  MET300     -0.1230
     16  CA        -4.2190  -34.3540   39.8880 C.3   300  MET300      0.1702
     17  C         -4.2520  -33.5490   41.1960 C.2   300  MET300      0.2592
     18  O         -4.2220  -34.1380   42.2810 O.2   300  MET300     -0.2718
     19  CB        -2.7830  -34.7460   39.5160 C.3   300  MET300      0.0401
     20  CG        -2.6920  -35.7160   38.3370 C.3   300  MET300      0.0596
     21  SD        -3.3900  -37.3370   38.6890 S.3   300  MET300     -0.1393
     22  CE        -3.3270  -38.0840   37.0610 C.3   300  MET300      0.0692
     23  N         -4.3250  -32.2190   41.0870 N.am  301  ASN301     -0.1974
     24  CA        -4.4640  -31.3350   42.2520 C.3   301  ASN301      0.1688
     25  C         -5.8930  -31.0870   42.7270 C.2   301  ASN301      0.2292
     26  O         -6.0770  -30.5500   43.8190 O.2   301  ASN301     -0.2864
     27  CB        -3.7930  -29.9840   41.9900 C.3   301  ASN301      0.1181
     28  CG        -2.2880  -30.0800   41.9950 C.2   301  ASN301      0.2629
     29  OD1       -1.7070  -30.9910   42.5870 O.2   301  ASN301     -0.2716
     30  ND2       -1.6450  -29.1370   41.3410 N.am  301  ASN301     -0.0877
     31  N         -9.1420  -35.9010   43.5570 N.3   305  VAL305     -0.1231
     32  CA        -7.9980  -36.7320   43.1640 C.3   305  VAL305      0.1692
     33  C         -6.8390  -36.6140   44.1400 C.2   305  VAL305      0.2592
     34  O         -6.2670  -37.6320   44.5400 O.2   305  VAL305     -0.2718
     35  CB        -7.4910  -36.3680   41.7510 C.3   305  VAL305      0.0266
     36  CG1       -6.2780  -37.2150   41.3660 C.3   305  VAL305      0.0020
     37  CG2       -8.6100  -36.5440   40.7350 C.3   305  VAL305      0.0020
     38  N         -6.4950  -35.3840   44.5190 N.am  306  TYR306     -0.1976
     39  CA        -5.2860  -35.1180   45.3110 C.3   306  TYR306      0.1639
     40  C         -5.2740  -35.8490   46.6600 C.2   306  TYR306      0.2290
     41  O         -4.2130  -36.2230   47.1620 O.2   306  TYR306     -0.2864
     42  CB        -5.0860  -33.6080   45.5000 C.3   306  TYR306      0.0560
     43  CG        -3.7400  -33.2520   46.0920 C.ar  306  TYR306     -0.0198
     44  CD1       -2.5590  -33.4830   45.3770 C.ar  306  TYR306     -0.0009
     45  CD2       -3.6390  -32.6990   47.3710 C.ar  306  TYR306     -0.0009
     46  CE1       -1.3220  -33.1810   45.9210 C.ar  306  TYR306      0.0417
     47  CE2       -2.4030  -32.3870   47.9240 C.ar  306  TYR306      0.0417
     48  CZ        -1.2500  -32.6260   47.1960 C.ar  306  TYR306      0.1957
     49  OH        -0.0320  -32.3170   47.7350 O.3   306  TYR306     -0.2866
     50  N         -6.3690  -38.9100   47.1200 N.3   308  LEU308     -0.1231
     51  CA        -6.3420  -40.3690   46.9210 C.3   308  LEU308      0.1693
     52  C         -4.9540  -40.9620   47.1680 C.2   308  LEU308      0.2592
     53  O         -4.2990  -41.4550   46.2440 O.2   308  LEU308     -0.2718
     54  CB        -6.8520  -40.7320   45.5120 C.3   308  LEU308      0.0284
     55  CG        -8.2970  -40.3210   45.1960 C.3   308  LEU308      0.0019
     56  CD1       -8.6570  -40.6560   43.7590 C.3   308  LEU308      0.0001
     57  CD2       -9.2830  -40.9820   46.1490 C.3   308  LEU308      0.0001
     58  N         -4.5280  -40.9400   48.4280 N.am  309  ASP309     -0.1974
     59  CA        -3.1440  -41.2730   48.7900 C.3   309  ASP309      0.1709
     60  C         -2.7990  -42.7600   48.6600 C.2   309  ASP309      0.2293
     61  O         -1.6380  -43.0950   48.4220 O.2   309  ASP309     -0.2864
     62  CB        -2.8040  -40.7540   50.2010 C.3   309  ASP309      0.1436
     63  CG        -2.7040  -39.2290   50.2600 C.2   309  ASP309      0.3671
     64  OD1       -2.2780  -38.6040   49.2630 O.co2 309  ASP309     -0.2456
     65  OD2       -3.0450  -38.6510   51.3120 O.co2 309  ASP309     -0.2456
     66  N         -3.8760  -44.5400   46.1750 N.3   311  THR311     -0.1203
     67  CA        -3.6410  -44.6800   44.7430 C.3   311  THR311      0.1994
     68  C         -2.2240  -44.2240   44.3940 C.2   311  THR311      0.2617
     69  O         -1.4620  -44.9800   43.7910 O.2   311  THR311     -0.2717
     70  CB        -4.6750  -43.8870   43.9250 C.3   311  THR311      0.1784
     71  OG1       -5.9950  -44.2620   44.3430 O.3   311  THR311     -0.2211
     72  CG2       -4.5240  -44.1600   42.4380 C.3   311  THR311      0.0376
     73  N         -1.8680  -43.0050   44.7990 N.am  312  PHE312     -0.1975
     74  CA        -0.5480  -42.4440   44.4820 C.3   312  PHE312      0.1639
     75  C          0.6250  -43.2300   45.0810 C.2   312  PHE312      0.2290
     76  O          1.7090  -43.2580   44.4860 O.2   312  PHE312     -0.2864
     77  CB        -0.4590  -40.9710   44.8890 C.3   312  PHE312      0.0560
     78  CG         0.7340  -40.2600   44.3080 C.ar  312  PHE312     -0.0200
     79  CD1        0.7830  -39.9530   42.9470 C.ar  312  PHE312     -0.0042
     80  CD2        1.8220  -39.9190   45.1060 C.ar  312  PHE312     -0.0042
     81  CE1        1.8900  -39.3130   42.4020 C.ar  312  PHE312     -0.0003
     82  CE2        2.9280  -39.2770   44.5660 C.ar  312  PHE312     -0.0003
     83  CZ         2.9620  -38.9700   43.2140 C.ar  312  PHE312     -0.0000
     84  N          5.2920  -36.2700   37.7990 N.3   323  LEU323     -0.1231
     85  CA         4.1090  -35.4990   38.1870 C.3   323  LEU323      0.1693
     86  C          4.4730  -34.3570   39.1480 C.2   323  LEU323      0.2591
     87  O          4.0010  -33.2250   38.9840 O.2   323  LEU323     -0.2718
     88  CB         3.0480  -36.4180   38.7970 C.3   323  LEU323      0.0284
     89  CG         1.7010  -35.7930   39.1710 C.3   323  LEU323      0.0019
     90  CD1        1.0350  -35.1150   37.9790 C.3   323  LEU323      0.0001
     91  CD2        0.7920  -36.8500   39.7740 C.3   323  LEU323      0.0001
     92  N          5.3260  -34.6540   40.1270 N.am  324  GLU324     -0.1979
     93  CA         5.8040  -33.6430   41.0770 C.3   324  GLU324      0.1602
     94  C          6.5500  -32.4970   40.3900 C.2   324  GLU324      0.2287
     95  O          6.3150  -31.3330   40.7130 O.2   324  GLU324     -0.2864
     96  CB         6.6870  -34.2840   42.1600 C.3   324  GLU324      0.0415
     97  CG         5.9050  -35.1240   43.1660 C.3   324  GLU324      0.1163
     98  CD         6.7730  -36.0430   44.0180 C.2   324  GLU324      0.3649
     99  OE1        6.1980  -36.9190   44.7040 O.co2 324  GLU324     -0.2457
    100  OE2        8.0160  -35.9070   44.0120 O.co2 324  GLU324     -0.2457
    101  N          4.0620  -30.1560   38.5790 N.3   327  HIS327     -0.1226
    102  CA         3.4720  -29.1920   39.5180 C.3   327  HIS327      0.1752
    103  C          4.4070  -28.0180   39.7720 C.2   327  HIS327      0.2595
    104  O          3.9930  -26.8550   39.7590 O.2   327  HIS327     -0.2718
    105  CB         3.1440  -29.8430   40.8620 C.3   327  HIS327      0.0759
    106  CG         2.7130  -28.8640   41.9080 C.ar  327  HIS327      0.0818
    107  ND1        1.4690  -28.2730   41.9020 N.ar  327  HIS327     -0.2268
    108  CD2        3.3670  -28.3500   42.9770 C.ar  327  HIS327      0.1154
    109  CE1        1.3690  -27.4460   42.9260 C.ar  327  HIS327      0.1986
    110  NE2        2.5070  -27.4740   43.5960 N.ar  327  HIS327     -0.2212
    111  N          5.6770  -28.3410   39.9900 N.am  328  GLU328     -0.1979
    112  CA         6.6870  -27.3410   40.3330 C.3   328  GLU328      0.1602
    113  C          6.9220  -26.2870   39.2410 C.2   328  GLU328      0.2287
    114  O          7.4550  -25.2180   39.5230 O.2   328  GLU328     -0.2864
    115  CB         7.9850  -28.0440   40.7410 C.3   328  GLU328      0.0415
    116  CG         7.8580  -28.7380   42.0930 C.3   328  GLU328      0.1163
    117  CD         8.9570  -29.7450   42.3930 C.2   328  GLU328      0.3649
    118  OE1        9.8460  -29.9720   41.5460 O.co2 328  GLU328     -0.2457
    119  OE2        8.9260  -30.3250   43.4940 O.co2 328  GLU328     -0.2457
    120  N          5.0040  -23.2710   40.5670 N.3   331  GLU331     -0.1245
    121  CA         5.3880  -22.6400   41.8410 C.3   331  GLU331      0.1567
    122  C          6.0860  -21.2980   41.6180 C.2   331  GLU331      0.2260
    123  O          6.7140  -21.0890   40.5770 O.2   331  GLU331     -0.2867
    124  CB         6.2640  -23.5850   42.6770 C.3   331  GLU331      0.0388
    125  CG         5.4930  -24.7910   43.2020 C.3   331  GLU331      0.1160
    126  CD         6.3120  -25.7260   44.0780 C.2   331  GLU331      0.3649
    127  OE1        5.6990  -26.5390   44.8020 O.co2 331  GLU331     -0.2457
    128  OE2        7.5570  -25.6690   44.0540 O.co2 331  GLU331     -0.2457
@<TRIPOS>BOND
     1     8     9    1
     2     4     3    2
     3    14    12    1
     4     3     2    1
     5    12     9    1
     6    12    13    1
     7     1     2    1
     8     9    10    1
     9    22    21    1
    10     2     5    1
    11    10    11    2
    12    84    85    1
    13    90    89    1
    14    85    88    1
    15    85    86    1
    16    20    21    1
    17    20    19    1
    18   101   102    1
    19    15    16    1
    20     5     6    1
    21     5     7    1
    22    88    89    1
    23    87    86    2
    24    86    92   am
    25    89    91    1
    26   113   114    2
    27   113   112    1
    28    19    16    1
    29   102   103    1
    30   102   105    1
    31   104   103    2
    32   103   111   am
    33    16    17    1
    34   111   112    1
    35    92    93    1
    36   112   115    1
    37    94    95    2
    38    94    93    1
    39   120   121    1
    40   123   122    2
    41    37    35    1
    42   115   116    1
    43   105   106    1
    44    93    96    1
    45    23    17   am
    46    23    24    1
    47    17    18    2
    48    30    28   am
    49    36    35    1
    50   118   117   ar
    51   122   121    1
    52    35    32    1
    53   121   124    1
    54   107   106   ar
    55   107   109   ar
    56   106   108   ar
    57    27    28    1
    58    27    24    1
    59    28    29    2
    60   116   117    1
    61    96    97    1
    62    24    25    1
    63   117   119   ar
    64    81    79   ar
    65    81    83   ar
    66    72    70    1
    67   124   125    1
    68    25    26    2
    69   109   110   ar
    70    79    78   ar
    71   108   110   ar
    72    32    31    1
    73    32    33    1
    74    97    98    1
    75   125   126    1
    76    83    82   ar
    77    56    55    1
    78    69    68    2
    79    70    71    1
    80    70    67    1
    81   100    98   ar
    82    98    99   ar
    83   128   126   ar
    84   126   127   ar
    85    33    38   am
    86    33    34    2
    87    78    77    1
    88    78    80   ar
    89    68    67    1
    90    68    73   am
    91    74    73    1
    92    74    77    1
    93    74    75    1
    94    76    75    2
    95    38    39    1
    96    82    80   ar
    97    67    66    1
    98    55    54    1
    99    55    57    1
   100    39    42    1
   101    39    40    1
   102    44    46   ar
   103    44    43   ar
   104    42    43    1
   105    54    51    1
   106    46    48   ar
   107    43    45   ar
   108    53    52    2
   109    40    41    2
   110    51    50    1
   111    51    52    1
   112    52    58   am
   113    48    49    1
   114    48    47   ar
   115    45    47   ar
   116    61    60    2
   117    58    59    1
   118    60    59    1
   119    59    62    1
   120    64    63   ar
   121    62    63    1
   122    63    65   ar
