@<TRIPOS>MOLECULE
tmp/5ovkA00.pdb
 152 145 0 0 0
SMALL
GASTEIGER

@<TRIPOS>ATOM
      1  N         18.5000   10.9410    7.4880 N.3    17  GLY17      -0.1225
      2  CA        19.8940   10.9550    7.8850 C.3    17  GLY17       0.1811
      3  C         20.2110    9.8760    8.8940 C.2    17  GLY17       0.2280
      4  O         21.0800   10.0630    9.7530 O.2    17  GLY17      -0.2866
      5  N         21.3290    6.7720    8.2720 N.3    19  ASN19      -0.1225
      6  CA        22.1790    5.7210    7.7300 C.3    19  ASN19       0.1785
      7  C         23.6260    5.7980    8.2010 C.2    19  ASN19       0.2597
      8  O         24.3840    4.8530    7.9660 O.2    19  ASN19      -0.2718
      9  CB        22.1040    5.7080    6.1970 C.3    19  ASN19       0.1169
     10  CG        22.4990    7.0350    5.5720 C.2    19  ASN19       0.2627
     11  OD1       22.0680    8.1050    6.0100 O.2    19  ASN19      -0.2716
     12  ND2       23.3160    6.9680    4.5280 N.am   19  ASN19      -0.0877
     13  N         24.0290    6.8780    8.8670 N.am   20  ARG20      -0.1966
     14  CA        25.3900    6.9700    9.3740 C.3    20  ARG20       0.1729
     15  C         25.4360    7.9350   10.5510 C.2    20  ARG20       0.2617
     16  O         24.5010    8.7060   10.7840 O.2    20  ARG20      -0.2715
     17  CB        26.3700    7.4100    8.2790 C.3    20  ARG20       0.0348
     18  CG        26.1570    8.8340    7.8140 C.3    20  ARG20       0.0492
     19  CD        27.1330    9.2130    6.6990 C.3    20  ARG20       0.2205
     20  NE        26.6780    8.8010    5.3690 N.pl3  20  ARG20      -0.0865
     21  CZ        27.1190    7.7240    4.7210 C.cat  20  ARG20       0.5346
     22  NH1       26.6450    7.4360    3.5130 N.pl3  20  ARG20       0.1354
     23  NH2       28.0330    6.9350    5.2750 N.pl3  20  ARG20       0.1354
     24  N         26.5260    7.8480   11.3160 N.am   21  GLY21      -0.1940
     25  CA        26.8340    8.8520   12.3230 C.3    21  GLY21       0.2014
     26  C         25.8100    8.9280   13.4410 C.2    21  GLY21       0.2639
     27  O         25.3120    7.9110   13.9380 O.2    21  GLY21      -0.2714
     28  N         25.4950   10.1640   13.8460 N.am   22  ILE22      -0.1963
     29  CA        24.5580   10.3780   14.9480 C.3    22  ILE22       0.1727
     30  C         23.1830    9.8140   14.6090 C.2    22  ILE22       0.2616
     31  O         22.5240    9.1940   15.4540 O.2    22  ILE22      -0.2715
     32  CB        24.5060   11.8750   15.3210 C.3    22  ILE22       0.0290
     33  CG1       25.8500   12.3150   15.9010 C.3    22  ILE22       0.0022
     34  CG2       23.3490   12.1620   16.2860 C.3    22  ILE22       0.0023
     35  CD1       26.0000   13.8150   16.0040 C.3    22  ILE22       0.0001
     36  N         22.7290   10.0140   13.3680 N.am   23  GLY23      -0.1955
     37  CA        21.4360    9.4860   12.9710 C.3    23  GLY23       0.1869
     38  C         21.3680    7.9740   13.0430 C.2    23  GLY23       0.2309
     39  O         20.3220    7.4130   13.3980 O.2    23  GLY23      -0.2863
     40  N         16.5800    6.7430    6.0270 N.3    40  THR40      -0.1203
     41  CA        16.8310    7.1700    4.6610 C.3    40  THR40       0.1994
     42  C         18.3050    6.9880    4.3320 C.2    40  THR40       0.2618
     43  O         19.1620    6.9070    5.2140 O.2    40  THR40      -0.2717
     44  CB        16.4590    8.6430    4.4320 C.3    40  THR40       0.1784
     45  OG1       17.3310    9.4840    5.1940 O.3    40  THR40      -0.2211
     46  CG2       15.0220    8.9360    4.8310 C.3    40  THR40       0.0376
     47  N         18.5870    6.9230    3.0390 N.am   41  HIS41      -0.1961
     48  CA        19.9410    7.0310    2.5150 C.3    41  HIS41       0.1787
     49  C         19.8300    7.6420    1.1290 C.2    41  HIS41       0.2620
     50  O         18.7450    7.7270    0.5570 O.2    41  HIS41      -0.2715
     51  CB        20.6510    5.6690    2.4720 C.3    41  HIS41       0.0785
     52  CG        20.0240    4.6910    1.5280 C.ar   41  HIS41       0.0821
     53  ND1       20.4260    4.5590    0.2170 N.ar   41  HIS41      -0.2267
     54  CD2       19.0100    3.8120    1.7010 C.ar   41  HIS41       0.1154
     55  CE1       19.6900    3.6340   -0.3760 C.ar   41  HIS41       0.1986
     56  NE2       18.8240    3.1640    0.5050 N.ar   41  HIS41      -0.2212
     57  N         20.9620    8.0600    0.5730 N.am   42  ARG42      -0.1977
     58  CA        20.9540    8.6940   -0.7380 C.3    42  ARG42       0.1597
     59  C         21.6330    7.8490   -1.8120 C.2    42  ARG42       0.2287
     60  O         22.1940    8.3850   -2.7690 O.2    42  ARG42      -0.2864
     61  CB        21.5210   10.1120   -0.6850 C.3    42  ARG42       0.0334
     62  CG        20.5140   11.1490   -0.2010 C.3    42  ARG42       0.0492
     63  CD        21.0770   12.5510   -0.3410 C.3    42  ARG42       0.2205
     64  NE        22.2600   12.7390    0.4950 N.pl3  42  ARG42      -0.0865
     65  CZ        22.9720   13.8600    0.5400 C.cat  42  ARG42       0.5346
     66  NH1       22.6250   14.9000   -0.2070 N.pl3  42  ARG42       0.1354
     67  NH2       24.0360   13.9370    1.3280 N.pl3  42  ARG42       0.1354
     68  N         23.8310    5.0090   -1.0510 N.3    44  SER44      -0.1217
     69  CA        24.8770    4.1300   -0.5420 C.3    44  SER44       0.1889
     70  C         24.3200    2.8960    0.1530 C.2    44  SER44       0.2288
     71  O         25.0810    1.9590    0.4130 O.2    44  SER44      -0.2866
     72  CB        25.8230    4.8880    0.3870 C.3    44  SER44       0.2089
     73  OG        25.1150    5.4370    1.4810 O.3    44  SER44      -0.2183
     74  N         16.1810    8.4080   -0.2050 N.3    55  CYS55      -0.1221
     75  CA        15.4100    9.6430   -0.1170 C.3    55  CYS55       0.1808
     76  C         16.3550   10.8160    0.0640 C.2    55  CYS55       0.2601
     77  O         17.1120   10.8550    1.0380 O.2    55  CYS55      -0.2717
     78  CB        14.4400    9.5720    1.0660 C.3    55  CYS55       0.0970
     79  SG        13.4490   11.0670    1.2540 S.3    55  CYS55      -0.0800
     80  N         16.2870   11.7800   -0.8510 N.am   56  ASP56      -0.1959
     81  CA        16.9440   13.0710   -0.7030 C.3    56  ASP56       0.1840
     82  C         15.8930   14.0570   -0.2080 C.2    56  ASP56       0.2622
     83  O         14.9040   14.3140   -0.9070 O.2    56  ASP56      -0.2715
     84  CB        17.4890   13.5180   -2.0620 C.3    56  ASP56       0.1450
     85  CG        18.3480   14.7660   -1.9780 C.2    56  ASP56       0.3671
     86  OD1       18.0330   15.6740   -1.1770 O.co2  56  ASP56      -0.2456
     87  OD2       19.3370   14.8490   -2.7360 O.co2  56  ASP56      -0.2456
     88  N         16.1110   14.6160    0.9900 N.am   57  VAL57      -0.1963
     89  CA        15.0900   15.4510    1.6300 C.3    57  VAL57       0.1727
     90  C         14.9320   16.8140    0.9810 C.2    57  VAL57       0.2616
     91  O         14.0780   17.5970    1.4220 O.2    57  VAL57      -0.2715
     92  CB        15.2650   15.5890    3.1580 C.3    57  VAL57       0.0290
     93  CG1       15.2780   14.2020    3.8080 C.3    57  VAL57       0.0023
     94  CG2       16.5210   16.3910    3.4890 C.3    57  VAL57       0.0023
     95  N         15.7250   17.1320   -0.0430 N.am   58  THR58      -0.1951
     96  CA        15.4940   18.3290   -0.8430 C.3    58  THR58       0.1897
     97  C         14.5110   18.0950   -1.9790 C.2    58  THR58       0.2313
     98  O         14.1740   19.0440   -2.6930 O.2    58  THR58      -0.2863
     99  CB        16.8050   18.9090   -1.4040 C.3    58  THR58       0.1794
    100  OG1       17.3800   18.0080   -2.3630 O.3    58  THR58      -0.2208
    101  CG2       17.7980   19.1870   -0.2740 C.3    58  THR58       0.0378
    102  N         16.8710   14.0560   11.0430 N.3    83  ASN83      -0.1225
    103  CA        18.2860   14.2430   11.3320 C.3    83  ASN83       0.1785
    104  C         19.1120   14.6210   10.1100 C.2    83  ASN83       0.2597
    105  O         20.2630   15.0380   10.2720 O.2    83  ASN83      -0.2718
    106  CB        18.8660   12.9700   11.9740 C.3    83  ASN83       0.1169
    107  CG        20.3240   13.1120   12.3320 C.2    83  ASN83       0.2627
    108  OD1       20.6760   13.8650   13.2360 O.2    83  ASN83      -0.2716
    109  ND2       21.1870   12.4200   11.6000 N.am   83  ASN83      -0.0877
    110  N         18.5630   14.5020    8.9010 N.am   84  ALA84      -0.1966
    111  CA        19.3150   14.8650    7.7020 C.3    84  ALA84       0.1728
    112  C         19.7810   16.3140    7.7920 C.2    84  ALA84       0.2617
    113  O         18.9930   17.2230    8.0750 O.2    84  ALA84      -0.2715
    114  CB        18.4450   14.6760    6.4590 C.3    84  ALA84       0.0334
    115  N         21.0710   16.5300    7.5630 N.am   85  GLY85      -0.1940
    116  CA        21.6250   17.8550    7.7460 C.3    85  GLY85       0.2014
    117  C         23.0070   17.9580    7.1510 C.2    85  GLY85       0.2638
    118  O         23.6970   16.9540    6.9440 O.2    85  GLY85      -0.2714
    119  N         23.3990   19.2020    6.8650 N.am   86  ILE86      -0.1977
    120  CA        24.7250   19.5220    6.3550 C.3    86  ILE86       0.1596
    121  C         25.1900   20.8290    6.9840 C.2    86  ILE86       0.2287
    122  O         24.3960   21.6130    7.5060 O.2    86  ILE86      -0.2864
    123  CB        24.7700   19.6510    4.8140 C.3    86  ILE86       0.0276
    124  CG1       23.8260   20.7580    4.3330 C.3    86  ILE86       0.0022
    125  CG2       24.4430   18.3190    4.1470 C.3    86  ILE86       0.0022
    126  CD1       24.1040   21.2260    2.9040 C.3    86  ILE86       0.0001
    127  N         18.3480   21.7910    2.9810 N.3   106  THR106     -0.1218
    128  CA        18.4190   20.4690    3.5910 C.3   106  THR106      0.1862
    129  C         17.9270   20.5020    5.0270 C.2   106  THR106      0.2287
    130  O         17.0700   19.7010    5.4170 O.2   106  THR106     -0.2866
    131  CB        19.8550   19.9560    3.5520 C.3   106  THR106      0.1770
    132  OG1       20.2590   19.7620    2.1890 O.3   106  THR106     -0.2211
    133  CG2       19.9620   18.6250    4.3180 C.3   106  THR106      0.0375
    134  N         23.6860   27.7660    9.3270 N.3   148  TYR148     -0.1241
    135  CA        23.3450   26.6300   10.1850 C.3   148  TYR148      0.1605
    136  C         22.5200   27.0650   11.3920 C.2   148  TYR148      0.2264
    137  O         21.5360   26.4060   11.7550 O.2   148  TYR148     -0.2867
    138  CB        24.6360   25.9550   10.6350 C.3   148  TYR148      0.0534
    139  CG        24.4870   24.6000   11.2450 C.ar  148  TYR148     -0.0201
    140  CD1       24.3410   23.4770   10.4440 C.ar  148  TYR148     -0.0009
    141  CD2       24.5350   24.4240   12.6270 C.ar  148  TYR148     -0.0009
    142  CE1       24.2220   22.2250   10.9930 C.ar  148  TYR148      0.0417
    143  CE2       24.4310   23.1720   13.1810 C.ar  148  TYR148      0.0417
    144  CZ        24.2690   22.0740   12.3600 C.ar  148  TYR148      0.1957
    145  OH        24.1580   20.8130   12.8980 O.3   148  TYR148     -0.2866
    146  N         32.4840   12.8990   16.9800 N.3   183  THR183     -0.1218
    147  CA        32.3200   12.3000   15.6630 C.3   183  THR183      0.1862
    148  C         33.6910   12.2020   15.0110 C.2   183  THR183      0.2287
    149  O         34.7090   12.5920   15.5940 O.2   183  THR183     -0.2866
    150  CB        31.4260   13.1600   14.7590 C.3   183  THR183      0.1770
    151  OG1       32.0570   14.4310   14.5510 O.3   183  THR183     -0.2211
    152  CG2       30.0480   13.3700   15.3750 C.3   183  THR183      0.0375
@<TRIPOS>BOND
     1    60    59    2
     2    87    85   ar
     3    98    97    2
     4   100    99    1
     5    84    85    1
     6    84    81    1
     7    97    96    1
     8    85    86   ar
     9    59    58    1
    10    99    96    1
    11    99   101    1
    12    68    69    1
    13    83    82    2
    14    80    81    1
    15    80    76   am
    16    96    95    1
    17    58    61    1
    18    58    57    1
    19    81    82    1
    20    61    62    1
    21    69    70    1
    22    69    72    1
    23    55    53   ar
    24    55    56   ar
    25    63    62    1
    26    63    64    1
    27    82    88   am
    28    66    65    1
    29    74    75    1
    30    75    76    1
    31    75    78    1
    32    95    90   am
    33    76    77    2
    34    70    71    2
    35    53    52   ar
    36    72    73    1
    37    64    65    2
    38    56    54   ar
    39    65    67    1
    40    50    49    2
    41    57    49   am
    42    90    91    2
    43    90    89    1
    44    88    89    1
    45    78    79    1
    46    49    48    1
    47    52    54   ar
    48    52    51    1
    49    89    92    1
    50   132   131    1
    51    51    48    1
    52    48    47    1
    53   126   124    1
    54   127   128    1
    55    47    42   am
    56    92    94    1
    57    92    93    1
    58    22    21    1
    59   131   128    1
    60   131   133    1
    61   128   129    1
    62   125   123    1
    63    42    41    1
    64    42    43    2
    65   124   123    1
    66    44    41    1
    67    44    46    1
    68    44    45    1
    69    12    10   am
    70    41    40    1
    71    21    23    1
    72    21    20    2
    73   123   120    1
    74   129   130    2
    75    20    19    1
    76    10    11    2
    77    10     9    1
    78     9     6    1
    79   120   119    1
    80   120   121    1
    81   114   111    1
    82    19    18    1
    83   119   117   am
    84   118   117    2
    85   121   122    2
    86   117   116    1
    87     1     2    1
    88   115   116    1
    89   115   112   am
    90   111   112    1
    91   111   110    1
    92     6     7    1
    93     6     5    1
    94   112   113    2
    95    18    17    1
    96     2     3    1
    97     8     7    2
    98     7    13   am
    99    17    14    1
   100    13    14    1
   101     3     4    2
   102   110   104   am
   103   134   135    1
   104    14    15    1
   105   104   105    2
   106   104   103    1
   107   135   138    1
   108   135   136    1
   109   140   142   ar
   110   140   139   ar
   111    15    16    2
   112    15    24   am
   113   138   139    1
   114   142   144   ar
   115   102   103    1
   116   139   141   ar
   117    24    25    1
   118   103   106    1
   119   136   137    2
   120   109   107   am
   121   106   107    1
   122    25    26    1
   123   107   108    2
   124   144   145    1
   125   144   143   ar
   126   141   143   ar
   127    37    38    1
   128    37    36    1
   129    38    39    2
   130    36    30   am
   131    26    28   am
   132    26    27    2
   133    28    29    1
   134   151   150    1
   135    30    29    1
   136    30    31    2
   137   150   152    1
   138   150   147    1
   139    29    32    1
   140   148   149    2
   141   148   147    1
   142    32    33    1
   143    32    34    1
   144   147   146    1
   145    33    35    1
