@<TRIPOS>MOLECULE
tmp/5ovkD00.pdb
 145 138 0 0 0
SMALL
GASTEIGER

@<TRIPOS>ATOM
      1  N         18.1130   51.6220   45.1980 N.3    17  GLY17      -0.1225
      2  CA        19.5300   51.4610   44.9010 C.3    17  GLY17       0.1811
      3  C         20.0350   52.4920   43.9150 C.2    17  GLY17       0.2280
      4  O         20.9560   52.2090   43.1350 O.2    17  GLY17      -0.2866
      5  N         21.3730   55.4920   44.7150 N.3    19  ASN19      -0.1225
      6  CA        22.2720   56.4560   45.3330 C.3    19  ASN19       0.1785
      7  C         23.7380   56.2660   44.9520 C.2    19  ASN19       0.2597
      8  O         24.5560   57.1440   45.2470 O.2    19  ASN19      -0.2718
      9  CB        22.1110   56.4370   46.8590 C.3    19  ASN19       0.1169
     10  CG        22.3960   55.0760   47.4630 C.2    19  ASN19       0.2627
     11  OD1       21.8690   54.0530   47.0150 O.2    19  ASN19      -0.2716
     12  ND2       23.2290   55.0590   48.4960 N.am   19  ASN19      -0.0877
     13  N         24.0980   55.1560   44.3150 N.am   20  ARG20      -0.1966
     14  CA        25.4800   54.9720   43.8910 C.3    20  ARG20       0.1729
     15  C         25.5100   54.0180   42.7050 C.2    20  ARG20       0.2617
     16  O         24.5120   53.3680   42.3840 O.2    20  ARG20      -0.2715
     17  CB        26.3650   54.4630   45.0380 C.3    20  ARG20       0.0348
     18  CG        26.0890   53.0340   45.4550 C.3    20  ARG20       0.0492
     19  CD        26.9800   52.5830   46.6230 C.3    20  ARG20       0.2205
     20  NE        26.4290   52.9510   47.9270 N.pl3  20  ARG20      -0.0865
     21  CZ        26.8790   53.9460   48.6880 C.cat  20  ARG20       0.5346
     22  NH1       27.9080   54.6820   48.2890 N.pl3  20  ARG20       0.1354
     23  NH2       26.3080   54.1950   49.8640 N.pl3  20  ARG20       0.1354
     24  N         26.6640   53.9810   42.0380 N.am   21  GLY21      -0.1940
     25  CA        26.9450   52.9700   41.0270 C.3    21  GLY21       0.2014
     26  C         25.9840   53.0030   39.8560 C.2    21  GLY21       0.2638
     27  O         25.6130   54.0670   39.3470 O.2    21  GLY21      -0.2714
     28  N         25.5750   51.8070   39.4170 N.am   22  ILE22      -0.1977
     29  CA        24.6890   51.6810   38.2600 C.3    22  ILE22       0.1596
     30  C         23.3650   52.3940   38.5050 C.2    22  ILE22       0.2287
     31  O         22.8420   53.0830   37.6230 O.2    22  ILE22      -0.2864
     32  CB        24.4770   50.1980   37.9040 C.3    22  ILE22       0.0276
     33  CG1       25.7800   49.5630   37.4200 C.3    22  ILE22       0.0022
     34  CG2       23.3880   50.0530   36.8520 C.3    22  ILE22       0.0022
     35  CD1       25.6760   48.0630   37.1940 C.3    22  ILE22       0.0001
     36  N         16.4310   55.9070   46.5480 N.3    40  THR40      -0.1203
     37  CA        16.5460   55.4410   47.9210 C.3    40  THR40       0.1994
     38  C         18.0080   55.4390   48.3690 C.2    40  THR40       0.2618
     39  O         18.9390   55.5260   47.5650 O.2    40  THR40      -0.2717
     40  CB        15.9800   54.0240   48.0770 C.3    40  THR40       0.1784
     41  OG1       16.8170   53.1070   47.3700 O.3    40  THR40      -0.2211
     42  CG2       14.5460   53.9300   47.5570 C.3    40  THR40       0.0376
     43  N         18.1910   55.3380   49.6850 N.am   41  HIS41      -0.1961
     44  CA        19.4920   55.1160   50.3060 C.3    41  HIS41       0.1787
     45  C         19.2390   54.5060   51.6790 C.2    41  HIS41       0.2620
     46  O         18.1370   54.6040   52.2210 O.2    41  HIS41      -0.2715
     47  CB        20.2760   56.4220   50.4490 C.3    41  HIS41       0.0785
     48  CG        19.6130   57.4140   51.3480 C.ar   41  HIS41       0.0821
     49  ND1       19.8180   57.4360   52.7100 N.ar   41  HIS41      -0.2267
     50  CD2       18.7130   58.3890   51.0850 C.ar   41  HIS41       0.1154
     51  CE1       19.0900   58.3990   53.2460 C.ar   41  HIS41       0.1986
     52  NE2       18.4110   58.9940   52.2810 N.ar   41  HIS41      -0.2212
     53  N         20.2700   53.8740   52.2460 N.am   42  ARG42      -0.1977
     54  CA        20.1490   53.2390   53.5540 C.3    42  ARG42       0.1597
     55  C         20.7900   54.0550   54.6660 C.2    42  ARG42       0.2287
     56  O         21.2290   53.4930   55.6760 O.2    42  ARG42      -0.2864
     57  CB        20.6860   51.8090   53.5480 C.3    42  ARG42       0.0334
     58  CG        19.7260   50.8000   52.9290 C.3    42  ARG42       0.0492
     59  CD        20.2540   49.3920   53.1250 C.3    42  ARG42       0.2205
     60  NE        21.5110   49.1950   52.4140 N.pl3  42  ARG42      -0.0865
     61  CZ        22.2080   48.0640   52.4370 C.cat  42  ARG42       0.5346
     62  NH1       21.7660   47.0360   53.1450 N.pl3  42  ARG42       0.1354
     63  NH2       23.3420   47.9650   51.7590 N.pl3  42  ARG42       0.1354
     64  N         23.2290   56.7450   54.0580 N.3    44  SER44      -0.1217
     65  CA        24.3550   57.5670   53.6370 C.3    44  SER44       0.1889
     66  C         23.9170   58.7490   52.7880 C.2    44  SER44       0.2288
     67  O         24.7430   59.6210   52.4910 O.2    44  SER44      -0.2866
     68  CB        25.4140   56.7260   52.9140 C.3    44  SER44       0.2089
     69  OG        24.9050   56.2020   51.7050 O.3    44  SER44      -0.2183
     70  N         15.4100   54.2300   52.7390 N.3    55  CYS55      -0.1221
     71  CA        14.5460   53.0690   52.5760 C.3    55  CYS55       0.1808
     72  C         15.3910   51.8120   52.4600 C.2    55  CYS55       0.2601
     73  O         16.1750   51.6750   51.5120 O.2    55  CYS55      -0.2717
     74  CB        13.6670   53.2460   51.3340 C.3    55  CYS55       0.0970
     75  SG        12.5680   51.8460   51.0090 S.3    55  CYS55      -0.0800
     76  N         15.2170   50.8930   53.4060 N.am   56  ASP56      -0.1959
     77  CA        15.7590   49.5470   53.2970 C.3    56  ASP56       0.1840
     78  C         14.6780   48.6550   52.6970 C.2    56  ASP56       0.2622
     79  O         13.6140   48.4710   53.3030 O.2    56  ASP56      -0.2715
     80  CB        16.1510   49.0510   54.6880 C.3    56  ASP56       0.1450
     81  CG        16.9480   47.7670   54.6430 C.2    56  ASP56       0.3671
     82  OD1       16.5880   46.8710   53.8550 O.co2  56  ASP56      -0.2456
     83  OD2       17.9460   47.6620   55.3840 O.co2  56  ASP56      -0.2456
     84  N         14.9500   48.0880   51.5170 N.am   57  VAL57      -0.1963
     85  CA        13.9280   47.3240   50.8020 C.3    57  VAL57       0.1727
     86  C         13.6290   45.9670   51.4360 C.2    57  VAL57       0.2616
     87  O         12.7530   45.2420   50.9520 O.2    57  VAL57      -0.2715
     88  CB        14.2100   47.1990   49.2870 C.3    57  VAL57       0.0290
     89  CG1       14.3540   48.5730   48.6300 C.3    57  VAL57       0.0023
     90  CG2       15.4340   46.3080   49.0060 C.3    57  VAL57       0.0023
     91  N         14.3440   45.5990   52.5040 N.am   58  THR58      -0.1951
     92  CA        13.9480   44.4290   53.2840 C.3    58  THR58       0.1897
     93  C         12.8500   44.7430   54.2890 C.2    58  THR58       0.2313
     94  O         12.3630   43.8280   54.9650 O.2    58  THR58      -0.2863
     95  CB        15.1470   43.7710   53.9930 C.3    58  THR58       0.1794
     96  OG1       15.6920   44.6490   54.9950 O.3    58  THR58      -0.2208
     97  CG2       16.2250   43.3770   52.9850 C.3    58  THR58       0.0378
     98  N         16.6100   48.6840   41.4770 N.3    83  ASN83      -0.1225
     99  CA        18.0250   48.3720   41.3350 C.3    83  ASN83       0.1785
    100  C         18.6870   47.9380   42.6350 C.2    83  ASN83       0.2597
    101  O         19.8040   47.4110   42.5880 O.2    83  ASN83      -0.2718
    102  CB        18.7970   49.5610   40.7320 C.3    83  ASN83       0.1169
    103  CG        20.2400   49.2190   40.4160 C.2    83  ASN83       0.2627
    104  OD1       20.5170   48.3840   39.5510 O.2    83  ASN83      -0.2716
    105  ND2       21.1680   49.8500   41.1260 N.am   83  ASN83      -0.0877
    106  N         18.0300   48.1210   43.7850 N.am   84  ALA84      -0.1966
    107  CA        18.6330   47.7170   45.0510 C.3    84  ALA84       0.1728
    108  C         18.9530   46.2320   45.0100 C.2    84  ALA84       0.2617
    109  O         18.1040   45.4060   44.6580 O.2    84  ALA84      -0.2715
    110  CB        17.6820   48.0140   46.2100 C.3    84  ALA84       0.0334
    111  N         20.1920   45.8970   45.3340 N.am   85  GLY85      -0.1940
    112  CA        20.6140   44.5130   45.2750 C.3    85  GLY85       0.2014
    113  C         21.9860   44.3440   45.8810 C.2    85  GLY85       0.2638
    114  O         22.7800   45.2880   45.9600 O.2    85  GLY85      -0.2714
    115  N         22.2550   43.1150   46.3090 N.am   86  ILE86      -0.1977
    116  CA        23.5430   42.7320   46.8610 C.3    86  ILE86       0.1596
    117  C         23.9490   41.4120   46.2240 C.2    86  ILE86       0.2287
    118  O         23.1310   40.7040   45.6360 O.2    86  ILE86      -0.2864
    119  CB        23.4890   42.5710   48.3920 C.3    86  ILE86       0.0276
    120  CG1       22.3810   41.5830   48.7780 C.3    86  ILE86       0.0022
    121  CG2       23.2860   43.9140   49.0610 C.3    86  ILE86       0.0022
    122  CD1       22.3990   41.1640   50.2470 C.3    86  ILE86       0.0001
    123  N         16.7440   40.8620   49.7510 N.3   106  THR106     -0.1218
    124  CA        16.9880   42.1640   49.1370 C.3   106  THR106      0.1862
    125  C         16.6130   42.1710   47.6590 C.2   106  THR106      0.2287
    126  O         15.8510   43.0350   47.2060 O.2   106  THR106     -0.2866
    127  CB        18.4590   42.5540   49.2980 C.3   106  THR106      0.1770
    128  OG1       18.7620   42.7260   50.6910 O.3   106  THR106     -0.2211
    129  CG2       18.7350   43.8750   48.5500 C.3   106  THR106      0.0375
    130  N         31.1650   50.0060   36.4140 N.3   183  THR183     -0.1203
    131  CA        31.0270   50.5610   37.7580 C.3   183  THR183      0.1994
    132  C         30.9200   49.4820   38.8290 C.2   183  THR183      0.2617
    133  O         31.1460   49.7720   40.0090 O.2   183  THR183     -0.2717
    134  CB        29.8170   51.4970   37.8360 C.3   183  THR183      0.1784
    135  OG1       28.6640   50.8380   37.2970 O.3   183  THR183     -0.2211
    136  CG2       30.0790   52.7860   37.0650 C.3   183  THR183      0.0376
    137  N         30.5930   48.2490   38.4480 N.am  184  GLU184     -0.1979
    138  CA        30.4100   47.1600   39.3960 C.3   184  GLU184      0.1602
    139  C         31.5850   46.1890   39.4320 C.2   184  GLU184      0.2287
    140  O         31.5210   45.1890   40.1540 O.2   184  GLU184     -0.2864
    141  CB        29.1110   46.4030   39.0880 C.3   184  GLU184      0.0415
    142  CG        28.3110   46.0300   40.3270 C.3   184  GLU184      0.1163
    143  CD        27.0370   45.2810   39.9970 C.2   184  GLU184      0.3649
    144  OE1       26.7380   45.1060   38.7970 O.co2 184  GLU184     -0.2457
    145  OE2       26.3360   44.8630   40.9410 O.co2 184  GLU184     -0.2457
@<TRIPOS>BOND
     1   130   131    1
     2    34    32    1
     3   136   134    1
     4    35    33    1
     5   135   134    1
     6    33    32    1
     7    31    30    2
     8   131   134    1
     9   131   132    1
    10    32    29    1
    11    29    30    1
    12    29    28    1
    13   137   132   am
    14   137   138    1
    15   144   143   ar
    16   132   133    2
    17   141   138    1
    18   141   142    1
    19    27    26    2
    20   138   139    1
    21    28    26   am
    22   139   140    2
    23   104   103    2
    24    26    25    1
    25   143   142    1
    26   143   145   ar
    27   103   102    1
    28   103   105   am
    29   102    99    1
    30    25    24    1
    31    99    98    1
    32    99   100    1
    33    24    15   am
    34    16    15    2
    35   101   100    2
    36   100   106   am
    37    15    14    1
    38     4     3    2
    39   106   107    1
    40    14    13    1
    41    14    17    1
    42     3     2    1
    43    13     7   am
    44   109   108    2
    45     5     6    1
    46     2     1    1
    47     7     8    2
    48     7     6    1
    49   108   107    1
    50   108   111   am
    51    17    18    1
    52   107   110    1
    53   112   111    1
    54   112   113    1
    55     6     9    1
    56    18    19    1
    57   118   117    2
    58   113   114    2
    59   113   115   am
    60   117   116    1
    61   115   116    1
    62    36    37    1
    63    19    20    1
    64     9    10    1
    65   116   119    1
    66    11    10    2
    67   126   125    2
    68    41    40    1
    69    10    12   am
    70    42    40    1
    71    39    38    2
    72   125   124    1
    73    37    40    1
    74    37    38    1
    75    20    21    2
    76    22    21    1
    77    38    43   am
    78   119   120    1
    79   119   121    1
    80   129   127    1
    81    89    88    1
    82    21    23    1
    83   120   122    1
    84    90    88    1
    85   124   127    1
    86   124   123    1
    87    88    85    1
    88   127   128    1
    89    43    44    1
    90    44    47    1
    91    44    45    1
    92    47    48    1
    93    85    86    1
    94    85    84    1
    95    87    86    2
    96    75    74    1
    97    50    48   ar
    98    50    52   ar
    99    74    71    1
   100    48    49   ar
   101    86    91   am
   102    73    72    2
   103    84    78   am
   104    45    46    2
   105    45    53   am
   106    69    68    1
   107    63    61    1
   108    53    54    1
   109    52    51   ar
   110    60    61    2
   111    60    59    1
   112    61    62    1
   113    72    71    1
   114    72    76   am
   115    67    66    2
   116    91    92    1
   117    71    70    1
   118    78    77    1
   119    78    79    2
   120    49    51   ar
   121    66    65    1
   122    68    65    1
   123    58    59    1
   124    58    57    1
   125    97    95    1
   126    92    95    1
   127    92    93    1
   128    77    76    1
   129    77    80    1
   130    57    54    1
   131    54    55    1
   132    65    64    1
   133    82    81   ar
   134    95    96    1
   135    93    94    2
   136    81    80    1
   137    81    83   ar
   138    55    56    2
