@<TRIPOS>MOLECULE
tmp/5ovlB00.pdb
 206 198 0 0 0
SMALL
GASTEIGER

@<TRIPOS>ATOM
      1  N        -21.0450  -27.0890   -9.3650 N.3    17  GLY17      -0.1225
      2  CA       -22.4710  -27.0090   -9.6340 C.3    17  GLY17       0.1811
      3  C        -22.9400  -27.9710  -10.7040 C.2    17  GLY17       0.2280
      4  O        -23.8200  -27.6240  -11.5020 O.2    17  GLY17      -0.2866
      5  N        -24.6050  -30.7550  -10.3440 N.3    19  ASN19      -0.1225
      6  CA       -25.6590  -31.6350   -9.8600 C.3    19  ASN19       0.1785
      7  C        -26.9860  -31.4300  -10.5780 C.2    19  ASN19       0.2597
      8  O        -27.8620  -32.2980  -10.4880 O.2    19  ASN19      -0.2718
      9  CB       -25.8460  -31.4660   -8.3470 C.3    19  ASN19       0.1169
     10  CG       -26.1920  -30.0440   -7.9570 C.2    19  ASN19       0.2627
     11  OD1      -25.3290  -29.1660   -7.9310 O.2    19  ASN19      -0.2716
     12  ND2      -27.4600  -29.8090   -7.6420 N.am   19  ASN19      -0.0877
     13  N        -27.1490  -30.3190  -11.2920 N.am   20  ARG20      -0.1966
     14  CA       -28.3710  -30.0370  -12.0360 C.3    20  ARG20       0.1729
     15  C        -28.0950  -28.8950  -13.0050 C.2    20  ARG20       0.2617
     16  O        -27.0730  -28.2100  -12.9140 O.2    20  ARG20      -0.2715
     17  CB       -29.5320  -29.6850  -11.1010 C.3    20  ARG20       0.0348
     18  CG       -29.2940  -28.4490  -10.2510 C.3    20  ARG20       0.0492
     19  CD       -30.4520  -28.2160   -9.2910 C.3    20  ARG20       0.2205
     20  NE       -30.2250  -27.0710   -8.4140 N.pl3  20  ARG20      -0.0865
     21  CZ       -30.6730  -25.8430   -8.6550 C.cat  20  ARG20       0.5346
     22  NH1      -31.3780  -25.5940   -9.7500 N.pl3  20  ARG20       0.1354
     23  NH2      -30.4180  -24.8620   -7.7980 N.pl3  20  ARG20       0.1354
     24  N        -29.0230  -28.7040  -13.9400 N.am   21  GLY21      -0.1940
     25  CA       -28.9320  -27.5720  -14.8490 C.3    21  GLY21       0.2014
     26  C        -27.8490  -27.7560  -15.8960 C.2    21  GLY21       0.2638
     27  O        -27.6030  -28.8620  -16.3930 O.2    21  GLY21      -0.2714
     28  N        -27.1920  -26.6470  -16.2390 N.am   22  ILE22      -0.1977
     29  CA       -26.1620  -26.6710  -17.2730 C.3    22  ILE22       0.1596
     30  C        -24.9460  -27.4630  -16.8090 C.2    22  ILE22       0.2287
     31  O        -24.3260  -28.1890  -17.5950 O.2    22  ILE22      -0.2864
     32  CB       -25.7980  -25.2360  -17.6990 C.3    22  ILE22       0.0276
     33  CG1      -27.0330  -24.5090  -18.2340 C.3    22  ILE22       0.0022
     34  CG2      -24.6930  -25.2460  -18.7430 C.3    22  ILE22       0.0022
     35  CD1      -26.7670  -23.0750  -18.6460 C.3    22  ILE22       0.0001
     36  N        -19.4690  -31.2200   -8.0280 N.3    40  THR40      -0.1203
     37  CA       -19.7050  -30.7190   -6.6850 C.3    40  THR40       0.1994
     38  C        -21.2020  -30.5700   -6.4420 C.2    40  THR40       0.2618
     39  O        -21.9800  -30.3200   -7.3670 O.2    40  THR40      -0.2717
     40  CB       -19.0140  -29.3690   -6.4680 C.3    40  THR40       0.1784
     41  OG1      -19.6800  -28.3570   -7.2340 O.3    40  THR40      -0.2211
     42  CG2      -17.5550  -29.4400   -6.8890 C.3    40  THR40       0.0376
     43  N        -21.5980  -30.7340   -5.1820 N.am   41  HIS41      -0.1961
     44  CA       -22.9830  -30.5580   -4.7690 C.3    41  HIS41       0.1787
     45  C        -22.9910  -29.9810   -3.3590 C.2    41  HIS41       0.2620
     46  O        -21.9390  -29.7830   -2.7430 O.2    41  HIS41      -0.2715
     47  CB       -23.7630  -31.8740   -4.8650 C.3    41  HIS41       0.0785
     48  CG       -23.2440  -32.9510   -3.9650 C.ar   41  HIS41       0.0821
     49  ND1      -23.5890  -33.0390   -2.6340 N.ar   41  HIS41      -0.2267
     50  CD2      -22.3980  -33.9810   -4.2030 C.ar   41  HIS41       0.1154
     51  CE1      -22.9820  -34.0790   -2.0910 C.ar   41  HIS41       0.1986
     52  NE2      -22.2530  -34.6680   -3.0220 N.ar   41  HIS41      -0.2212
     53  N        -24.1900  -29.7130   -2.8450 N.am   42  ARG42      -0.1977
     54  CA       -24.3680  -29.1120   -1.5250 C.3    42  ARG42       0.1597
     55  C        -25.3800  -29.9000   -0.7010 C.2    42  ARG42       0.2287
     56  O        -26.3050  -29.3460   -0.1030 O.2    42  ARG42      -0.2864
     57  CB       -24.7380  -27.6320   -1.6180 C.3    42  ARG42       0.0334
     58  CG       -23.6410  -26.7560   -2.2050 C.3    42  ARG42       0.0492
     59  CD       -23.9840  -25.2770   -2.1050 C.3    42  ARG42       0.2205
     60  NE       -25.2070  -24.9420   -2.8270 N.pl3  42  ARG42      -0.0865
     61  CZ       -25.7310  -23.7220   -2.8780 C.cat  42  ARG42       0.5346
     62  NH1      -25.1360  -22.7180   -2.2480 N.pl3  42  ARG42       0.1354
     63  NH2      -26.8480  -23.5040   -3.5580 N.pl3  42  ARG42       0.1354
     64  N        -27.6140  -32.2530   -1.6740 N.3    44  SER44      -0.1217
     65  CA       -28.6860  -32.9080   -2.4150 C.3    44  SER44       0.1889
     66  C        -28.2540  -34.2550   -2.9720 C.2    44  SER44       0.2288
     67  O        -29.1100  -35.0910   -3.2830 O.2    44  SER44      -0.2866
     68  CB       -29.1700  -32.0110   -3.5560 C.3    44  SER44       0.2089
     69  OG       -28.1400  -31.7930   -4.5060 O.3    44  SER44      -0.2183
     70  N        -19.2160  -29.3750   -1.8100 N.3    55  CYS55      -0.1221
     71  CA       -18.4010  -28.1640   -1.8430 C.3    55  CYS55       0.1808
     72  C        -19.2940  -26.9660   -2.1100 C.2    55  CYS55       0.2601
     73  O        -20.0200  -26.9440   -3.1090 O.2    55  CYS55      -0.2717
     74  CB       -17.3340  -28.2750   -2.9270 C.3    55  CYS55       0.0970
     75  SG       -16.3220  -26.7960   -3.1110 S.3    55  CYS55      -0.0800
     76  N        -19.2370  -25.9750   -1.2270 N.am   56  ASP56      -0.1959
     77  CA       -19.8520  -24.6750   -1.4530 C.3    56  ASP56       0.1840
     78  C        -18.7410  -23.7120   -1.8510 C.2    56  ASP56       0.2622
     79  O        -17.7950  -23.5020   -1.0840 O.2    56  ASP56      -0.2715
     80  CB       -20.5560  -24.1920   -0.1850 C.3    56  ASP56       0.1450
     81  CG       -21.4790  -23.0130   -0.4380 C.2    56  ASP56       0.3671
     82  OD1      -21.0520  -22.0380   -1.0910 O.co2  56  ASP56      -0.2456
     83  OD2      -22.6420  -23.0660    0.0160 O.co2  56  ASP56      -0.2456
     84  N        -18.8570  -23.1250   -3.0410 N.am   57  VAL57      -0.1963
     85  CA       -17.7690  -22.3450   -3.6270 C.3    57  VAL57       0.1727
     86  C        -17.5300  -21.0370   -2.8800 C.2    57  VAL57       0.2616
     87  O        -16.6040  -20.2880   -3.2080 O.2    57  VAL57      -0.2715
     88  CB       -17.9760  -22.1130   -5.1370 C.3    57  VAL57       0.0290
     89  CG1      -17.9870  -23.4400   -5.8790 C.3    57  VAL57       0.0023
     90  CG2      -19.2580  -21.3340   -5.3930 C.3    57  VAL57       0.0023
     91  N        -18.3560  -20.7500   -1.8760 N.am   58  THR58      -0.1951
     92  CA       -18.1360  -19.5970   -1.0130 C.3    58  THR58       0.1897
     93  C        -17.2350  -19.9120    0.1750 C.2    58  THR58       0.2313
     94  O        -16.9130  -19.0040    0.9480 O.2    58  THR58      -0.2863
     95  CB       -19.4710  -19.0250   -0.5170 C.3    58  THR58       0.1794
     96  OG1      -20.1130  -19.9740    0.3440 O.3    58  THR58      -0.2208
     97  CG2      -20.3880  -18.7080   -1.6910 C.3    58  THR58       0.0378
     98  N        -18.7240  -23.6230  -13.0850 N.3    83  ASN83      -0.1225
     99  CA       -20.0890  -23.4540  -13.5670 C.3    83  ASN83       0.1785
    100  C        -21.0440  -22.9200  -12.5090 C.2    83  ASN83       0.2597
    101  O        -22.0480  -22.2930  -12.8640 O.2    83  ASN83      -0.2718
    102  CB       -20.6200  -24.7870  -14.1130 C.3    83  ASN83       0.1169
    103  CG       -22.1110  -24.7580  -14.3850 C.2    83  ASN83       0.2627
    104  OD1      -22.5500  -24.3350  -15.4520 O.2    83  ASN83      -0.2716
    105  ND2      -22.8990  -25.2090  -13.4160 N.am   83  ASN83      -0.0877
    106  N        -20.7560  -23.1470  -11.2290 N.am   84  ALA84      -0.1966
    107  CA       -21.6530  -22.7080  -10.1680 C.3    84  ALA84       0.1728
    108  C        -21.8860  -21.2040  -10.2470 C.2    84  ALA84       0.2617
    109  O        -20.9570  -20.4230  -10.4690 O.2    84  ALA84      -0.2715
    110  CB       -21.0680  -23.0740   -8.8020 C.3    84  ALA84       0.0334
    111  N        -23.1450  -20.8040  -10.0780 N.am   85  GLY85      -0.1940
    112  CA       -23.5160  -19.4050  -10.1340 C.3    85  GLY85       0.2014
    113  C        -24.9820  -19.1710   -9.8300 C.2    85  GLY85       0.2638
    114  O        -25.8130  -20.0620  -10.0280 O.2    85  GLY85      -0.2714
    115  N        -25.3110  -17.9750   -9.3450 N.am   86  ILE86      -0.1977
    116  CA       -26.6750  -17.6070   -8.9940 C.3    86  ILE86       0.1596
    117  C        -26.9910  -16.2520   -9.6160 C.2    86  ILE86       0.2287
    118  O        -26.1080  -15.5390  -10.0930 O.2    86  ILE86      -0.2864
    119  CB       -26.9030  -17.5650   -7.4680 C.3    86  ILE86       0.0276
    120  CG1      -25.9660  -16.5430   -6.8210 C.3    86  ILE86       0.0022
    121  CG2      -26.7080  -18.9430   -6.8540 C.3    86  ILE86       0.0022
    122  CD1      -26.1710  -16.3850   -5.3350 C.3    86  ILE86       0.0001
    123  N        -20.3540  -15.7740   -5.0520 N.3   106  THR106     -0.1218
    124  CA       -20.5480  -17.0900   -5.6480 C.3   106  THR106      0.1862
    125  C        -20.0610  -17.1450   -7.0940 C.2   106  THR106      0.2287
    126  O        -19.2860  -18.0370   -7.4560 O.2   106  THR106     -0.2866
    127  CB       -22.0250  -17.4920   -5.5650 C.3   106  THR106      0.1770
    128  OG1      -22.4300  -17.5540   -4.1910 O.3   106  THR106     -0.2211
    129  CG2      -22.2480  -18.8500   -6.2130 C.3   106  THR106      0.0375
    130  N        -17.7760  -20.3330  -16.7430 N.3   133  ILE133     -0.1231
    131  CA       -19.0840  -20.2150  -17.3760 C.3   133  ILE133      0.1692
    132  C        -19.5740  -18.7940  -17.1240 C.2   133  ILE133      0.2593
    133  O        -20.0760  -18.4760  -16.0420 O.2   133  ILE133     -0.2718
    134  CB       -20.0720  -21.2650  -16.8630 C.3   133  ILE133      0.0266
    135  CG1      -19.5560  -22.6740  -17.1640 C.3   133  ILE133      0.0019
    136  CG2      -21.4390  -21.0530  -17.4950 C.3   133  ILE133      0.0020
    137  CD1      -19.3070  -22.9300  -18.6370 C.3   133  ILE133      0.0001
    138  N        -19.4220  -17.9310  -18.1240 N.am  134  GLY134     -0.1942
    139  CA       -19.8720  -16.5600  -18.0080 C.3   134  GLY134      0.2014
    140  C        -21.3130  -16.3830  -18.4340 C.2   134  GLY134      0.2639
    141  O        -22.1680  -17.2160  -18.1180 O.2   134  GLY134     -0.2714
    142  N        -21.5920  -15.3020  -19.1560 N.am  135  SER135     -0.1949
    143  CA       -22.9350  -15.0190  -19.6440 C.3   135  SER135      0.1924
    144  C        -22.8460  -13.9020  -20.6690 C.2   135  SER135      0.2314
    145  O        -21.9060  -13.1010  -20.6620 O.2   135  SER135     -0.2863
    146  CB       -23.8760  -14.6090  -18.5060 C.3   135  SER135      0.2116
    147  OG       -25.1070  -14.1240  -19.0170 O.3   135  SER135     -0.2180
    148  N        -25.0370   -9.3730  -11.3710 N.3   148  TYR148     -0.1241
    149  CA       -24.7790  -10.5320  -12.2200 C.3   148  TYR148      0.1605
    150  C        -23.8720  -10.1750  -13.3920 C.2   148  TYR148      0.2264
    151  O        -22.9620  -10.9400  -13.7340 O.2   148  TYR148     -0.2867
    152  CB       -26.1060  -11.1070  -12.7160 C.3   148  TYR148      0.0534
    153  CG       -25.9980  -12.4040  -13.4870 C.ar  148  TYR148     -0.0201
    154  CD1      -25.9580  -13.6250  -12.8270 C.ar  148  TYR148     -0.0009
    155  CD2      -25.9570  -12.4100  -14.8760 C.ar  148  TYR148     -0.0009
    156  CE1      -25.8700  -14.8140  -13.5260 C.ar  148  TYR148      0.0417
    157  CE2      -25.8690  -13.5940  -15.5840 C.ar  148  TYR148      0.0417
    158  CZ       -25.8280  -14.7940  -14.9040 C.ar  148  TYR148      0.1957
    159  OH       -25.7400  -15.9780  -15.6030 O.3   148  TYR148     -0.2866
    160  N        -20.1500  -11.6720  -14.1480 N.3   152  LYS152     -0.1245
    161  CA       -19.8690  -12.3640  -15.4010 C.3   152  LYS152      0.1561
    162  C        -18.8410  -11.6190  -16.2420 C.2   152  LYS152      0.2260
    163  O        -18.1000  -12.2450  -17.0080 O.2   152  LYS152     -0.2867
    164  CB       -21.1610  -12.5900  -16.1870 C.3   152  LYS152      0.0271
    165  CG       -22.1580  -13.4940  -15.4740 C.3   152  LYS152      0.0035
    166  CD       -21.5340  -14.8360  -15.1220 C.3   152  LYS152      0.0206
    167  CE       -22.5490  -15.7790  -14.4980 C.3   152  LYS152      0.1093
    168  NZ       -21.9850  -17.1400  -14.2630 N.3   152  LYS152     -0.1314
    169  N        -22.8500  -18.1520  -22.3500 N.3   178  PRO178     -0.2102
    170  CA       -24.1190  -18.5450  -22.9650 C.3   178  PRO178      0.1504
    171  C        -25.1420  -17.4220  -22.9220 C.2   178  PRO178      0.2576
    172  O        -25.1290  -16.5610  -22.0380 O.2   178  PRO178     -0.2718
    173  CB       -24.5870  -19.7170  -22.0880 C.3   178  PRO178      0.0282
    174  CG       -23.3980  -20.0980  -21.2440 C.3   178  PRO178      0.0208
    175  CD       -22.6290  -18.8360  -21.0680 C.3   178  PRO178      0.0893
    176  N        -26.0400  -17.4440  -23.9040 N.am  179  GLY179     -0.1943
    177  CA       -27.2270  -16.6110  -23.8810 C.3   179  GLY179      0.2014
    178  C        -28.3150  -17.2600  -23.0540 C.2   179  GLY179      0.2639
    179  O        -28.0460  -17.9710  -22.0800 O.2   179  GLY179     -0.2714
    180  N        -29.5640  -17.0250  -23.4450 N.am  180  TYR180     -0.1959
    181  CA       -30.6830  -17.6700  -22.7710 C.3   180  TYR180      0.1771
    182  C        -30.7060  -19.1530  -23.1250 C.2   180  TYR180      0.2619
    183  O        -30.8330  -19.5180  -24.2990 O.2   180  TYR180     -0.2715
    184  CB       -31.9950  -16.9990  -23.1680 C.3   180  TYR180      0.0574
    185  CG       -32.1710  -15.6160  -22.5800 C.ar  180  TYR180     -0.0198
    186  CD1      -32.7140  -15.4440  -21.3130 C.ar  180  TYR180     -0.0009
    187  CD2      -31.7940  -14.4850  -23.2890 C.ar  180  TYR180     -0.0009
    188  CE1      -32.8750  -14.1840  -20.7700 C.ar  180  TYR180      0.0417
    189  CE2      -31.9520  -13.2200  -22.7540 C.ar  180  TYR180      0.0417
    190  CZ       -32.4940  -13.0750  -21.4950 C.ar  180  TYR180      0.1957
    191  OH       -32.6530  -11.8180  -20.9600 O.3   180  TYR180     -0.2866
    192  N        -30.5650  -20.0070  -22.1130 N.am  181  ILE181     -0.1977
    193  CA       -30.5640  -21.4560  -22.2820 C.3   181  ILE181      0.1596
    194  C        -31.7450  -22.0280  -21.5110 C.2   181  ILE181      0.2287
    195  O        -31.9860  -21.6460  -20.3600 O.2   181  ILE181     -0.2864
    196  CB       -29.2310  -22.0870  -21.8280 C.3   181  ILE181      0.0276
    197  CG1      -28.2440  -22.1750  -22.9970 C.3   181  ILE181      0.0022
    198  CG2      -29.4480  -23.4800  -21.2610 C.3   181  ILE181      0.0022
    199  CD1      -27.7300  -20.8510  -23.4940 C.3   181  ILE181      0.0001
    200  N        -33.2160  -24.3060  -19.3050 N.3   183  THR183     -0.1218
    201  CA       -32.9370  -25.2950  -18.2660 C.3   183  THR183      0.1862
    202  C        -33.8090  -25.0540  -17.0390 C.2   183  THR183      0.2287
    203  O        -33.3290  -24.5720  -16.0120 O.2   183  THR183     -0.2866
    204  CB       -31.4560  -25.2830  -17.8320 C.3   183  THR183      0.1770
    205  OG1      -31.0090  -23.9310  -17.6690 O.3   183  THR183     -0.2211
    206  CG2      -30.5850  -25.9920  -18.8550 C.3   183  THR183      0.0375
@<TRIPOS>BOND
     1   183   182    2
     2   176   177    1
     3   176   171   am
     4   177   178    1
     5   199   197    1
     6   180   178   am
     7   180   181    1
     8   187   189   ar
     9   187   185   ar
    10   184   181    1
    11   184   185    1
    12   182   181    1
    13   182   192   am
    14   178   179    2
    15   197   196    1
    16   170   171    1
    17   170   169    1
    18   170   173    1
    19   171   172    2
    20   189   190   ar
    21   185   186   ar
    22   169   175    1
    23   193   192    1
    24   193   196    1
    25   193   194    1
    26   173   174    1
    27   196   198    1
    28   194   195    2
    29   190   191    1
    30   190   188   ar
    31   186   188   ar
    32   174   175    1
    33   144   145    2
    34   144   143    1
    35   143   142    1
    36   143   146    1
    37   200   201    1
    38   142   140   am
    39   147   146    1
    40   206   204    1
    41    34    32    1
    42    35    33    1
    43   137   135    1
    44   140   141    2
    45   140   139    1
    46   201   204    1
    47   201   202    1
    48    33    32    1
    49   138   139    1
    50   138   132   am
    51   204   205    1
    52    32    29    1
    53    31    30    2
    54   136   134    1
    55   131   132    1
    56   131   134    1
    57   131   130    1
    58    29    30    1
    59    29    28    1
    60   135   134    1
    61   132   133    2
    62   202   203    2
    63   163   162    2
    64    27    26    2
    65   162   161    1
    66    28    26   am
    67   164   165    1
    68   164   161    1
    69    26    25    1
    70   159   158    1
    71   157   158   ar
    72   157   155   ar
    73   165   166    1
    74   104   103    2
    75   161   160    1
    76   166   167    1
    77   158   156   ar
    78   155   153   ar
    79    25    24    1
    80   167   168    1
    81   103   102    1
    82   103   105   am
    83   102    99    1
    84    24    15   am
    85   151   150    2
    86    99    98    1
    87    99   100    1
    88   156   154   ar
    89   153   154   ar
    90   153   152    1
    91   150   149    1
    92    15    16    2
    93    15    14    1
    94   101   100    2
    95   152   149    1
    96   100   106   am
    97   149   148    1
    98    14    13    1
    99    14    17    1
   100     4     3    2
   101    13     7   am
   102   106   107    1
   103    17    18    1
   104     3     2    1
   105     7     8    2
   106     7     6    1
   107   109   108    2
   108     5     6    1
   109    18    19    1
   110   108   107    1
   111   108   111   am
   112   107   110    1
   113   112   111    1
   114   112   113    1
   115   118   117    2
   116   114   113    2
   117     6     9    1
   118   113   115   am
   119    22    21    1
   120     2     1    1
   121   117   116    1
   122   115   116    1
   123    19    20    1
   124   116   119    1
   125    21    20    2
   126    21    23    1
   127     9    10    1
   128    36    37    1
   129    10    11    2
   130    10    12   am
   131   119   121    1
   132   119   120    1
   133   126   125    2
   134    39    38    2
   135    41    40    1
   136   125   124    1
   137    42    40    1
   138   120   122    1
   139    37    40    1
   140    37    38    1
   141    38    43   am
   142   129   127    1
   143    89    88    1
   144   124   127    1
   145   124   123    1
   146   127   128    1
   147    90    88    1
   148    43    44    1
   149    88    85    1
   150    47    44    1
   151    47    48    1
   152    44    45    1
   153    69    68    1
   154    50    48   ar
   155    50    52   ar
   156    48    49   ar
   157    85    84    1
   158    85    86    1
   159    63    61    1
   160    68    65    1
   161    45    53   am
   162    45    46    2
   163    67    66    2
   164    87    86    2
   165    75    74    1
   166    73    72    2
   167    84    78   am
   168    52    51   ar
   169    66    65    1
   170    74    71    1
   171    86    91   am
   172    61    60    2
   173    61    62    1
   174    53    54    1
   175    60    59    1
   176    49    51   ar
   177    65    64    1
   178    58    59    1
   179    58    57    1
   180    72    71    1
   181    72    76   am
   182    91    92    1
   183    78    77    1
   184    78    79    2
   185    71    70    1
   186    97    95    1
   187    57    54    1
   188    54    55    1
   189    77    76    1
   190    77    80    1
   191    82    81   ar
   192    92    95    1
   193    92    93    1
   194    55    56    2
   195    95    96    1
   196    81    80    1
   197    81    83   ar
   198    93    94    2
