@<TRIPOS>MOLECULE
tmp/5ovtD00.pdb
 138 132 0 0 0
SMALL
GASTEIGER

@<TRIPOS>ATOM
      1  N        -43.5000   93.2030   54.3010 N.3     1  THR1       -0.1218
      2  CA       -43.3710   92.7300   55.7250 C.3     1  THR1        0.1862
      3  C        -42.9540   93.9090   56.5350 C.2     1  THR1        0.2287
      4  O        -42.2140   94.7780   56.0690 O.2     1  THR1       -0.2866
      5  CB       -42.2950   91.6570   55.8850 C.3     1  THR1        0.1770
      6  OG1      -42.6400   90.5100   55.1110 O.3     1  THR1       -0.2211
      7  CG2      -42.1400   91.2300   57.3160 C.3     1  THR1        0.0375
      8  N        -49.0760   89.2060   56.7860 N.3    19  LEU19      -0.1231
      9  CA       -49.5280   89.1590   55.4090 C.3    19  LEU19       0.1693
     10  C        -48.4500   88.5890   54.5140 C.2    19  LEU19       0.2593
     11  O        -47.3080   88.9880   54.5860 O.2    19  LEU19      -0.2718
     12  CB       -49.9090   90.5430   54.9230 C.3    19  LEU19       0.0284
     13  CG       -50.3240   90.7140   53.4580 C.3    19  LEU19       0.0019
     14  CD1      -51.5820   89.9590   53.0800 C.3    19  LEU19       0.0001
     15  CD2      -50.5420   92.1870   53.1910 C.3    19  LEU19       0.0001
     16  N        -48.8460   87.6620   53.6530 N.am   20  THR20      -0.1939
     17  CA       -47.9490   87.1320   52.6450 C.3    20  THR20       0.2028
     18  C        -48.3440   87.6720   51.2740 C.2    20  THR20       0.2642
     19  O        -49.4910   87.8090   50.9610 O.2    20  THR20      -0.2714
     20  CB       -48.0070   85.6100   52.5780 C.3    20  THR20       0.1808
     21  OG1      -47.7390   85.0640   53.8490 O.3    20  THR20      -0.2208
     22  CG2      -46.9550   85.1060   51.7140 C.3    20  THR20       0.0379
     23  N        -47.3620   87.9990   50.4510 N.am   21  LYS21      -0.1963
     24  CA       -47.6620   88.5530   49.1540 C.3    21  LYS21       0.1728
     25  C        -47.1590   87.5930   48.1040 C.2    21  LYS21       0.2616
     26  O        -46.1490   86.9340   48.2910 O.2    21  LYS21      -0.2715
     27  CB       -47.0300   89.9240   48.9970 C.3    21  LYS21       0.0311
     28  CG       -47.5750   91.0110   49.9200 C.3    21  LYS21       0.0038
     29  CD       -49.0120   91.3660   49.6240 C.3    21  LYS21       0.0206
     30  CE       -49.1650   91.9810   48.2360 C.3    21  LYS21       0.1093
     31  NZ       -48.3920   93.2420   48.1100 N.3    21  LYS21      -0.1314
     32  N        -47.8990   87.4970   47.0260 N.am   22  TRP22      -0.1960
     33  CA       -47.4310   86.8200   45.8490 C.3    22  TRP22       0.1771
     34  C        -47.7510   87.7630   44.6750 C.2    22  TRP22       0.2620
     35  O        -48.8380   87.7470   44.1450 O.2    22  TRP22      -0.2715
     36  CB       -48.1330   85.4570   45.6900 C.3    22  TRP22       0.0590
     37  CG       -47.7840   84.7060   44.3630 C.ar   22  TRP22       0.0006
     38  CD1      -47.3270   85.2520   43.1780 C.ar   22  TRP22       0.0946
     39  CD2      -47.8750   83.3000   44.1320 C.ar   22  TRP22       0.0152
     40  NE1      -47.1270   84.2730   42.2550 N.ar   22  TRP22      -0.2442
     41  CE2      -47.4530   83.0630   42.8050 C.ar   22  TRP22       0.0810
     42  CE3      -48.2630   82.2070   44.9220 C.ar   22  TRP22       0.0012
     43  CZ2      -47.4270   81.7690   42.2390 C.ar   22  TRP22       0.0191
     44  CZ3      -48.2090   80.9170   44.3590 C.ar   22  TRP22       0.0001
     45  CH2      -47.8250   80.7190   43.0270 C.ar   22  TRP22       0.0015
     46  N        -46.8120   88.6130   44.3140 N.am   23  GLY23      -0.1954
     47  CA       -47.0750   89.6540   43.3580 C.3    23  GLY23       0.1869
     48  C        -47.9120   90.6880   44.0340 C.2    23  GLY23       0.2309
     49  O        -47.6380   91.0860   45.1830 O.2    23  GLY23      -0.2863
     50  N        -52.1990   87.1040   50.5050 N.3    27  GLU27      -0.1245
     51  CA       -52.5060   85.8920   51.2100 C.3    27  GLU27       0.1567
     52  C        -52.5390   86.2350   52.6670 C.2    27  GLU27       0.2260
     53  O        -51.5000   86.1790   53.3600 O.2    27  GLU27      -0.2867
     54  CB       -51.4430   84.8390   50.9180 C.3    27  GLU27       0.0388
     55  CG       -51.5470   84.2050   49.5210 C.3    27  GLU27       0.1160
     56  CD       -50.2860   83.4670   49.0590 C.2    27  GLU27       0.3649
     57  OE1      -50.3600   82.2590   48.6980 O.co2  27  GLU27      -0.2457
     58  OE2      -49.1920   84.0690   49.0560 O.co2  27  GLU27      -0.2457
     59  N        -48.9270   81.5680   58.9580 N.3    35  HIS35      -0.1241
     60  CA       -48.6650   82.9230   58.6090 C.3    35  HIS35       0.1621
     61  C        -47.6700   83.6040   59.5420 C.2    35  HIS35       0.2264
     62  O        -47.3820   84.7660   59.3600 O.2    35  HIS35      -0.2867
     63  CB       -49.9620   83.6940   58.6060 C.3    35  HIS35       0.0745
     64  CG       -50.7620   83.5300   59.8580 C.ar   35  HIS35       0.0817
     65  ND1      -51.8920   82.7430   59.9140 N.ar   35  HIS35      -0.2268
     66  CD2      -50.6110   84.0520   61.0930 C.ar   35  HIS35       0.1154
     67  CE1      -52.3850   82.7620   61.1400 C.ar   35  HIS35       0.1986
     68  NE2      -51.6190   83.5430   61.8790 N.ar   35  HIS35      -0.2212
     69  N        -44.3750   84.9990   61.0930 N.3    37  LYS37      -0.1245
     70  CA       -43.0560   85.3570   60.5890 C.3    37  LYS37       0.1561
     71  C        -41.9680   85.3800   61.6570 C.2    37  LYS37       0.2260
     72  O        -40.8130   85.6790   61.3640 O.2    37  LYS37      -0.2867
     73  CB       -43.0790   86.7530   59.9680 C.3    37  LYS37       0.0271
     74  CG       -44.1970   86.9500   58.9880 C.3    37  LYS37       0.0035
     75  CD       -44.0960   88.2230   58.1980 C.3    37  LYS37       0.0206
     76  CE       -45.3480   88.3380   57.3270 C.3    37  LYS37       0.1093
     77  NZ       -45.3940   89.5180   56.4130 N.3    37  LYS37      -0.1314
     78  N        -38.4240   87.4580   60.6190 N.3    48  ILE48      -0.1231
     79  CA       -37.8240   87.3220   59.3140 C.3    48  ILE48       0.1692
     80  C        -38.4950   88.1720   58.2200 C.2    48  ILE48       0.2593
     81  O        -39.7160   88.2070   58.1230 O.2    48  ILE48      -0.2718
     82  CB       -37.8670   85.8630   58.9190 C.3    48  ILE48       0.0266
     83  CG1      -37.1510   85.0470   59.9920 C.3    48  ILE48       0.0019
     84  CG2      -37.1670   85.6470   57.5850 C.3    48  ILE48       0.0020
     85  CD1      -37.4230   83.5460   59.9080 C.3    48  ILE48       0.0001
     86  N        -37.6860   88.8360   57.3820 N.am   49  THR49      -0.1939
     87  CA       -38.2040   89.5180   56.1910 C.3    49  THR49       0.2028
     88  C        -37.5050   88.9460   54.9860 C.2    49  THR49       0.2643
     89  O        -36.4320   88.4100   55.0930 O.2    49  THR49      -0.2714
     90  CB       -37.9470   91.0130   56.1810 C.3    49  THR49       0.1808
     91  OG1      -36.5500   91.2290   56.0830 O.3    49  THR49      -0.2208
     92  CG2      -38.4040   91.6510   57.4260 C.3    49  THR49       0.0379
     93  N        -38.1330   88.9990   53.8390 N.am   50  GLY50      -0.1939
     94  CA       -37.5510   88.3660   52.6830 C.3    50  GLY50       0.2014
     95  C        -38.4730   87.3390   52.1380 C.2    50  GLY50       0.2640
     96  O        -39.6270   87.2990   52.4890 O.2    50  GLY50      -0.2714
     97  N        -37.9660   86.4790   51.2870 N.am   51  SER51      -0.1935
     98  CA       -38.7520   85.3610   50.8300 C.3    51  SER51       0.2055
     99  C        -39.3640   84.5650   51.9710 C.2    51  SER51       0.2643
    100  O        -38.7320   84.2840   52.9660 O.2    51  SER51      -0.2714
    101  CB       -37.9060   84.4350   49.9800 C.3    51  SER51       0.2130
    102  OG       -38.5860   83.2030   49.8070 O.3    51  SER51      -0.2179
    103  N        -40.6190   84.1950   51.8230 N.am   52  ALA52      -0.1963
    104  CA       -41.2890   83.3380   52.8130 C.3    52  ALA52       0.1728
    105  C        -40.6100   82.0100   53.0480 C.2    52  ALA52       0.2616
    106  O        -40.7510   81.4270   54.1170 O.2    52  ALA52      -0.2715
    107  CB       -42.7180   83.0960   52.3940 C.3    52  ALA52       0.0334
    108  N        -39.8700   81.5280   52.0630 N.am   53  THR53      -0.1951
    109  CA       -39.1170   80.3020   52.2450 C.3    53  THR53       0.1897
    110  C        -38.0860   80.3360   53.3870 C.2    53  THR53       0.2313
    111  O        -37.8420   79.3260   54.0230 O.2    53  THR53      -0.2863
    112  CB       -38.4040   79.8980   50.9690 C.3    53  THR53       0.1794
    113  OG1      -39.3440   79.8640   49.9030 O.3    53  THR53      -0.2208
    114  CG2      -37.8210   78.5350   51.0980 C.3    53  THR53       0.0378
    115  N        -38.3040   81.5030   56.4750 N.3    55  LYS55      -0.1197
    116  CA       -38.9470   80.9750   57.7410 C.3    55  LYS55       0.1778
    117  C        -38.6330   79.4820   57.8720 C.2    55  LYS55       0.2305
    118  O        -38.0870   79.0400   58.8620 O.2    55  LYS55      -0.2863
    119  CB       -40.4750   81.2610   57.7380 C.2    55  LYS55      -0.0042
    120  CG       -41.2960   80.7340   58.9080 C.2    55  LYS55      -0.0273
    121  CD       -42.8370   80.9870   58.8620 C.3    55  LYS55       0.0462
    122  CE       -43.5390   80.8820   57.4740 C.3    55  LYS55       0.1140
    123  NZ       -43.9470   82.1530   56.7390 N.3    55  LYS55      -0.1310
    124  N        -40.1110   96.1970   54.2990 N.3   131  SER131     -0.1217
    125  CA       -40.5350   97.3050   53.4960 C.3   131  SER131      0.1889
    126  C        -41.4450   98.2500   54.2490 C.2   131  SER131      0.2288
    127  O        -41.5500   99.3730   53.8670 O.2   131  SER131     -0.2866
    128  CB       -41.3080   96.7950   52.2760 C.3   131  SER131      0.2089
    129  OG       -42.4910   96.1480   52.7130 O.3   131  SER131     -0.2183
    130  N        -47.6560   95.9370   51.5810 N.3   166  GLU166     -0.1245
    131  CA       -46.9400   94.7180   51.8200 C.3   166  GLU166      0.1567
    132  C        -47.0370   94.3190   53.2620 C.2   166  GLU166      0.2260
    133  O        -46.4160   93.3580   53.6760 O.2   166  GLU166     -0.2867
    134  CB       -45.4890   94.9100   51.4160 C.3   166  GLU166      0.0388
    135  CG       -45.2000   94.4640   50.0010 C.3   166  GLU166      0.1160
    136  CD       -43.8590   94.9030   49.4590 C.2   166  GLU166      0.3649
    137  OE1      -42.8290   94.9100   50.1300 O.co2 166  GLU166     -0.2457
    138  OE2      -43.8540   95.2090   48.2940 O.co2 166  GLU166     -0.2457
@<TRIPOS>BOND
     1    43    41   ar
     2    43    45   ar
     3    40    41   ar
     4    40    38   ar
     5    41    39   ar
     6    45    44   ar
     7    38    37   ar
     8    47    48    1
     9    47    46    1
    10    48    49    2
    11    39    37   ar
    12    39    42   ar
    13    35    34    2
    14    46    34   am
    15    44    42   ar
    16    37    36    1
    17    34    33    1
    18    36    33    1
    19    33    32    1
    20    32    25   am
    21    25    26    2
    22    25    24    1
    23    31    30    1
    24    30    29    1
    25   138   136   ar
    26    57    56   ar
    27    27    24    1
    28    27    28    1
    29    58    56   ar
    30    56    55    1
    31    24    23    1
    32   136   135    1
    33   136   137   ar
    34    55    54    1
    35    29    28    1
    36   102   101    1
    37   113   112    1
    38   101    98    1
    39   135   134    1
    40    23    18   am
    41    50    51    1
    42    98    97    1
    43    98    99    1
    44    54    51    1
    45    19    18    2
    46   112   114    1
    47   112   109    1
    48    51    52    1
    49    18    17    1
    50    97    95   am
    51   134   131    1
    52   130   131    1
    53    22    20    1
    54   131   132    1
    55   103    99   am
    56   103   104    1
    57    99   100    2
    58   108   109    1
    59   108   105   am
    60    95    96    2
    61    95    94    1
    62   109   110    1
    63   128   129    1
    64   128   125    1
    65   107   104    1
    66    20    17    1
    67    20    21    1
    68    17    16    1
    69    52    53    2
    70    94    93    1
    71   104   105    1
    72   105   106    2
    73    14    13    1
    74    15    13    1
    75   132   133    2
    76   110   111    2
    77    13    12    1
    78   125   126    1
    79   125   124    1
    80    16    10   am
    81    93    88   am
    82   127   126    2
    83     1     2    1
    84    10    11    2
    85    10     9    1
    86    12     9    1
    87    88    89    2
    88    88    87    1
    89     6     5    1
    90     9     8    1
    91     2     5    1
    92     2     3    1
    93     5     7    1
    94     4     3    2
    95    91    90    1
    96    90    87    1
    97    90    92    1
    98    87    86    1
    99    77    76    1
   100   115   116    1
   101   123   122    1
   102    76    75    1
   103    86    80   am
   104   122   121    1
   105    84    82    1
   106   119   116    1
   107   119   120    2
   108   116   117    1
   109   117   118    2
   110    81    80    2
   111    75    74    1
   112    80    79    1
   113    63    60    1
   114    63    64    1
   115    60    59    1
   116    60    61    1
   117   121   120    1
   118    82    79    1
   119    82    83    1
   120    74    73    1
   121    79    78    1
   122    62    61    2
   123    64    65   ar
   124    64    66   ar
   125    85    83    1
   126    65    67   ar
   127    73    70    1
   128    70    69    1
   129    70    71    1
   130    66    68   ar
   131    67    68   ar
   132    72    71    2
