@<TRIPOS>MOLECULE
tmp/5ovuA01.pdb
 106 103 0 0 0
SMALL
GASTEIGER

@<TRIPOS>ATOM
      1  N        -17.8900   -7.6830   -6.1470 N.3   101  TYR101     -0.1241
      2  CA       -17.8940   -9.1360   -6.0250 C.3   101  TYR101      0.1605
      3  C        -16.6030   -9.7290   -6.6020 C.2   101  TYR101      0.2264
      4  O        -16.1830   -9.3550   -7.7040 O.2   101  TYR101     -0.2867
      5  CB       -19.1080   -9.7240   -6.7470 C.3   101  TYR101      0.0534
      6  CG       -19.1550  -11.2330   -6.7320 C.ar  101  TYR101     -0.0201
      7  CD1      -19.6280  -11.9220   -5.6170 C.ar  101  TYR101     -0.0009
      8  CD2      -18.7270  -11.9780   -7.8320 C.ar  101  TYR101     -0.0009
      9  CE1      -19.6750  -13.3060   -5.5960 C.ar  101  TYR101      0.0417
     10  CE2      -18.7710  -13.3660   -7.8190 C.ar  101  TYR101      0.0417
     11  CZ       -19.2440  -14.0240   -6.6970 C.ar  101  TYR101      0.1957
     12  OH       -19.2940  -15.3990   -6.6680 O.3   101  TYR101     -0.2866
     13  N        -14.7830  -16.2310   -1.9790 N.3   106  ILE106     -0.1245
     14  CA       -15.6420  -17.3630   -1.6350 C.3   106  ILE106      0.1561
     15  C        -14.8630  -18.3160   -0.7300 C.2   106  ILE106      0.2260
     16  O        -13.7190  -18.6680   -1.0280 O.2   106  ILE106     -0.2867
     17  CB       -16.1300  -18.1240   -2.8890 C.3   106  ILE106      0.0252
     18  CG1      -16.9750  -17.2140   -3.7860 C.3   106  ILE106      0.0019
     19  CG2      -16.9500  -19.3470   -2.4910 C.3   106  ILE106      0.0019
     20  CD1      -17.2100  -17.7680   -5.1790 C.3   106  ILE106      0.0001
     21  N        -19.0560  -23.9640    0.5440 N.3   109  LEU109     -0.1245
     22  CA       -20.4640  -24.3540    0.6230 C.3   109  LEU109      0.1561
     23  C        -20.6020  -25.3540    1.7600 C.2   109  LEU109      0.2260
     24  O        -19.6540  -26.0780    2.0690 O.2   109  LEU109     -0.2867
     25  CB       -20.9410  -25.0020   -0.6790 C.3   109  LEU109      0.0270
     26  CG       -20.9480  -24.1520   -1.9470 C.3   109  LEU109      0.0019
     27  CD1      -21.3530  -25.0140   -3.1340 C.3   109  LEU109      0.0001
     28  CD2      -21.8790  -22.9580   -1.8010 C.3   109  LEU109      0.0001
     29  N        -23.7960  -21.0610    2.0110 N.3   118  GLY118     -0.1210
     30  CA       -22.5680  -20.5680    1.3840 C.3   118  GLY118      0.1956
     31  C        -21.9720  -19.4380    2.2070 C.2   118  GLY118      0.2612
     32  O        -22.7040  -18.6280    2.7760 O.2   118  GLY118     -0.2717
     33  N        -20.6420  -19.3860    2.2710 N.am  119  VAL119     -0.1965
     34  CA       -19.9330  -18.3800    3.0660 C.3   119  VAL119      0.1727
     35  C        -19.0160  -17.5490    2.1680 C.2   119  VAL119      0.2616
     36  O        -18.2100  -18.0980    1.4190 O.2   119  VAL119     -0.2715
     37  CB       -19.1040  -19.0350    4.1920 C.3   119  VAL119      0.0290
     38  CG1      -18.4050  -17.9770    5.0390 C.3   119  VAL119      0.0023
     39  CG2      -19.9950  -19.9180    5.0610 C.3   119  VAL119      0.0023
     40  N        -19.1520  -16.2260    2.2510 N.am  120  TYR120     -0.1974
     41  CA       -18.3640  -15.2940    1.4430 C.3   120  TYR120      0.1639
     42  C        -17.5530  -14.3860    2.3600 C.2   120  TYR120      0.2290
     43  O        -18.1210  -13.6810    3.1990 O.2   120  TYR120     -0.2864
     44  CB       -19.2920  -14.4520    0.5630 C.3   120  TYR120      0.0560
     45  CG       -18.5990  -13.4700   -0.3610 C.ar  120  TYR120     -0.0198
     46  CD1      -18.2700  -12.1860    0.0730 C.ar  120  TYR120     -0.0009
     47  CD2      -18.2990  -13.8130   -1.6780 C.ar  120  TYR120     -0.0009
     48  CE1      -17.6470  -11.2790   -0.7730 C.ar  120  TYR120      0.0417
     49  CE2      -17.6760  -12.9130   -2.5320 C.ar  120  TYR120      0.0417
     50  CZ       -17.3540  -11.6470   -2.0770 C.ar  120  TYR120      0.1957
     51  OH       -16.7360  -10.7510   -2.9200 O.3   120  TYR120     -0.2866
     52  N        -25.0510  -17.0050    3.3250 N.3   126  PHE126     -0.1241
     53  CA       -26.2960  -17.1710    2.5750 C.3   126  PHE126      0.1605
     54  C        -26.8950  -18.5540    2.8000 C.2   126  PHE126      0.2264
     55  O        -26.1730  -19.5260    3.0240 O.2   126  PHE126     -0.2867
     56  CB       -26.0410  -16.9830    1.0780 C.3   126  PHE126      0.0534
     57  CG       -25.5870  -15.6010    0.7140 C.ar  126  PHE126     -0.0203
     58  CD1      -24.2380  -15.2700    0.7410 C.ar  126  PHE126     -0.0042
     59  CD2      -26.5090  -14.6280    0.3570 C.ar  126  PHE126     -0.0042
     60  CE1      -23.8160  -13.9920    0.4160 C.ar  126  PHE126     -0.0003
     61  CE2      -26.0930  -13.3490    0.0300 C.ar  126  PHE126     -0.0003
     62  CZ       -24.7460  -13.0300    0.0600 C.ar  126  PHE126     -0.0000
     63  N        -29.6310  -21.2810    0.8800 N.3   128  PHE128     -0.1241
     64  CA       -30.1930  -21.5600   -0.4400 C.3   128  PHE128      0.1605
     65  C        -31.3990  -22.4830   -0.3250 C.2   128  PHE128      0.2264
     66  O        -31.4200  -23.3900    0.5090 O.2   128  PHE128     -0.2867
     67  CB       -29.1310  -22.1820   -1.3550 C.3   128  PHE128      0.0534
     68  CG       -27.8940  -21.3400   -1.5010 C.ar  128  PHE128     -0.0203
     69  CD1      -27.9360  -20.1370   -2.1960 C.ar  128  PHE128     -0.0042
     70  CD2      -26.6900  -21.7450   -0.9420 C.ar  128  PHE128     -0.0042
     71  CE1      -26.8040  -19.3540   -2.3310 C.ar  128  PHE128     -0.0003
     72  CE2      -25.5540  -20.9650   -1.0690 C.ar  128  PHE128     -0.0003
     73  CZ       -25.6110  -19.7680   -1.7670 C.ar  128  PHE128     -0.0000
     74  N        -27.0620  -24.3680   -5.2660 N.3   132  TRP132     -0.1241
     75  CA       -26.0530  -23.4190   -5.7310 C.3   132  TRP132      0.1605
     76  C        -24.7370  -24.1540   -6.0000 C.2   132  TRP132      0.2264
     77  O        -24.5820  -25.3160   -5.6250 O.2   132  TRP132     -0.2867
     78  CB       -25.8450  -22.2790   -4.7200 C.3   132  TRP132      0.0550
     79  CG       -25.1970  -21.0750   -5.3410 C.ar  132  TRP132      0.0003
     80  CD1      -23.9630  -20.5670   -5.0600 C.ar  132  TRP132      0.0946
     81  CD2      -25.7420  -20.2540   -6.3840 C.ar  132  TRP132      0.0152
     82  NE1      -23.7110  -19.4700   -5.8510 N.ar  132  TRP132     -0.2442
     83  CE2      -24.7870  -19.2570   -6.6720 C.ar  132  TRP132      0.0810
     84  CE3      -26.9490  -20.2610   -7.0950 C.ar  132  TRP132      0.0012
     85  CZ2      -25.0000  -18.2750   -7.6470 C.ar  132  TRP132      0.0191
     86  CZ3      -27.1610  -19.2840   -8.0620 C.ar  132  TRP132      0.0001
     87  CH2      -26.1910  -18.3040   -8.3250 C.ar  132  TRP132      0.0015
     88  N        -20.1510  -23.4410   -6.8010 N.3   134  ILE134     -0.1245
     89  CA       -18.9840  -22.5580   -6.8240 C.3   134  ILE134      0.1561
     90  C        -17.8140  -23.1990   -7.5540 C.2   134  ILE134      0.2260
     91  O        -17.7860  -24.4190   -7.7610 O.2   134  ILE134     -0.2867
     92  CB       -18.5260  -22.1700   -5.4030 C.3   134  ILE134      0.0252
     93  CG1      -18.1330  -23.4100   -4.5960 C.3   134  ILE134      0.0019
     94  CG2      -19.6250  -21.3950   -4.6860 C.3   134  ILE134      0.0019
     95  CD1      -17.4370  -23.0860   -3.2930 C.3   134  ILE134      0.0001
     96  N        -18.8380  -24.0050  -12.1860 N.3   138  ARG138     -0.1245
     97  CA       -20.1500  -23.8570  -11.5370 C.3   138  ARG138      0.1563
     98  C        -21.2670  -23.3900  -12.4730 C.2   138  ARG138      0.2260
     99  O        -22.4240  -23.7530  -12.2730 O.2   138  ARG138     -0.2867
    100  CB       -20.0630  -22.9450  -10.3000 C.3   138  ARG138      0.0307
    101  CG       -19.9640  -21.4440  -10.5660 C.3   138  ARG138      0.0489
    102  CD       -21.3240  -20.7580  -10.5150 C.3   138  ARG138      0.2205
    103  NE       -21.2160  -19.3000  -10.4200 N.pl3 138  ARG138     -0.0865
    104  CZ       -21.0310  -18.6150   -9.2890 C.cat 138  ARG138      0.5346
    105  NH1      -20.9150  -19.2340   -8.1180 N.pl3 138  ARG138      0.1354
    106  NH2      -20.9590  -17.2940   -9.3270 N.pl3 138  ARG138      0.1354
@<TRIPOS>BOND
     1    98    99    2
     2    98    97    1
     3    96    97    1
     4    97   100    1
     5   101   102    1
     6   101   100    1
     7   102   103    1
     8   103   104    2
     9   106   104    1
    10   104   105    1
    11    87    86   ar
    12    87    85   ar
    13    86    84   ar
    14     8    10   ar
    15     8     6   ar
    16    10    11   ar
    17    91    90    2
    18     4     3    2
    19    85    83   ar
    20    90    89    1
    21    84    81   ar
    22    89    88    1
    23    89    92    1
    24     5     6    1
    25     5     2    1
    26     6     7   ar
    27    11    12    1
    28    11     9   ar
    29    83    81   ar
    30    83    82   ar
    31     3     2    1
    32    81    79   ar
    33     1     2    1
    34    76    75    1
    35    76    77    2
    36    82    80   ar
    37    75    74    1
    38    75    78    1
    39     7     9   ar
    40    92    94    1
    41    92    93    1
    42    79    80   ar
    43    79    78    1
    44    20    18    1
    45    93    95    1
    46    18    17    1
    47    27    26    1
    48    51    50    1
    49    17    19    1
    50    17    14    1
    51    49    50   ar
    52    49    47   ar
    53    71    69   ar
    54    71    73   ar
    55    69    68   ar
    56    50    48   ar
    57    13    14    1
    58    26    28    1
    59    26    25    1
    60    73    72   ar
    61    47    45   ar
    62    14    15    1
    63    68    67    1
    64    68    70   ar
    65    67    64    1
    66    72    70   ar
    67    16    15    2
    68    48    46   ar
    69    25    22    1
    70    64    65    1
    71    64    63    1
    72    45    46   ar
    73    45    44    1
    74    65    66    2
    75    61    62   ar
    76    61    59   ar
    77    62    60   ar
    78    59    57   ar
    79    60    58   ar
    80    21    22    1
    81    44    41    1
    82    22    23    1
    83    57    58   ar
    84    57    56    1
    85    56    53    1
    86    30    29    1
    87    30    31    1
    88    36    35    2
    89    41    40    1
    90    41    42    1
    91    23    24    2
    92    35    40   am
    93    35    34    1
    94    31    33   am
    95    31    32    2
    96    33    34    1
    97    42    43    2
    98    53    54    1
    99    53    52    1
   100    54    55    2
   101    34    37    1
   102    37    38    1
   103    37    39    1
