@<TRIPOS>MOLECULE
tmp/5ovxA00.pdb
 140 135 0 0 0
SMALL
GASTEIGER

@<TRIPOS>ATOM
      1  N          2.5300   -9.0090  -20.3440 N.3   126  ASN126     -0.1240
      2  CA         1.4450   -8.8140  -21.3100 C.3   126  ASN126      0.1653
      3  C          0.1090   -8.7290  -20.5470 C.2   126  ASN126      0.2266
      4  O          0.0520   -9.1240  -19.3780 O.2   126  ASN126     -0.2867
      5  CB         1.4440   -9.9370  -22.3660 C.3   126  ASN126      0.1155
      6  CG         2.6670   -9.9360  -23.2780 C.2   126  ASN126      0.2627
      7  OD1        3.2530   -8.8940  -23.6010 O.2   126  ASN126     -0.2716
      8  ND2        3.0780  -11.1130  -23.7270 N.am  126  ASN126     -0.0877
      9  N         -2.8190  -10.4080  -20.9390 N.3   128  GLU128     -0.1231
     10  CA        -3.3750  -11.7330  -20.6110 C.3   128  GLU128      0.1699
     11  C         -2.5610  -12.5070  -19.5490 C.2   128  GLU128      0.2592
     12  O         -2.9880  -13.5850  -19.1340 O.2   128  GLU128     -0.2718
     13  CB        -3.6230  -12.5890  -21.8690 C.3   128  GLU128      0.0402
     14  CG        -2.5320  -12.5190  -22.9180 C.3   128  GLU128      0.1161
     15  CD        -2.6950  -11.4580  -23.9890 C.2   128  GLU128      0.3649
     16  OE1       -3.5070  -11.6730  -24.9160 O.co2 128  GLU128     -0.2457
     17  OE2       -1.9660  -10.4410  -23.9360 O.co2 128  GLU128     -0.2457
     18  N         -1.4310  -11.9310  -19.0780 N.am  129  GLU129     -0.1979
     19  CA        -0.5670  -12.4890  -18.0290 C.3   129  GLU129      0.1602
     20  C         -0.8350  -11.8750  -16.6530 C.2   129  GLU129      0.2287
     21  O         -0.2640  -12.3360  -15.6610 O.2   129  GLU129     -0.2864
     22  CB         0.8970  -12.2220  -18.3600 C.3   129  GLU129      0.0415
     23  CG         1.4560  -13.0900  -19.4560 C.3   129  GLU129      0.1163
     24  CD         2.9270  -12.8440  -19.6970 C.2   129  GLU129      0.3649
     25  OE1        3.6870  -13.8360  -19.7420 O.co2 129  GLU129     -0.2457
     26  OE2        3.3200  -11.6670  -19.8610 O.co2 129  GLU129     -0.2457
     27  N          1.4430  -13.4120  -13.1460 N.3   133  LYS133     -0.1245
     28  CA         2.7980  -12.9290  -13.4590 C.3   133  LYS133      0.1561
     29  C          3.1040  -11.5490  -12.8580 C.2   133  LYS133      0.2260
     30  O          4.2770  -11.1720  -12.7240 O.2   133  LYS133     -0.2867
     31  CB         3.0750  -12.9760  -14.9680 C.3   133  LYS133      0.0271
     32  CG         3.2240  -14.4050  -15.4920 C.3   133  LYS133      0.0035
     33  CD         4.3210  -14.5050  -16.5390 C.3   133  LYS133      0.0206
     34  CE         4.6160  -15.9300  -16.9420 C.3   133  LYS133      0.1093
     35  NZ         5.6170  -15.9910  -18.0420 N.3   133  LYS133     -0.1314
     36  N          3.4600   -4.2170  -23.4170 N.3   183  THR183     -0.1203
     37  CA         2.4790   -5.2790  -23.6690 C.3   183  THR183      0.1994
     38  C          2.7280   -6.0300  -24.9730 C.2   183  THR183      0.2619
     39  O          1.8180   -6.6890  -25.4820 O.2   183  THR183     -0.2717
     40  CB         1.0570   -4.6720  -23.6550 C.3   183  THR183      0.1784
     41  OG1        1.0110   -3.6240  -24.6250 O.3   183  THR183     -0.2211
     42  CG2        0.6610   -4.1290  -22.2940 C.3   183  THR183      0.0376
     43  N          3.9460   -5.9320  -25.5200 N.am  184  SER184     -0.1937
     44  CA         4.2610   -6.5870  -26.7800 C.3   184  SER184      0.2055
     45  C          5.3990   -7.5760  -26.6300 C.2   184  SER184      0.2643
     46  O          6.2470   -7.6640  -27.5150 O.2   184  SER184     -0.2714
     47  CB         4.5440   -5.5500  -27.8650 C.3   184  SER184      0.2130
     48  OG         3.3870   -4.7490  -28.0390 O.3   184  SER184     -0.2179
     49  N          5.4200   -8.3350  -25.5120 N.am  185  TRP185     -0.1960
     50  CA         6.4760   -9.3210  -25.3200 C.3   185  TRP185      0.1756
     51  C          6.1310  -10.6050  -26.0950 C.2   185  TRP185      0.2462
     52  O          5.0980  -11.2260  -25.8460 O.2   185  TRP185     -0.2730
     53  CB         6.7940   -9.5850  -23.8400 C.3   185  TRP185      0.0590
     54  CG         8.0210  -10.4400  -23.7070 C.ar  185  TRP185      0.0006
     55  CD1        8.0650  -11.8040  -23.6550 C.ar  185  TRP185      0.0946
     56  CD2        9.3800   -9.9970  -23.7880 C.ar  185  TRP185      0.0152
     57  NE1        9.3670  -12.2340  -23.6510 N.ar  185  TRP185     -0.2442
     58  CE2       10.1990  -11.1470  -23.7100 C.ar  185  TRP185      0.0810
     59  CE3        9.9930   -8.7310  -23.9000 C.ar  185  TRP185      0.0012
     60  CZ2       11.5950  -11.0730  -23.7080 C.ar  185  TRP185      0.0191
     61  CZ3       11.3830   -8.6580  -23.8670 C.ar  185  TRP185      0.0001
     62  CH2       12.1650   -9.8170  -23.8030 C.ar  185  TRP185      0.0015
     63  N          6.9960  -11.0240  -27.0320 N.am  186  PRO186     -0.2716
     64  CA         6.6420  -12.1790  -27.8740 C.3   186  PRO186      0.1536
     65  C          6.9890  -13.5450  -27.3130 C.2   186  PRO186      0.2599
     66  O          8.0200  -13.7220  -26.6520 O.2   186  PRO186     -0.2715
     67  CB         7.4180  -11.9080  -29.1630 C.3   186  PRO186      0.0310
     68  CG         8.6850  -11.2220  -28.6710 C.3   186  PRO186      0.0237
     69  CD         8.2710  -10.4040  -27.4640 C.3   186  PRO186      0.0939
     70  N          6.1310  -14.5160  -27.6230 N.am  187  ASP187     -0.1958
     71  CA         6.3230  -15.9230  -27.2780 C.3   187  ASP187      0.1840
     72  C          7.3300  -16.5150  -28.2810 C.2   187  ASP187      0.2622
     73  O          8.2110  -17.2700  -27.8830 O.2   187  ASP187     -0.2715
     74  CB         4.9750  -16.6780  -27.2980 C.3   187  ASP187      0.1450
     75  CG         4.3140  -16.7110  -28.6600 C.2   187  ASP187      0.3671
     76  OD1        3.7780  -15.6600  -29.0880 O.co2 187  ASP187     -0.2456
     77  OD2        4.4320  -17.7480  -29.3470 O.co2 187  ASP187     -0.2456
     78  N          7.2210  -16.1260  -29.5710 N.am  188  GLN188     -0.1963
     79  CA         8.1430  -16.5400  -30.6350 C.3   188  GLN188      0.1733
     80  C          9.0050  -15.3190  -30.9210 C.2   188  GLN188      0.2616
     81  O          8.5120  -14.3180  -31.4460 O.2   188  GLN188     -0.2715
     82  CB         7.3920  -17.0260  -31.8880 C.3   188  GLN188      0.0408
     83  CG         6.7990  -18.4280  -31.7210 C.3   188  GLN188      0.0908
     84  CD         5.7250  -18.7510  -32.7350 C.2   188  GLN188      0.2608
     85  OE1        4.7050  -18.0570  -32.8560 O.2   188  GLN188     -0.2717
     86  NE2        5.8990  -19.8570  -33.4410 N.am  188  GLN188     -0.0878
     87  N         10.2790  -15.3950  -30.5230 N.am  189  LYS189     -0.1977
     88  CA        11.2480  -14.3000  -30.5660 C.3   189  LYS189      0.1596
     89  C         12.0000  -14.1840  -31.8870 C.2   189  LYS189      0.2287
     90  O         13.2350  -14.1290  -31.9290 O.2   189  LYS189     -0.2864
     91  CB        12.2020  -14.4280  -29.3740 C.3   189  LYS189      0.0298
     92  CG        11.5380  -14.0010  -28.0690 C.3   189  LYS189      0.0038
     93  CD        12.1540  -14.6760  -26.8980 C.3   189  LYS189      0.0206
     94  CE        11.3160  -14.4260  -25.6810 C.3   189  LYS189      0.1093
     95  NZ        10.1230  -15.3150  -25.6360 N.3   189  LYS189     -0.1314
     96  N          9.7280   -9.4030  -34.3750 N.3   193  ARG193     -0.1245
     97  CA         9.1680   -9.0100  -33.0750 C.3   193  ARG193      0.1563
     98  C         10.1020   -8.0960  -32.2630 C.2   193  ARG193      0.2260
     99  O          9.7290   -7.6300  -31.1810 O.2   193  ARG193     -0.2867
    100  CB         8.7410  -10.2690  -32.2600 C.3   193  ARG193      0.0307
    101  CG         7.5960  -11.0880  -32.8860 C.3   193  ARG193      0.0489
    102  CD         6.3610  -10.2570  -33.1970 C.3   193  ARG193      0.2205
    103  NE         5.1130  -11.0000  -33.0290 N.pl3 193  ARG193     -0.0865
    104  CZ         4.2320  -11.2240  -34.0010 C.cat 193  ARG193      0.5346
    105  NH1        4.4660  -10.7880  -35.2340 N.pl3 193  ARG193      0.1354
    106  NH2        3.1160  -11.8960  -33.7500 N.pl3 193  ARG193      0.1354
    107  N          9.2850   -3.3580  -31.3600 N.3   196  PRO196     -0.2116
    108  CA         8.6680   -2.7590  -30.1580 C.3   196  PRO196      0.1372
    109  C          9.5880   -2.7090  -28.9320 C.2   196  PRO196      0.2244
    110  O          9.5600   -1.7120  -28.2000 O.2   196  PRO196     -0.2868
    111  CB         7.4320   -3.6380  -29.9120 C.3   196  PRO196      0.0268
    112  CG         7.1360   -4.2530  -31.2260 C.3   196  PRO196      0.0207
    113  CD         8.4740   -4.5010  -31.8430 C.3   196  PRO196      0.0892
    114  N         12.8820  -11.5300  -19.0950 N.3   228  ARG228     -0.1245
    115  CA        12.5610  -10.3550  -19.8980 C.3   228  ARG228      0.1563
    116  C         13.2960   -9.1500  -19.3380 C.2   228  ARG228      0.2260
    117  O         13.7720   -8.3250  -20.1190 O.2   228  ARG228     -0.2867
    118  CB        11.0530  -10.1030  -19.8740 C.3   228  ARG228      0.0307
    119  CG        10.2670  -11.3740  -20.1020 C.3   228  ARG228      0.0489
    120  CD         8.7980  -11.0790  -20.2560 C.3   228  ARG228      0.2205
    121  NE         8.0780  -12.3220  -20.5110 N.pl3 228  ARG228     -0.0865
    122  CZ         6.7590  -12.4320  -20.5310 C.cat 228  ARG228      0.5346
    123  NH1        5.9920  -11.3700  -20.3080 N.pl3 228  ARG228      0.1354
    124  NH2        6.1930  -13.5960  -20.7950 N.pl3 228  ARG228      0.1354
    125  N         16.5960  -17.6070  -20.8470 N.3   267  THR267     -0.1218
    126  CA        16.5660  -18.6430  -21.8880 C.3   267  THR267      0.1862
    127  C         17.4570  -18.3340  -23.0740 C.2   267  THR267      0.2287
    128  O         17.8560  -17.1810  -23.2870 O.2   267  THR267     -0.2866
    129  CB        15.1400  -18.9220  -22.3960 C.3   267  THR267      0.1770
    130  OG1       14.6850  -17.7810  -23.1250 O.3   267  THR267     -0.2211
    131  CG2       14.1500  -19.3200  -21.2860 C.3   267  THR267      0.0375
    132  N         15.6700  -15.9820  -25.4230 N.3   269  GLN269     -0.1245
    133  CA        15.8190  -14.6000  -24.9510 C.3   269  GLN269      0.1566
    134  C         17.1940  -14.0710  -25.3730 C.2   269  GLN269      0.2260
    135  O         17.2870  -12.9590  -25.8710 O.2   269  GLN269     -0.2867
    136  CB        15.6570  -14.5030  -23.4290 C.3   269  GLN269      0.0367
    137  CG        14.1900  -14.5200  -22.9980 C.3   269  GLN269      0.0905
    138  CD        14.0290  -14.7790  -21.5250 C.2   269  GLN269      0.2608
    139  OE1       15.0030  -14.8720  -20.7790 O.2   269  GLN269     -0.2717
    140  NE2       12.7830  -14.8880  -21.0770 N.am  269  GLN269     -0.0878
@<TRIPOS>BOND
     1   105   104    1
     2    96    97    1
     3   104   106    1
     4   104   103    2
     5    86    84   am
     6   102   103    1
     7   102   101    1
     8    97    98    1
     9    97   100    1
    10   101   100    1
    11    85    84    2
    12    84    83    1
    13    98    99    2
    14    90    89    2
    15    82    83    1
    16    82    79    1
    17    89    88    1
    18   113   107    1
    19   113   112    1
    20    81    80    2
    21   107   108    1
    22   112   111    1
    23    80    79    1
    24    80    87   am
    25    79    78    1
    26    88    87    1
    27    88    91    1
    28   108   111    1
    29   108   109    1
    30    78    72   am
    31    91    92    1
    32    77    75   ar
    33    67    68    1
    34    67    64    1
    35    76    75   ar
    36   109   110    2
    37    68    69    1
    38    75    74    1
    39    72    73    2
    40    72    71    1
    41    92    93    1
    42    48    47    1
    43    64    65    1
    44    64    63    1
    45    47    44    1
    46    70    65   am
    47    70    71    1
    48    46    45    2
    49    69    63    1
    50    65    66    2
    51    74    71    1
    52    63    51   am
    53    93    94    1
    54    44    45    1
    55    44    43    1
    56    45    49   am
    57    51    52    2
    58    51    50    1
    59   135   134    2
    60    94    95    1
    61    43    38   am
    62    49    50    1
    63    39    38    2
    64   132   133    1
    65   134   133    1
    66    50    53    1
    67    38    37    1
    68   133   136    1
    69    16    15   ar
    70    41    40    1
    71    15    17   ar
    72    15    14    1
    73    59    61   ar
    74    59    56   ar
    75    61    62   ar
    76    53    54    1
    77    62    60   ar
    78    56    58   ar
    79    56    54   ar
    80     8     6   am
    81    58    60   ar
    82    58    57   ar
    83    54    55   ar
    84    37    40    1
    85    37    36    1
    86    40    42    1
    87    55    57   ar
    88     7     6    2
    89   136   137    1
    90   128   127    2
    91     6     5    1
    92   130   129    1
    93   127   126    1
    94   137   138    1
    95    14    13    1
    96   129   126    1
    97   129   131    1
    98     5     2    1
    99   126   125    1
   100    13    10    1
   101   138   140   am
   102   138   139    2
   103     2     3    1
   104     2     1    1
   105     9    10    1
   106   124   122    1
   107    10    11    1
   108     3     4    2
   109   122   121    2
   110   122   123    1
   111   121   120    1
   112   120   119    1
   113   117   116    2
   114   119   118    1
   115   115   118    1
   116   115   116    1
   117   115   114    1
   118    26    24   ar
   119    25    24   ar
   120    24    23    1
   121    11    12    2
   122    11    18   am
   123    23    22    1
   124    18    19    1
   125    22    19    1
   126    35    34    1
   127    19    20    1
   128    34    33    1
   129    20    21    2
   130    33    32    1
   131    32    31    1
   132    31    28    1
   133    28    27    1
   134    28    29    1
   135    29    30    2
