@<TRIPOS>MOLECULE
tmp/5ovzA00.pdb
 180 173 0 0 0
SMALL
GASTEIGER

@<TRIPOS>ATOM
      1  N        -34.8800  -19.6670    0.3080 N.3    10  GLU10      -0.1245
      2  CA       -35.9140  -19.1300   -0.5630 C.3    10  GLU10       0.1567
      3  C        -35.5210  -17.7890   -1.1640 C.2    10  GLU10       0.2260
      4  O        -35.6090  -17.6270   -2.3770 O.2    10  GLU10      -0.2867
      5  CB       -37.2500  -19.0470    0.1840 C.3    10  GLU10       0.0388
      6  CG       -38.3990  -18.5470   -0.6810 C.3    10  GLU10       0.1160
      7  CD       -39.4220  -17.7430    0.1010 C.2    10  GLU10       0.3649
      8  OE1      -39.0150  -17.0690    1.0760 O.co2  10  GLU10      -0.2457
      9  OE2      -40.6210  -17.7710   -0.2680 O.co2  10  GLU10      -0.2457
     10  N        -37.0890  -14.8420   -0.1500 N.3    12  SER12      -0.1202
     11  CA       -38.2520  -13.9280   -0.0920 C.3    12  SER12       0.2020
     12  C        -38.8390  -13.8590    1.3150 C.2    12  SER12       0.2618
     13  O        -40.0630  -13.6920    1.4740 O.2    12  SER12      -0.2717
     14  CB       -39.3330  -14.3460   -1.0920 C.3    12  SER12       0.2103
     15  OG       -38.8500  -14.3030   -2.4250 O.3    12  SER12      -0.2182
     16  N        -37.9770  -13.9830    2.3510 N.am   13  TYR13      -0.1975
     17  CA       -38.4470  -13.9820    3.7440 C.3    13  TYR13       0.1639
     18  C        -37.4930  -13.1810    4.6260 C.2    13  TYR13       0.2290
     19  O        -36.7720  -13.7440    5.4580 O.2    13  TYR13      -0.2864
     20  CB       -38.6410  -15.4130    4.2590 C.3    13  TYR13       0.0560
     21  CG       -39.7000  -15.5250    5.3350 C.ar   13  TYR13      -0.0198
     22  CD1      -41.0540  -15.4780    5.0140 C.ar   13  TYR13      -0.0009
     23  CD2      -39.3490  -15.6850    6.6730 C.ar   13  TYR13      -0.0009
     24  CE1      -42.0380  -15.6030    5.9950 C.ar   13  TYR13       0.0417
     25  CE2      -40.3240  -15.7960    7.6710 C.ar   13  TYR13       0.0417
     26  CZ       -41.6680  -15.7580    7.3220 C.ar   13  TYR13       0.1957
     27  OH       -42.6510  -15.8490    8.2680 O.3    13  TYR13      -0.2866
     28  N        -34.6160  -13.2500    7.3970 N.3    16  TYR16      -0.1227
     29  CA       -33.9610  -14.5620    7.4060 C.3    16  TYR16       0.1736
     30  C        -33.1910  -14.8020    6.1050 C.2    16  TYR16       0.2595
     31  O        -32.0380  -15.2300    6.1270 O.2    16  TYR16      -0.2718
     32  CB       -35.0130  -15.6710    7.5170 C.3    16  TYR16       0.0548
     33  CG       -35.5710  -15.9140    8.8930 C.ar   16  TYR16      -0.0200
     34  CD1      -35.0260  -16.8950    9.7220 C.ar   16  TYR16      -0.0009
     35  CD2      -36.7340  -15.2690    9.3160 C.ar   16  TYR16      -0.0009
     36  CE1      -35.5890  -17.1910   10.9620 C.ar   16  TYR16       0.0417
     37  CE2      -37.3140  -15.5680   10.5500 C.ar   16  TYR16       0.0417
     38  CZ       -36.7420  -16.5380   11.3610 C.ar   16  TYR16       0.1957
     39  OH       -37.3110  -16.8690   12.5620 O.3    16  TYR16      -0.2866
     40  N        -33.8740  -14.6330    4.9700 N.am   17  ASN17      -0.1974
     41  CA       -33.2870  -14.8880    3.6640 C.3    17  ASN17       0.1688
     42  C        -33.9940  -14.0610    2.6310 C.2    17  ASN17       0.2292
     43  O        -35.2000  -14.2140    2.4210 O.2    17  ASN17      -0.2864
     44  CB       -33.3240  -16.3830    3.3050 C.3    17  ASN17       0.1181
     45  CG       -34.6730  -17.0550    3.4270 C.2    17  ASN17       0.2629
     46  OD1      -35.3910  -17.2220    2.4500 O.2    17  ASN17      -0.2716
     47  ND2      -35.0100  -17.5130    4.6120 N.am   17  ASN17      -0.0877
     48  N        -40.0330  -21.7390   -2.2380 N.3    51  TRP51      -0.1241
     49  CA       -40.5880  -22.3670   -1.0370 C.3    51  TRP51       0.1605
     50  C        -41.4270  -23.6000   -1.3980 C.2    51  TRP51       0.2264
     51  O        -41.2820  -24.6460   -0.7750 O.2    51  TRP51      -0.2867
     52  CB       -41.4060  -21.3230   -0.2460 C.3    51  TRP51       0.0550
     53  CG       -41.9810  -21.8630    1.0150 C.ar   51  TRP51       0.0003
     54  CD1      -43.3000  -22.0720    1.2910 C.ar   51  TRP51       0.0946
     55  CD2      -41.2550  -22.2240    2.1990 C.ar   51  TRP51       0.0152
     56  NE1      -43.4430  -22.5520    2.5730 N.ar   51  TRP51      -0.2442
     57  CE2      -42.2030  -22.6530    3.1550 C.ar   51  TRP51       0.0810
     58  CE3      -39.8930  -22.1810    2.5610 C.ar   51  TRP51       0.0012
     59  CZ2      -41.8310  -23.0810    4.4360 C.ar   51  TRP51       0.0191
     60  CZ3      -39.5270  -22.5990    3.8370 C.ar   51  TRP51       0.0001
     61  CH2      -40.4920  -23.0310    4.7580 C.ar   51  TRP51       0.0015
     62  N        -34.0830  -21.8350    5.6110 N.3    68  ALA68      -0.1231
     63  CA       -35.0450  -20.9420    4.9730 C.3    68  ALA68       0.1694
     64  C        -36.1730  -20.5810    5.9160 C.2    68  ALA68       0.2592
     65  O        -37.3530  -20.6500    5.5340 O.2    68  ALA68      -0.2718
     66  CB       -35.5820  -21.5860    3.6970 C.3    68  ALA68       0.0304
     67  N        -35.8120  -20.1970    7.1680 N.am   69  ALA69      -0.1966
     68  CA       -36.7600  -19.8410    8.2280 C.3    69  ALA69       0.1728
     69  C        -37.7350  -21.0110    8.4150 C.2    69  ALA69       0.2616
     70  O        -38.9210  -20.7950    8.6310 O.2    69  ALA69      -0.2715
     71  CB       -37.5350  -18.5710    7.8580 C.3    69  ALA69       0.0334
     72  N        -37.2380  -22.2530    8.2990 N.am   70  MET70      -0.1963
     73  CA       -38.1280  -23.3980    8.3630 C.3    70  MET70       0.1736
     74  C        -38.3500  -23.9080    9.7680 C.2    70  MET70       0.2617
     75  O        -37.4180  -24.4190   10.3900 O.2    70  MET70      -0.2715
     76  CB       -37.6300  -24.5300    7.4580 C.3    70  MET70       0.0427
     77  CG       -38.6120  -25.7100    7.3960 C.3    70  MET70       0.0599
     78  SD       -38.0310  -26.9470    6.2110 S.3    70  MET70      -0.1393
     79  CE       -38.5680  -26.1690    4.6410 C.3    70  MET70       0.0692
     80  N        -39.6150  -23.8550   10.1910 N.am   71  GLY71      -0.1955
     81  CA       -40.0290  -24.3670   11.4990 C.3    71  GLY71       0.1869
     82  C        -39.9010  -25.8850   11.5580 C.2    71  GLY71       0.2309
     83  O        -40.1550  -26.5640   10.5630 O.2    71  GLY71      -0.2863
     84  N        -43.5590  -31.8300    8.7470 N.3    76  ARG76      -0.1245
     85  CA       -42.2450  -31.8340    8.0720 C.3    76  ARG76       0.1563
     86  C        -41.3280  -32.9230    8.6060 C.2    76  ARG76       0.2260
     87  O        -40.5890  -33.5270    7.8250 O.2    76  ARG76      -0.2867
     88  CB       -41.5580  -30.4770    8.1730 C.3    76  ARG76       0.0307
     89  CG       -42.3210  -29.3810    7.4430 C.3    76  ARG76       0.0489
     90  CD       -41.6000  -28.0510    7.5970 C.3    76  ARG76       0.2205
     91  NE       -42.4190  -27.0090    6.9900 N.pl3  76  ARG76      -0.0865
     92  CZ       -42.6070  -25.8030    7.4980 C.cat  76  ARG76       0.5346
     93  NH1      -43.4200  -24.9480    6.8970 N.pl3  76  ARG76       0.1354
     94  NH2      -41.9860  -25.4390    8.6140 N.pl3  76  ARG76       0.1354
     95  N        -39.1720  -18.5350   18.3440 N.3    89  THR89      -0.1218
     96  CA       -40.0390  -17.3620   18.2710 C.3    89  THR89       0.1862
     97  C        -41.5170  -17.7470   18.3120 C.2    89  THR89       0.2287
     98  O        -41.9130  -18.6970   17.6540 O.2    89  THR89      -0.2866
     99  CB       -39.7300  -16.5450   16.9610 C.3    89  THR89       0.1770
    100  OG1      -40.6590  -15.4650   16.8180 O.3    89  THR89      -0.2211
    101  CG2      -39.7810  -17.4080   15.6870 C.3    89  THR89       0.0375
    102  N        -45.6740  -17.0350   17.3990 N.3    91  MET91      -0.1245
    103  CA       -46.4600  -16.6120   16.2350 C.3    91  MET91       0.1570
    104  C        -47.4960  -15.6440   16.7120 C.2    91  MET91       0.2261
    105  O        -48.0210  -15.8150   17.8210 O.2    91  MET91      -0.2867
    106  CB       -47.1990  -17.8070   15.6140 C.3    91  MET91       0.0387
    107  CG       -46.2920  -18.9680   15.3100 C.3    91  MET91       0.0595
    108  SD       -45.2620  -18.5550   13.9090 S.3    91  MET91      -0.1393
    109  CE       -44.2910  -20.1040   13.8200 C.3    91  MET91       0.0692
    110  N        -48.7850  -17.2530    3.6400 N.3   139  GLN139     -0.1245
    111  CA       -47.9700  -17.8780    2.6080 C.3   139  GLN139      0.1566
    112  C        -48.3520  -19.3880    2.5750 C.2   139  GLN139      0.2260
    113  O        -48.5070  -20.0030    3.6290 O.2   139  GLN139     -0.2867
    114  CB       -46.4710  -17.7380    2.9360 C.3   139  GLN139      0.0367
    115  CG       -45.6030  -18.4110    1.8620 C.3   139  GLN139      0.0905
    116  CD       -44.1230  -18.3080    2.1150 C.2   139  GLN139      0.2608
    117  OE1      -43.6680  -18.0090    3.2320 O.2   139  GLN139     -0.2717
    118  NE2      -43.3400  -18.5500    1.0640 N.am  139  GLN139     -0.0878
    119  N        -46.9590  -23.1430    4.8420 N.3   142  THR142     -0.1203
    120  CA       -46.3780  -22.7180    6.1250 C.3   142  THR142      0.1994
    121  C        -47.1640  -23.2900    7.2810 C.2   142  THR142      0.2619
    122  O        -48.3090  -23.7190    7.1040 O.2   142  THR142     -0.2717
    123  CB       -46.3760  -21.1540    6.2180 C.3   142  THR142      0.1784
    124  OG1      -47.7470  -20.6970    6.1500 O.3   142  THR142     -0.2211
    125  CG2      -45.5050  -20.5010    5.1560 C.3   142  THR142      0.0376
    126  N        -46.5770  -23.2380    8.4950 N.am  143  SER143     -0.1937
    127  CA       -47.3240  -23.6310    9.6980 C.3   143  SER143      0.2055
    128  C        -48.4830  -22.6090    9.9000 C.2   143  SER143      0.2643
    129  O        -49.4670  -22.9330   10.5580 O.2   143  SER143     -0.2714
    130  CB       -46.4040  -23.6230   10.9250 C.3   143  SER143      0.2130
    131  OG       -45.7630  -22.3580   11.0240 O.3   143  SER143     -0.2179
    132  N        -48.3660  -21.3790    9.3190 N.am  144  HIS144     -0.1973
    133  CA       -49.4070  -20.3350    9.4180 C.3   144  HIS144      0.1656
    134  C        -50.6540  -20.8640    8.6940 C.2   144  HIS144      0.2291
    135  O        -51.7580  -20.8110    9.2410 O.2   144  HIS144     -0.2864
    136  CB       -48.9280  -19.0040    8.7850 C.3   144  HIS144      0.0771
    137  CG       -47.5160  -18.6250    9.1800 C.ar  144  HIS144      0.0820
    138  ND1      -46.6620  -18.0080    8.2840 N.ar  144  HIS144     -0.2267
    139  CD2      -46.8770  -18.7860   10.3610 C.ar  144  HIS144      0.1154
    140  CE1      -45.5200  -17.8250    8.9380 C.ar  144  HIS144      0.1986
    141  NE2      -45.5940  -18.2880   10.1870 N.ar  144  HIS144     -0.2212
    142  N        -44.4930  -15.3790   12.3840 N.3   181  SER181     -0.1217
    143  CA       -43.7840  -15.3060   13.6660 C.3   181  SER181      0.1889
    144  C        -43.4650  -13.8680   14.0450 C.2   181  SER181      0.2288
    145  O        -43.3910  -12.9800   13.1820 O.2   181  SER181     -0.2866
    146  CB       -42.4980  -16.1150   13.6330 C.3   181  SER181      0.2089
    147  OG       -41.5510  -15.4550   12.8100 O.3   181  SER181     -0.2183
    148  N        -40.5310  -12.4900   12.1640 N.3   184  PHE184     -0.1241
    149  CA       -40.8020  -11.8800   10.8500 C.3   184  PHE184      0.1605
    150  C        -41.5330  -10.5290   11.0420 C.2   184  PHE184      0.2264
    151  O        -41.1940   -9.5240   10.3890 O.2   184  PHE184     -0.2867
    152  CB       -41.6580  -12.8240    9.9810 C.3   184  PHE184      0.0534
    153  CG       -42.0610  -12.1760    8.6730 C.ar  184  PHE184     -0.0203
    154  CD1      -41.1480  -12.0760    7.6150 C.ar  184  PHE184     -0.0042
    155  CD2      -43.3210  -11.5870    8.5270 C.ar  184  PHE184     -0.0042
    156  CE1      -41.4910  -11.4000    6.4310 C.ar  184  PHE184     -0.0003
    157  CE2      -43.6780  -10.9390    7.3350 C.ar  184  PHE184     -0.0003
    158  CZ       -42.7570  -10.8390    6.2990 C.ar  184  PHE184     -0.0000
    159  N        -47.2160  -25.2980   15.1560 N.3   209  PHE209     -0.1241
    160  CA       -46.1400  -24.3440   14.8610 C.3   209  PHE209      0.1605
    161  C        -44.7510  -24.9850   15.0620 C.2   209  PHE209      0.2264
    162  O        -43.7530  -24.4650   14.5970 O.2   209  PHE209     -0.2867
    163  CB       -46.2890  -23.0690   15.6890 C.3   209  PHE209      0.0534
    164  CG       -47.5110  -22.2680   15.3340 C.ar  209  PHE209     -0.0203
    165  CD1      -47.7470  -21.8740   14.0190 C.ar  209  PHE209     -0.0042
    166  CD2      -48.3840  -21.8300   16.3180 C.ar  209  PHE209     -0.0042
    167  CE1      -48.8510  -21.0840   13.6990 C.ar  209  PHE209     -0.0003
    168  CE2      -49.4650  -21.0070   16.0060 C.ar  209  PHE209     -0.0003
    169  CZ       -49.6870  -20.6290   14.6950 C.ar  209  PHE209     -0.0000
    170  N        -39.3140  -24.5750   16.8880 N.3   212  GLY212     -0.1210
    171  CA       -38.2650  -23.6070   16.5720 C.3   212  GLY212      0.1956
    172  C        -37.7890  -23.7460   15.1400 C.2   212  GLY212      0.2611
    173  O        -38.2670  -24.6210   14.4230 O.2   212  GLY212     -0.2717
    174  N        -36.8740  -22.8750   14.7130 N.am  213  VAL213     -0.1979
    175  CA       -36.3590  -22.8810   13.3300 C.3   213  VAL213      0.1595
    176  C        -35.1540  -23.8230   13.2950 C.2   213  VAL213      0.2287
    177  O        -34.2760  -23.7200   14.1460 O.2   213  VAL213     -0.2864
    178  CB       -35.9390  -21.4440   12.8880 C.3   213  VAL213      0.0276
    179  CG1      -35.4420  -21.4370   11.4530 C.3   213  VAL213      0.0022
    180  CG2      -37.0990  -20.4570   13.0680 C.3   213  VAL213      0.0022
@<TRIPOS>BOND
     1    15    14    1
     2     4     3    2
     3    48    49    1
     4    50    49    1
     5    50    51    2
     6     3     2    1
     7    14    11    1
     8    49    52    1
     9     6     7    1
    10     6     5    1
    11     2     5    1
    12     2     1    1
    13     9     7   ar
    14    52    53    1
    15    10    11    1
    16    11    12    1
    17     7     8   ar
    18    53    54   ar
    19    53    55   ar
    20   118   116   am
    21    54    56   ar
    22    12    13    2
    23    12    16   am
    24   115   116    1
    25   115   114    1
    26   116   117    2
    27    55    58   ar
    28    55    57   ar
    29    16    17    1
    30    43    42    2
    31    46    45    2
    32    58    60   ar
    33    56    57   ar
    34   112   111    1
    35   112   113    2
    36   111   114    1
    37   111   110    1
    38    42    41    1
    39    57    59   ar
    40    44    45    1
    41    44    41    1
    42    45    47   am
    43    41    40    1
    44    66    63    1
    45    17    20    1
    46    17    18    1
    47    60    61   ar
    48    20    21    1
    49    59    61   ar
    50    18    19    2
    51    79    78    1
    52   119   120    1
    53    40    30   am
    54    63    62    1
    55    63    64    1
    56    22    21   ar
    57    22    24   ar
    58   125   123    1
    59    21    23   ar
    60    65    64    2
    61    64    67   am
    62    24    26   ar
    63    30    31    2
    64    30    29    1
    65   120   123    1
    66   120   121    1
    67   124   123    1
    68    78    77    1
    69   158   156   ar
    70   158   157   ar
    71   156   154   ar
    72    23    25   ar
    73    93    92    1
    74    91    92    2
    75    91    90    1
    76   122   121    2
    77    67    68    1
    78   121   126   am
    79    26    25   ar
    80    26    27    1
    81   157   155   ar
    82    77    76    1
    83    28    29    1
    84    29    32    1
    85    89    90    1
    86    89    88    1
    87    76    73    1
    88    92    94    1
    89    32    33    1
    90   154   153   ar
    91    87    86    2
    92    71    68    1
    93    85    88    1
    94    85    86    1
    95    85    84    1
    96    68    69    1
    97   138   140   ar
    98   138   137   ar
    99    72    73    1
   100    72    69   am
   101    73    74    1
   102    69    70    2
   103   126   127    1
   104   155   153   ar
   105   153   152    1
   106   134   135    2
   107   134   133    1
   108   136   137    1
   109   136   133    1
   110    33    35   ar
   111    33    34   ar
   112   140   141   ar
   113   137   139   ar
   114    35    37   ar
   115   132   133    1
   116   132   128   am
   117   127   128    1
   118   127   130    1
   119    34    36   ar
   120    74    80   am
   121    74    75    2
   122   128   129    2
   123   152   149    1
   124   141   139   ar
   125    80    81    1
   126   151   150    2
   127    37    38   ar
   128    83    82    2
   129   149   150    1
   130   149   148    1
   131   130   131    1
   132    36    38   ar
   133    38    39    1
   134   179   178    1
   135    81    82    1
   136   142   143    1
   137   147   146    1
   138   178   180    1
   139   178   175    1
   140   145   144    2
   141   176   175    1
   142   176   177    2
   143   175   174    1
   144   146   143    1
   145   143   144    1
   146   167   165   ar
   147   167   169   ar
   148   109   108    1
   149   108   107    1
   150   165   164   ar
   151   173   172    2
   152   162   161    2
   153   169   168   ar
   154   174   172   am
   155   160   161    1
   156   160   159    1
   157   160   163    1
   158   172   171    1
   159   107   106    1
   160   164   163    1
   161   164   166   ar
   162   106   103    1
   163   101    99    1
   164   168   166   ar
   165   103   104    1
   166   103   102    1
   167   171   170    1
   168   104   105    2
   169   100    99    1
   170    99    96    1
   171    98    97    2
   172    96    97    1
   173    96    95    1
