@<TRIPOS>MOLECULE
tmp/5ow0A00.pdb
 148 142 0 0 0
SMALL
GASTEIGER

@<TRIPOS>ATOM
      1  N         41.7850   20.1910   79.5650 N.3     5  LEU5       -0.1231
      2  CA        40.3500   20.3610   79.5760 C.3     5  LEU5        0.1693
      3  C         40.0120   21.6420   78.8240 C.2     5  LEU5        0.2592
      4  O         40.4390   22.7030   79.2330 O.2     5  LEU5       -0.2718
      5  CB        39.8270   20.4450   80.9960 C.3     5  LEU5        0.0284
      6  CG        40.2530   19.3440   81.9920 C.3     5  LEU5        0.0019
      7  CD1       39.7430   19.5840   83.4190 C.3     5  LEU5        0.0001
      8  CD2       39.8080   18.0050   81.4340 C.3     5  LEU5        0.0001
      9  N         39.2670   21.5340   77.7410 N.am    6  ALA6       -0.1966
     10  CA        38.9400   22.7200   76.9500 C.3     6  ALA6        0.1728
     11  C         37.4460   22.7810   76.7250 C.2     6  ALA6        0.2616
     12  O         36.8160   21.7830   76.3850 O.2     6  ALA6       -0.2715
     13  CB        39.6860   22.7390   75.6240 C.3     6  ALA6        0.0334
     14  N         36.9200   24.0000   76.8510 N.am    7  LYS7       -0.1977
     15  CA        35.4940   24.2480   76.7320 C.3     7  LYS7        0.1596
     16  C         35.2360   25.3480   75.7090 C.2     7  LYS7        0.2287
     17  O         35.8100   26.4450   75.7950 O.2     7  LYS7       -0.2864
     18  CB        34.9230   24.6390   78.0820 C.3     7  LYS7        0.0298
     19  CG        33.4250   24.8830   78.0490 C.3     7  LYS7        0.0038
     20  CD        32.9960   25.6690   79.3010 C.3     7  LYS7        0.0206
     21  CE        31.5040   25.7510   79.3910 C.3     7  LYS7        0.1093
     22  NZ        31.1570   26.5730   80.5890 N.3     7  LYS7       -0.1314
     23  N         41.4640   28.5140   78.4440 N.3    37  ASP37      -0.1239
     24  CA        41.5210   27.1510   77.9690 C.3    37  ASP37       0.1674
     25  C         42.6370   27.0620   76.9190 C.2    37  ASP37       0.2266
     26  O         43.3830   26.0990   76.8780 O.2    37  ASP37      -0.2867
     27  CB        40.1910   26.7360   77.3390 C.3    37  ASP37       0.1410
     28  CG        39.0200   26.8220   78.3070 C.2    37  ASP37       0.3668
     29  OD1       38.8220   27.8760   78.9300 O.co2  37  ASP37      -0.2456
     30  OD2       38.2840   25.8340   78.4240 O.co2  37  ASP37      -0.2456
     31  N         40.2060   17.0050   76.3620 N.3    58  VAL58      -0.1231
     32  CA        38.9770   16.4090   76.8250 C.3    58  VAL58       0.1692
     33  C         37.9470   17.5070   77.0630 C.2    58  VAL58       0.2593
     34  O         38.2470   18.5410   77.6580 O.2    58  VAL58      -0.2718
     35  CB        39.2110   15.5470   78.1410 C.3    58  VAL58       0.0266
     36  CG1       37.8790   15.0070   78.7040 C.3    58  VAL58       0.0020
     37  CG2       40.1540   14.4080   77.8800 C.3    58  VAL58       0.0020
     38  N         36.7230   17.2980   76.5840 N.am   59  SER59      -0.1938
     39  CA        35.6870   18.3070   76.6670 C.3    59  SER59       0.2055
     40  C         34.3450   17.6570   76.9490 C.2    59  SER59       0.2643
     41  O         34.0900   16.5070   76.5490 O.2    59  SER59      -0.2714
     42  CB        35.6410   19.1460   75.3890 C.3    59  SER59       0.2130
     43  OG        34.7670   20.2870   75.4700 O.3    59  SER59      -0.2179
     44  N         33.4920   18.4420   77.5870 N.am   60  TYR60      -0.1973
     45  CA        32.1080   18.0960   77.8170 C.3    60  TYR60       0.1639
     46  C         31.2600   19.1530   77.1950 C.2    60  TYR60       0.2290
     47  O         31.3560   20.3330   77.5500 O.2    60  TYR60      -0.2864
     48  CB        31.8330   17.9620   79.3100 C.3    60  TYR60       0.0560
     49  CG        30.3470   17.8560   79.6760 C.ar   60  TYR60      -0.0198
     50  CD1       29.6760   16.6450   79.6250 C.ar   60  TYR60      -0.0009
     51  CD2       29.6350   18.9560   80.1130 C.ar   60  TYR60      -0.0009
     52  CE1       28.3310   16.5360   79.9540 C.ar   60  TYR60       0.0417
     53  CE2       28.2440   18.8500   80.4720 C.ar   60  TYR60       0.0417
     54  CZ        27.6110   17.6530   80.3630 C.ar   60  TYR60       0.1957
     55  OH        26.2740   17.6010   80.6770 O.3    60  TYR60      -0.2866
     56  N         24.8950   20.2500   80.3870 N.3    86  SER86      -0.1217
     57  CA        24.8450   20.7930   81.7420 C.3    86  SER86       0.1889
     58  C         25.8630   21.9040   82.0020 C.2    86  SER86       0.2288
     59  O         26.9990   21.8210   81.4960 O.2    86  SER86      -0.2866
     60  CB        25.0810   19.7010   82.7430 C.3    86  SER86       0.2089
     61  OG        24.8950   20.1960   84.0860 O.3    86  SER86      -0.2183
     62  N         29.6100   18.3460   85.1220 N.3    92  ILE92      -0.1245
     63  CA        30.7100   18.5320   84.1860 C.3    92  ILE92       0.1561
     64  C         31.9220   17.7560   84.6360 C.2    92  ILE92       0.2260
     65  O         32.4630   16.9320   83.8870 O.2    92  ILE92      -0.2867
     66  CB        31.1050   20.0210   84.0580 C.3    92  ILE92       0.0252
     67  CG1       29.9620   20.8360   83.3970 C.3    92  ILE92       0.0019
     68  CG2       32.3790   20.1690   83.2450 C.3    92  ILE92       0.0019
     69  CD1       30.0650   22.3650   83.6270 C.3    92  ILE92       0.0001
     70  N         33.8610   14.6880   82.8450 N.3    96  LEU96      -0.1245
     71  CA        35.2810   14.7830   82.5020 C.3    96  LEU96       0.1561
     72  C         36.0960   13.6560   83.1680 C.2    96  LEU96       0.2260
     73  O         36.9890   13.0770   82.5580 O.2    96  LEU96      -0.2867
     74  CB        35.8280   16.1440   82.9060 C.3    96  LEU96       0.0270
     75  CG        35.2220   17.2960   82.1090 C.3    96  LEU96       0.0019
     76  CD1       35.7890   18.5820   82.7270 C.3    96  LEU96       0.0001
     77  CD2       35.4370   17.2590   80.6160 C.3    96  LEU96       0.0001
     78  N         43.9160   22.8660   82.8280 N.3   111  ALA111     -0.1231
     79  CA        42.6000   23.4580   82.6260 C.3   111  ALA111      0.1694
     80  C         42.8080   24.9770   82.6370 C.2   111  ALA111      0.2593
     81  O         43.8320   25.4560   83.1510 O.2   111  ALA111     -0.2718
     82  CB        41.6320   23.0580   83.7170 C.3   111  ALA111      0.0304
     83  N         41.8380   25.7340   82.1290 N.am  112  GLY112     -0.1942
     84  CA        41.9030   27.2050   82.2710 C.3   112  GLY112      0.2014
     85  C         41.6160   27.6800   83.6930 C.2   112  GLY112      0.2639
     86  O         40.9250   27.0060   84.4460 O.2   112  GLY112     -0.2714
     87  N         42.1670   28.8380   84.0520 N.am  113  ARG113     -0.1963
     88  CA        41.8990   29.4460   85.3540 C.3   113  ARG113      0.1729
     89  C         40.4040   29.5640   85.6030 C.2   113  ARG113      0.2616
     90  O         39.9360   29.2730   86.6910 O.2   113  ARG113     -0.2715
     91  CB        42.5840   30.8320   85.4000 C.3   113  ARG113      0.0348
     92  CG        42.1910   31.6900   86.4940 C.3   113  ARG113      0.0492
     93  CD        43.0560   32.9010   86.4720 C.3   113  ARG113      0.2205
     94  NE        42.7780   33.6970   87.6390 N.pl3 113  ARG113     -0.0865
     95  CZ        43.5210   34.7010   88.0280 C.cat 113  ARG113      0.5346
     96  NH1       44.6040   35.0280   87.3360 N.pl3 113  ARG113      0.1354
     97  NH2       43.1800   35.3740   89.1220 N.pl3 113  ARG113      0.1354
     98  N         39.6980   30.0000   84.5780 N.am  114  GLN114     -0.1963
     99  CA        38.2590   30.0690   84.6080 C.3   114  GLN114      0.1733
    100  C         37.7380   30.0060   83.1820 C.2   114  GLN114      0.2617
    101  O         38.4040   30.4260   82.2540 O.2   114  GLN114     -0.2715
    102  CB        37.7600   31.3110   85.3420 C.3   114  GLN114      0.0408
    103  CG        38.0450   32.6320   84.6780 C.3   114  GLN114      0.0908
    104  CD        37.5540   33.8050   85.5110 C.2   114  GLN114      0.2608
    105  OE1       37.0190   34.7580   84.9810 O.2   114  GLN114     -0.2717
    106  NE2       37.7280   33.7250   86.8170 N.am  114  GLN114     -0.0878
    107  N         36.5400   29.4810   83.0200 N.am  115  SER115     -0.1950
    108  CA        35.9290   29.4160   81.7160 C.3   115  SER115      0.1924
    109  C         35.5390   30.7870   81.2500 C.2   115  SER115      0.2314
    110  O         35.3950   31.7350   82.0370 O.2   115  SER115     -0.2863
    111  CB        34.6790   28.4980   81.6920 C.3   115  SER115      0.2116
    112  OG        33.6580   28.9840   82.5260 O.3   115  SER115     -0.2180
    113  N         34.0770   31.1830   86.6400 N.3   119  ARG119     -0.1231
    114  CA        33.9900   30.6980   88.0320 C.3   119  ARG119      0.1694
    115  C         35.1720   29.9720   88.6240 C.2   119  ARG119      0.2593
    116  O         35.3680   30.0560   89.8250 O.2   119  ARG119     -0.2718
    117  CB        32.7560   29.7960   88.1800 C.3   119  ARG119      0.0321
    118  CG        32.7000   28.6300   87.2940 C.3   119  ARG119      0.0489
    119  CD        31.3500   27.9070   87.3840 C.3   119  ARG119      0.2205
    120  NE        31.2840   26.9140   86.3080 N.pl3 119  ARG119     -0.0865
    121  CZ        30.1900   26.2500   85.9550 C.cat 119  ARG119      0.5346
    122  NH1       29.0690   26.4110   86.6360 N.pl3 119  ARG119      0.1354
    123  NH2       30.2130   25.4250   84.9080 N.pl3 119  ARG119      0.1354
    124  N         36.0010   29.3440   87.8190 N.am  120  GLY120     -0.1942
    125  CA        37.1630   28.6900   88.3870 C.3   120  GLY120      0.2014
    126  C         36.7730   27.6300   89.4320 C.2   120  GLY120      0.2639
    127  O         37.4160   27.5670   90.5200 O.2   120  GLY120     -0.2714
    128  N         35.8130   26.7700   89.0960 N.am  121  VAL121     -0.1963
    129  CA        35.3220   25.7170   89.9940 C.3   121  VAL121      0.1727
    130  C         35.6000   24.3160   89.4420 C.2   121  VAL121      0.2616
    131  O         35.9420   23.3810   90.1930 O.2   121  VAL121     -0.2715
    132  CB        33.7850   25.8640   90.2380 C.3   121  VAL121      0.0290
    133  CG1       33.2260   24.6540   90.9660 C.3   121  VAL121      0.0023
    134  CG2       33.5440   27.0590   91.0760 C.3   121  VAL121      0.0023
    135  N         35.4160   24.1370   88.1490 N.am  122  VAL122     -0.1964
    136  CA        35.4220   22.7920   87.5940 C.3   122  VAL122      0.1712
    137  C         36.7520   22.0560   87.8130 C.2   122  VAL122      0.2458
    138  O         36.7360   20.8850   88.1880 O.2   122  VAL122     -0.2730
    139  CB        35.0420   22.7990   86.0680 C.3   122  VAL122      0.0289
    140  CG1       35.2950   21.4520   85.4060 C.3   122  VAL122      0.0023
    141  CG2       33.5580   23.1170   85.9170 C.3   122  VAL122      0.0023
    142  N         37.8940   22.7380   87.6590 N.am  123  PRO123     -0.2727
    143  CA        39.1700   22.0410   87.8460 C.3   123  PRO123      0.1402
    144  C         39.3870   21.5610   89.2930 C.2   123  PRO123      0.2269
    145  O         39.7930   20.3900   89.4500 O.2   123  PRO123     -0.2865
    146  CB        40.1910   23.0960   87.4320 C.3   123  PRO123      0.0296
    147  CG        39.4410   23.9870   86.4940 C.3   123  PRO123      0.0237
    148  CD        38.1100   24.0960   87.1320 C.3   123  PRO123      0.0939
@<TRIPOS>BOND
     1    42    43    1
     2    42    39    1
     3    13    10    1
     4    16    17    2
     5    16    15    1
     6    31    32    1
     7    12    11    2
     8    41    40    2
     9    38    39    1
    10    38    33   am
    11    39    40    1
    12    11    14   am
    13    11    10    1
    14    15    14    1
    15    15    18    1
    16    32    33    1
    17    32    35    1
    18    26    25    2
    19    25    24    1
    20    40    44   am
    21    10     9    1
    22    33    34    2
    23    46    47    2
    24    46    45    1
    25    27    24    1
    26    27    28    1
    27    44    45    1
    28     9     3   am
    29    45    48    1
    30    37    35    1
    31    24    23    1
    32    19    18    1
    33    19    20    1
    34    35    36    1
    35    28    30   ar
    36    28    29   ar
    37     3     4    2
    38     3     2    1
    39    20    21    1
    40    48    49    1
    41    21    22    1
    42     1     2    1
    43     2     5    1
    44    50    49   ar
    45    50    52   ar
    46    49    51   ar
    47    52    54   ar
    48    51    53   ar
    49    54    53   ar
    50    54    55    1
    51    56    57    1
    52    77    75    1
    53     5     6    1
    54   109   108    1
    55   109   110    2
    56     8     6    1
    57    59    58    2
    58   111   108    1
    59   111   112    1
    60   108   107    1
    61    57    58    1
    62    57    60    1
    63     6     7    1
    64    75    76    1
    65    75    74    1
    66    83    84    1
    67    83    80   am
    68   101   100    2
    69    84    85    1
    70    71    70    1
    71    71    74    1
    72    71    72    1
    73    73    72    2
    74    79    80    1
    75    79    78    1
    76    79    82    1
    77    80    81    2
    78    60    61    1
    79   107   100   am
    80   100    99    1
    81    68    66    1
    82    67    69    1
    83    67    66    1
    84    85    87   am
    85    85    86    2
    86    65    64    2
    87    87    88    1
    88    66    63    1
    89    63    64    1
    90    63    62    1
    91    98    99    1
    92    98    89   am
    93    99   102    1
    94   103   102    1
    95   103   104    1
    96   123   121    1
    97   105   104    2
    98    88    91    1
    99    88    89    1
   100    91    92    1
   101   140   139    1
   102   104   106   am
   103    89    90    2
   104   141   139    1
   105   121   120    2
   106   121   122    1
   107   139   136    1
   108   120   119    1
   109    93    92    1
   110    93    94    1
   111   147   148    1
   112   147   146    1
   113   113   114    1
   114   148   142    1
   115   118   119    1
   116   118   117    1
   117    96    95    1
   118   146   143    1
   119   136   137    1
   120   136   135    1
   121    94    95    2
   122   142   137   am
   123   142   143    1
   124   137   138    2
   125   124   125    1
   126   124   115   am
   127   143   144    1
   128    95    97    1
   129   114   117    1
   130   114   115    1
   131   135   130   am
   132   125   126    1
   133   115   116    2
   134   128   126   am
   135   128   129    1
   136   144   145    2
   137   126   127    2
   138   130   129    1
   139   130   131    2
   140   129   132    1
   141   132   133    1
   142   132   134    1
