@<TRIPOS>MOLECULE
tmp/5ow1A00.pdb
 108 103 0 0 0
SMALL
GASTEIGER

@<TRIPOS>ATOM
      1  N         22.9180  -18.6050   -9.5310 N.3    37  PHE37      -0.1241
      2  CA        21.7280  -18.6400   -8.6840 C.3    37  PHE37       0.1605
      3  C         22.1340  -18.7000   -7.2010 C.2    37  PHE37       0.2264
      4  O         23.2190  -19.1920   -6.8540 O.2    37  PHE37      -0.2867
      5  CB        20.8250  -19.8230   -9.0680 C.3    37  PHE37       0.0534
      6  CG        19.9390  -19.6050  -10.2750 C.ar   37  PHE37      -0.0203
      7  CD1       19.2240  -18.4180  -10.4320 C.ar   37  PHE37      -0.0042
      8  CD2       19.7300  -20.6240  -11.1950 C.ar   37  PHE37      -0.0042
      9  CE1       18.3670  -18.2350  -11.5160 C.ar   37  PHE37      -0.0003
     10  CE2       18.8760  -20.4360  -12.2850 C.ar   37  PHE37      -0.0003
     11  CZ        18.2010  -19.2420  -12.4350 C.ar   37  PHE37      -0.0000
     12  N          8.8520  -17.3370   -6.8130 N.3    54  TYR54      -0.1241
     13  CA         9.5450  -18.6140   -7.0370 C.3    54  TYR54       0.1605
     14  C         10.5910  -18.8510   -5.9460 C.2    54  TYR54       0.2264
     15  O         11.4210  -17.9760   -5.6960 O.2    54  TYR54      -0.2867
     16  CB        10.1910  -18.6330   -8.4420 C.3    54  TYR54       0.0534
     17  CG         9.2390  -18.2760   -9.5660 C.ar   54  TYR54      -0.0201
     18  CD1        8.3800  -19.2320  -10.1150 C.ar   54  TYR54      -0.0009
     19  CD2        9.1990  -16.9880  -10.0880 C.ar   54  TYR54      -0.0009
     20  CE1        7.4780  -18.8980  -11.1290 C.ar   54  TYR54       0.0417
     21  CE2        8.3130  -16.6480  -11.1070 C.ar   54  TYR54       0.0417
     22  CZ         7.4450  -17.6010  -11.6150 C.ar   54  TYR54       0.1957
     23  OH         6.5900  -17.2450  -12.6270 O.3    54  TYR54      -0.2866
     24  N         13.2870  -20.6870   -5.9040 N.3    56  THR56      -0.1203
     25  CA        14.6870  -20.8260   -6.3510 C.3    56  THR56       0.1994
     26  C         15.2520  -19.5960   -7.0580 C.2    56  THR56       0.2617
     27  O         16.4260  -19.6080   -7.4540 O.2    56  THR56      -0.2717
     28  CB        14.8560  -22.0770   -7.2210 C.3    56  THR56       0.1784
     29  OG1       14.1030  -21.9150   -8.4230 O.3    56  THR56      -0.2211
     30  CG2       14.4720  -23.3630   -6.4890 C.3    56  THR56       0.0376
     31  N         14.4220  -18.5440   -7.2450 N.am   57  ILE57      -0.1979
     32  CA        14.8510  -17.3080   -7.8940 C.3    57  ILE57       0.1595
     33  C         14.9070  -16.2780   -6.7580 C.2    57  ILE57       0.2287
     34  O         13.8810  -15.6830   -6.3950 O.2    57  ILE57      -0.2864
     35  CB        13.9130  -16.8650   -9.0650 C.3    57  ILE57       0.0276
     36  CG1       13.5670  -18.0410  -10.0550 C.3    57  ILE57       0.0022
     37  CG2       14.4950  -15.6340   -9.8010 C.3    57  ILE57       0.0022
     38  CD1       14.7290  -18.6620  -10.8860 C.3    57  ILE57       0.0001
     39  N          5.9010   -8.6140  -25.8740 N.3   182  TRP182     -0.1241
     40  CA         6.9250   -9.6340  -25.6490 C.3   182  TRP182      0.1605
     41  C          6.5400  -10.8510  -26.4820 C.2   182  TRP182      0.2264
     42  O          5.4190  -11.3380  -26.3500 O.2   182  TRP182     -0.2867
     43  CB         7.0920  -10.0070  -24.1750 C.3   182  TRP182      0.0550
     44  CG         8.2690  -10.9200  -23.9760 C.ar  182  TRP182      0.0003
     45  CD1        8.2410  -12.2760  -23.8420 C.ar  182  TRP182      0.0946
     46  CD2        9.6590  -10.5480  -24.0240 C.ar  182  TRP182      0.0152
     47  NE1        9.5240  -12.7660  -23.7050 N.ar  182  TRP182     -0.2442
     48  CE2       10.4160  -11.7320  -23.8650 C.ar  182  TRP182      0.0810
     49  CE3       10.3390   -9.3220  -24.1560 C.ar  182  TRP182      0.0012
     50  CZ2       11.8150  -11.7250  -23.8140 C.ar  182  TRP182      0.0191
     51  CZ3       11.7260   -9.3210  -24.1460 C.ar  182  TRP182      0.0001
     52  CH2       12.4500  -10.5100  -23.9660 C.ar  182  TRP182      0.0015
     53  N         10.9610  -15.7750  -30.4380 N.3   186  LYS186     -0.1245
     54  CA        11.9740  -14.7210  -30.4700 C.3   186  LYS186      0.1561
     55  C         12.6600  -14.5910  -31.8300 C.2   186  LYS186      0.2260
     56  O         13.8870  -14.5320  -31.9160 O.2   186  LYS186     -0.2867
     57  CB        12.9650  -14.9590  -29.3200 C.3   186  LYS186      0.0271
     58  CG        12.4260  -14.4940  -27.9510 C.3   186  LYS186      0.0035
     59  CD        11.4820  -15.5090  -27.3360 C.3   186  LYS186      0.0206
     60  CE        11.0010  -15.0870  -25.9880 C.3   186  LYS186      0.1093
     61  NZ         9.7830  -15.8450  -25.6300 N.3   186  LYS186     -0.1314
     62  N          7.7970  -11.5630  -14.7490 N.3   220  SER220     -0.1202
     63  CA         7.3480  -12.5110  -13.7140 C.3   220  SER220      0.2020
     64  C          8.4160  -12.8550  -12.6510 C.2   220  SER220      0.2618
     65  O          8.1970  -12.5580  -11.4820 O.2   220  SER220     -0.2717
     66  CB         6.7700  -13.7750  -14.3380 C.3   220  SER220      0.2103
     67  OG         6.0490  -14.4980  -13.3500 O.3   220  SER220     -0.2182
     68  N          9.5660  -13.4300  -13.0480 N.am  221  ALA221     -0.1979
     69  CA        10.6390  -13.7540  -12.1000 C.3   221  ALA221      0.1597
     70  C         11.6620  -12.6140  -11.9350 C.2   221  ALA221      0.2287
     71  O         12.4350  -12.6210  -10.9850 O.2   221  ALA221     -0.2864
     72  CB        11.3380  -15.0500  -12.5110 C.3   221  ALA221      0.0319
     73  N         13.0570  -11.7370  -19.1980 N.3   225  ARG225     -0.1245
     74  CA        12.6880  -10.5860  -20.0130 C.3   225  ARG225      0.1563
     75  C         13.4230   -9.3540  -19.4810 C.2   225  ARG225      0.2260
     76  O         13.8930   -8.5180  -20.2590 O.2   225  ARG225     -0.2867
     77  CB        11.1710  -10.3710  -19.9490 C.3   225  ARG225      0.0307
     78  CG        10.4030  -11.6310  -20.3020 C.3   225  ARG225      0.0489
     79  CD         8.9310  -11.3890  -20.3260 C.3   225  ARG225      0.2205
     80  NE         8.2400  -12.6550  -20.5040 N.pl3 225  ARG225     -0.0865
     81  CZ         6.9350  -12.7810  -20.6650 C.cat 225  ARG225      0.5346
     82  NH1        6.1570  -11.7070  -20.6990 N.pl3 225  ARG225      0.1354
     83  NH2        6.3960  -13.9800  -20.8230 N.pl3 225  ARG225      0.1354
     84  N         17.3530  -15.7680  -19.1030 N.3   263  GLN263     -0.1231
     85  CA        16.9470  -17.0830  -18.6510 C.3   263  GLN263      0.1698
     86  C         17.1080  -18.2120  -19.6670 C.2   263  GLN263      0.2592
     87  O         17.4130  -19.3280  -19.2710 O.2   263  GLN263     -0.2718
     88  CB        15.4630  -16.9700  -18.2420 C.3   263  GLN263      0.0381
     89  CG        15.0350  -17.8060  -17.0630 C.3   263  GLN263      0.0905
     90  CD        13.6400  -17.4420  -16.5760 C.2   263  GLN263      0.2608
     91  OE1       12.9580  -16.5190  -17.0700 O.2   263  GLN263     -0.2717
     92  NE2       13.1780  -18.1760  -15.6020 N.am  263  GLN263     -0.0878
     93  N         16.8230  -17.9560  -20.9500 N.am  264  THR264     -0.1953
     94  CA        16.8190  -19.0100  -21.9650 C.3   264  THR264      0.1897
     95  C         17.7560  -18.6750  -23.1170 C.2   264  THR264      0.2313
     96  O         18.1820  -17.5240  -23.2680 O.2   264  THR264     -0.2863
     97  CB        15.3870  -19.2130  -22.5260 C.3   264  THR264      0.1794
     98  OG1       15.0450  -18.0460  -23.2810 O.3   264  THR264     -0.2208
     99  CG2       14.3190  -19.4440  -21.4300 C.3   264  THR264      0.0378
    100  N         16.0350  -16.3050  -25.5630 N.3   266  GLN266     -0.1245
    101  CA        16.1730  -14.9190  -25.0980 C.3   266  GLN266      0.1566
    102  C         17.5700  -14.3740  -25.4200 C.2   266  GLN266      0.2260
    103  O         17.6920  -13.2470  -25.8800 O.2   266  GLN266     -0.2867
    104  CB        15.8730  -14.7980  -23.6130 C.3   266  GLN266      0.0367
    105  CG        14.3750  -14.8100  -23.3060 C.3   266  GLN266      0.0905
    106  CD        14.1780  -14.9070  -21.8190 C.2   266  GLN266      0.2608
    107  OE1       15.1430  -14.9530  -21.0730 O.2   266  GLN266     -0.2717
    108  NE2       12.9320  -14.9670  -21.3500 N.am  266  GLN266     -0.0878
@<TRIPOS>BOND
     1    56    55    2
     2    55    54    1
     3    54    53    1
     4    54    57    1
     5    57    58    1
     6    58    59    1
     7    59    60    1
     8    41    42    2
     9    41    40    1
    10    60    61    1
    11   103   102    2
    12    39    40    1
    13    40    43    1
    14   100   101    1
    15   102   101    1
    16   101   104    1
    17    43    44    1
    18    49    51   ar
    19    49    46   ar
    20    51    52   ar
    21    46    44   ar
    22    46    48   ar
    23    44    45   ar
    24    52    50   ar
    25    48    50   ar
    26    48    47   ar
    27    45    47   ar
    28   104   105    1
    29   105   106    1
    30    98    97    1
    31    96    95    2
    32    95    94    1
    33    97    94    1
    34    97    99    1
    35    94    93    1
    36   106   108   am
    37   106   107    2
    38    93    86   am
    39    83    81    1
    40    82    81    1
    41    81    80    2
    42    80    79    1
    43    79    78    1
    44    78    77    1
    45    76    75    2
    46    74    77    1
    47    74    75    1
    48    74    73    1
    49    86    87    2
    50    86    85    1
    51    84    85    1
    52    85    88    1
    53    88    89    1
    54    91    90    2
    55    89    90    1
    56    90    92   am
    57    62    63    1
    58    66    63    1
    59    66    67    1
    60    63    64    1
    61    68    64   am
    62    68    69    1
    63    64    65    2
    64    23    22    1
    65    72    69    1
    66    11    10   ar
    67    11     9   ar
    68    10     8   ar
    69    69    70    1
    70    70    71    2
    71    22    20   ar
    72    22    21   ar
    73     9     7   ar
    74     8     6   ar
    75    20    18   ar
    76    21    19   ar
    77    38    36    1
    78     7     6   ar
    79     6     5    1
    80    18    17   ar
    81    19    17   ar
    82    36    35    1
    83    37    35    1
    84    17    16    1
    85     1     2    1
    86     5     2    1
    87    35    32    1
    88     2     3    1
    89    16    13    1
    90    29    28    1
    91    32    31    1
    92    32    33    1
    93    27    26    2
    94    31    26   am
    95    28    30    1
    96    28    25    1
    97     3     4    2
    98    26    25    1
    99    13    12    1
   100    13    14    1
   101    33    34    2
   102    25    24    1
   103    14    15    2
