@<TRIPOS>MOLECULE
tmp/5ow8A00.pdb
 149 143 0 0 0
SMALL
GASTEIGER

@<TRIPOS>ATOM
      1  N         -2.5170    1.4870   -6.7290 N.3     2  ILE2       -0.1245
      2  CA        -2.1970    0.1730   -6.1420 C.3     2  ILE2        0.1561
      3  C         -1.2040   -0.6000   -7.0210 C.2     2  ILE2        0.2260
      4  O         -0.4010   -1.3870   -6.5200 O.2     2  ILE2       -0.2867
      5  CB        -3.4710   -0.6960   -5.9190 C.3     2  ILE2        0.0252
      6  CG1       -4.4800    0.0060   -5.0040 C.3     2  ILE2        0.0019
      7  CG2       -3.1440   -2.0340   -5.2640 C.3     2  ILE2        0.0019
      8  CD1       -3.8620    0.6350   -3.7750 C.3     2  ILE2        0.0001
      9  N          2.0940    0.8170   -6.1740 N.3     5  LEU5       -0.1231
     10  CA         2.3820    0.4350   -4.7850 C.3     5  LEU5        0.1693
     11  C          3.0240   -0.9480   -4.7380 C.2     5  LEU5        0.2591
     12  O          4.0990   -1.1220   -4.1660 O.2     5  LEU5       -0.2718
     13  CB         1.1110    0.4540   -3.9260 C.3     5  LEU5        0.0284
     14  CG         1.2160   -0.0620   -2.4830 C.3     5  LEU5        0.0019
     15  CD1        2.3500    0.6160   -1.7250 C.3     5  LEU5        0.0001
     16  CD2       -0.1070    0.1300   -1.7580 C.3     5  LEU5        0.0001
     17  N          2.3530   -1.9150   -5.3560 N.am    6  ALA6       -0.1980
     18  CA         2.8590   -3.2850   -5.4790 C.3     6  ALA6        0.1597
     19  C          4.2150   -3.3340   -6.1870 C.2     6  ALA6        0.2287
     20  O          5.1520   -3.9820   -5.7120 O.2     6  ALA6       -0.2864
     21  CB         1.8550   -4.1390   -6.2330 C.3     6  ALA6        0.0319
     22  N          7.1580   -1.6500   -4.1070 N.3     9  VAL9       -0.1245
     23  CA         7.4860   -2.5400   -2.9870 C.3     9  VAL9        0.1561
     24  C          8.2560   -3.7750   -3.4710 C.2     9  VAL9        0.2260
     25  O          9.2310   -4.1790   -2.8450 O.2     9  VAL9       -0.2867
     26  CB         6.2150   -2.9200   -2.1850 C.3     9  VAL9        0.0252
     27  CG1        6.4670   -4.0560   -1.1970 C.3     9  VAL9        0.0019
     28  CG2        5.7050   -1.7030   -1.4280 C.3     9  VAL9        0.0019
     29  N          4.7050   -8.5150   -2.6900 N.3    17  PRO17      -0.2116
     30  CA         3.7760   -7.5440   -2.0770 C.3    17  PRO17       0.1372
     31  C          2.5080   -8.1670   -1.4540 C.2    17  PRO17       0.2244
     32  O          1.8550   -7.5220   -0.6270 O.2    17  PRO17      -0.2868
     33  CB         3.4200   -6.6000   -3.2380 C.3    17  PRO17       0.0268
     34  CG         3.7650   -7.3440   -4.4750 C.3    17  PRO17       0.0207
     35  CD         4.9070   -8.2440   -4.1260 C.3    17  PRO17       0.0892
     36  N          2.1520   -8.1240    2.4080 N.3    20  TYR20      -0.1227
     37  CA         1.6120   -6.9580    3.1270 C.3    20  TYR20       0.1736
     38  C          0.1210   -6.6750    2.8830 C.2    20  TYR20       0.2595
     39  O         -0.3760   -5.6190    3.2720 O.2    20  TYR20      -0.2718
     40  CB         2.4180   -5.7100    2.7470 C.3    20  TYR20       0.0548
     41  CG         3.9170   -5.9040    2.7870 C.ar   20  TYR20      -0.0200
     42  CD1        4.5860   -6.0500    4.0020 C.ar   20  TYR20      -0.0009
     43  CD2        4.6710   -5.9340    1.6110 C.ar   20  TYR20      -0.0009
     44  CE1        5.9620   -6.2290    4.0470 C.ar   20  TYR20       0.0417
     45  CE2        6.0490   -6.1080    1.6470 C.ar   20  TYR20       0.0417
     46  CZ         6.6890   -6.2530    2.8670 C.ar   20  TYR20       0.1957
     47  OH         8.0530   -6.4220    2.9140 O.3    20  TYR20      -0.2866
     48  N         -0.5970   -7.5990    2.2510 N.am   21  MET21      -0.1979
     49  CA        -2.0160   -7.3610    1.9290 C.3    21  MET21       0.1605
     50  C         -2.9450   -7.4540    3.1500 C.2    21  MET21       0.2287
     51  O         -3.9610   -6.7620    3.1970 O.2    21  MET21      -0.2864
     52  CB        -2.4820   -8.2570    0.7740 C.3    21  MET21       0.0413
     53  CG        -2.1310   -7.6580   -0.5850 C.3    21  MET21       0.0598
     54  SD        -2.3240   -8.7740   -1.9880 S.3    21  MET21      -0.1393
     55  CE        -4.0840   -9.1030   -1.9200 C.3    21  MET21       0.0692
     56  N         -2.0880   -2.5850   10.2700 N.3    26  PHE26      -0.1227
     57  CA        -2.1010   -1.5120    9.2410 C.3    26  PHE26       0.1736
     58  C         -1.8300   -1.8980    7.7890 C.2    26  PHE26       0.2596
     59  O         -2.2880   -1.1890    6.8880 O.2    26  PHE26      -0.2718
     60  CB        -1.1620   -0.3770    9.6490 C.3    26  PHE26       0.0547
     61  CG        -1.6450    0.3810   10.8430 C.ar   26  PHE26      -0.0202
     62  CD1       -2.5750    1.4050   10.6970 C.ar   26  PHE26      -0.0042
     63  CD2       -1.2080    0.0460   12.1130 C.ar   26  PHE26      -0.0042
     64  CE1       -3.0420    2.0980   11.8000 C.ar   26  PHE26      -0.0003
     65  CE2       -1.6680    0.7340   13.2210 C.ar   26  PHE26      -0.0003
     66  CZ        -2.5900    1.7590   13.0650 C.ar   26  PHE26      -0.0000
     67  N         -1.0890   -2.9760    7.5440 N.am   27  CYS27      -0.1956
     68  CA        -0.8420   -3.4270    6.1690 C.3    27  CYS27       0.1843
     69  C         -2.0940   -4.1130    5.6180 C.2    27  CYS27       0.2626
     70  O         -2.4250   -5.2300    6.0110 O.2    27  CYS27      -0.2714
     71  CB         0.3720   -4.3490    6.1050 C.3    27  CYS27       0.0997
     72  SG         1.8470   -3.6920    6.9120 S.3    27  CYS27      -0.0797
     73  N         -2.7790   -3.4220    4.7080 N.am   28  GLY28      -0.1940
     74  CA        -4.1150   -3.8080    4.2410 C.3    28  GLY28       0.2014
     75  C         -5.0410   -2.6060    4.2210 C.2    28  GLY28       0.2639
     76  O         -4.6880   -1.5390    4.7300 O.2    28  GLY28      -0.2714
     77  N         -6.2280   -2.7760    3.6450 N.am   29  LEU29      -0.1963
     78  CA        -7.1850   -1.6660    3.4940 C.3    29  LEU29       0.1728
     79  C         -7.6130   -1.0980    4.8480 C.2    29  LEU29       0.2616
     80  O         -8.2020   -1.8050    5.6640 O.2    29  LEU29      -0.2715
     81  CB        -8.4180   -2.1170    2.7030 C.3    29  LEU29       0.0311
     82  CG        -9.4220   -1.0370    2.2850 C.3    29  LEU29       0.0022
     83  CD1       -8.8070   -0.0120    1.3430 C.3    29  LEU29       0.0001
     84  CD2      -10.6320   -1.6850    1.6380 C.3    29  LEU29       0.0001
     85  N         -7.3050    0.1780    5.0730 N.am   30  GLY30      -0.1955
     86  CA        -7.5620    0.8350    6.3570 C.3    30  GLY30       0.1869
     87  C         -6.5700    0.3910    7.4170 C.2    30  GLY30       0.2309
     88  O         -5.4080    0.1220    7.1090 O.2    30  GLY30      -0.2863
     89  N          3.6080    0.5900    7.2620 N.3    43  CYS43      -0.1235
     90  CA         2.2410    0.6420    6.7490 C.3    43  CYS43       0.1677
     91  C          1.4000    1.7530    7.3730 C.2    43  CYS43       0.2270
     92  O          0.6200    2.4020    6.6740 O.2    43  CYS43      -0.2867
     93  CB         1.5530   -0.7060    6.9380 C.3    43  CYS43       0.0956
     94  SG         2.2290   -1.9960    5.8720 S.3    43  CYS43      -0.0801
     95  N          2.5910    4.8660    5.7160 N.3    46  HIS46      -0.1226
     96  CA         2.0090    4.8900    4.3760 C.3    46  HIS46       0.1752
     97  C          0.5330    5.2880    4.3780 C.2    46  HIS46       0.2596
     98  O          0.1090    6.0910    3.5390 O.2    46  HIS46      -0.2718
     99  CB         2.1860    3.5280    3.7160 C.3    46  HIS46       0.0759
    100  CG         1.9370    3.5320    2.2400 C.ar   46  HIS46       0.0818
    101  ND1        1.0000    2.7200    1.6410 N.ar   46  HIS46      -0.2268
    102  CD2        2.5100    4.2440    1.2420 C.ar   46  HIS46       0.1154
    103  CE1        1.0030    2.9360    0.3390 C.ar   46  HIS46       0.1986
    104  NE2        1.9130    3.8530    0.0700 N.ar   46  HIS46      -0.2212
    105  N         -0.2330    4.7230    5.3150 N.am   47  ASP47      -0.1974
    106  CA        -1.6470    5.0850    5.5120 C.3    47  ASP47       0.1709
    107  C         -1.8200    6.5910    5.7180 C.2    47  ASP47       0.2293
    108  O         -2.6930    7.2170    5.1090 O.2    47  ASP47      -0.2864
    109  CB        -2.2480    4.3260    6.7090 C.3    47  ASP47       0.1436
    110  CG        -2.5120    2.8580    6.4140 C.2    47  ASP47       0.3671
    111  OD1       -2.0790    2.3360    5.3640 O.co2  47  ASP47      -0.2456
    112  OD2       -3.1720    2.1890    7.2370 O.co2  47  ASP47      -0.2456
    113  N         -1.0360    8.4870    2.3780 N.3    50  TYR50      -0.1241
    114  CA        -2.2180    8.4000    1.5060 C.3    50  TYR50       0.1605
    115  C         -3.3650    9.3060    1.9670 C.2    50  TYR50       0.2264
    116  O         -4.0380    9.9270    1.1380 O.2    50  TYR50      -0.2867
    117  CB        -2.6940    6.9370    1.3880 C.3    50  TYR50       0.0534
    118  CG        -2.0610    6.1440    0.2540 C.ar   50  TYR50      -0.0201
    119  CD1       -0.7820    6.4440   -0.2300 C.ar   50  TYR50      -0.0009
    120  CD2       -2.7430    5.0770   -0.3330 C.ar   50  TYR50      -0.0009
    121  CE1       -0.2180    5.7200   -1.2710 C.ar   50  TYR50       0.0417
    122  CE2       -2.1780    4.3430   -1.3730 C.ar   50  TYR50       0.0417
    123  CZ        -0.9150    4.6690   -1.8360 C.ar   50  TYR50       0.1957
    124  OH        -0.3440    3.9460   -2.8620 O.3    50  TYR50      -0.2866
    125  N         -5.1280    5.5260   -4.4230 N.3    61  LYS61      -0.1245
    126  CA        -5.3850    4.1330   -4.7970 C.3    61  LYS61       0.1561
    127  C         -5.4780    3.8910   -6.3120 C.2    61  LYS61       0.2260
    128  O         -5.2360    2.7730   -6.7660 O.2    61  LYS61      -0.2867
    129  CB        -6.6530    3.6310   -4.1010 C.3    61  LYS61       0.0271
    130  CG        -6.5530    3.6410   -2.5830 C.3    61  LYS61       0.0035
    131  CD        -7.7580    2.9930   -1.9150 C.3    61  LYS61       0.0206
    132  CE        -8.9920    3.8780   -1.9840 C.3    61  LYS61       0.1093
    133  NZ       -10.1290    3.3190   -1.1970 N.3    61  LYS61      -0.1314
    134  N          7.4700    3.9240    1.5610 N.3    94  ILE94      -0.1245
    135  CA         7.1180    2.6300    2.1770 C.3    94  ILE94       0.1561
    136  C          7.9870    1.4880    1.6210 C.2    94  ILE94       0.2260
    137  O          8.3770    0.5870    2.3690 O.2    94  ILE94      -0.2867
    138  CB         5.6020    2.2820    2.0940 C.3    94  ILE94       0.0252
    139  CG1        5.2590    1.2240    3.1680 C.3    94  ILE94       0.0019
    140  CG2        5.1870    1.8770    0.6800 C.3    94  ILE94       0.0019
    141  CD1        3.9600    0.4650    2.9730 C.3    94  ILE94       0.0001
    142  N         10.0000   -0.8260    4.0930 N.3    98  LEU98      -0.1245
    143  CA         9.7810   -2.2770    4.1550 C.3    98  LEU98       0.1561
    144  C         11.0020   -3.1110    3.7500 C.2    98  LEU98       0.2260
    145  O         11.2460   -4.1700    4.3260 O.2    98  LEU98      -0.2867
    146  CB         8.5740   -2.6700    3.2970 C.3    98  LEU98       0.0270
    147  CG         7.2120   -2.1560    3.7730 C.3    98  LEU98       0.0019
    148  CD1        6.1660   -2.3290    2.6850 C.3    98  LEU98       0.0001
    149  CD2        6.7670   -2.8570    5.0480 C.3    98  LEU98       0.0001
@<TRIPOS>BOND
     1     3     4    2
     2     3     2    1
     3   128   127    2
     4     1     2    1
     5   127   126    1
     6    21    18    1
     7    19    20    2
     8    19    18    1
     9     9    10    1
    10     2     5    1
    11     5     7    1
    12     5     6    1
    13    18    17    1
    14    17    11   am
    15     6     8    1
    16   126   125    1
    17   126   129    1
    18    10    11    1
    19    10    13    1
    20    11    12    2
    21    34    35    1
    22    34    33    1
    23    35    29    1
    24    22    23    1
    25   129   130    1
    26    13    14    1
    27    24    23    1
    28    24    25    2
    29    33    30    1
    30    23    26    1
    31   124   123    1
    32    29    30    1
    33   130   131    1
    34    14    16    1
    35    14    15    1
    36    26    28    1
    37    26    27    1
    38    30    31    1
    39    54    55    1
    40    54    53    1
    41   132   131    1
    42   132   133    1
    43   123   122   ar
    44   123   121   ar
    45    31    32    2
    46   122   120   ar
    47   121   119   ar
    48    53    52    1
    49   120   118   ar
    50   119   118   ar
    51   104   103   ar
    52   104   102   ar
    53   118   117    1
    54   103   101   ar
    55   140   138    1
    56    52    49    1
    57   116   115    2
    58   102   100   ar
    59    83    82    1
    60   117   114    1
    61   114   115    1
    62   114   113    1
    63   134   135    1
    64    43    45   ar
    65    43    41   ar
    66   136   135    1
    67   136   137    2
    68    84    82    1
    69   101   100   ar
    70    45    46   ar
    71    49    48    1
    72    49    50    1
    73   138   135    1
    74   138   139    1
    75   100    99    1
    76    48    38   am
    77    82    81    1
    78    36    37    1
    79   148   147    1
    80    81    78    1
    81    40    41    1
    82    40    37    1
    83    41    42   ar
    84    46    47    1
    85    46    44   ar
    86    38    37    1
    87    38    39    2
    88   141   139    1
    89    50    51    2
    90   146   147    1
    91   146   143    1
    92    78    77    1
    93    78    79    1
    94    98    97    2
    95    77    75   am
    96    99    96    1
    97   144   143    1
    98   144   145    2
    99   147   149    1
   100    42    44   ar
   101   142   143    1
   102    75    74    1
   103    75    76    2
   104    74    73    1
   105    96    97    1
   106    96    95    1
   107    97   105   am
   108    73    69   am
   109    79    85   am
   110    79    80    2
   111    85    86    1
   112   108   107    2
   113   105   106    1
   114   111   110   ar
   115   106   107    1
   116   106   109    1
   117    69    70    2
   118    69    68    1
   119    94    72    1
   120    94    93    1
   121    71    68    1
   122    71    72    1
   123    68    67    1
   124    86    87    1
   125   110   109    1
   126   110   112   ar
   127    92    91    2
   128    90    93    1
   129    90    89    1
   130    90    91    1
   131    59    58    2
   132    88    87    2
   133    67    58   am
   134    58    57    1
   135    57    60    1
   136    57    56    1
   137    60    61    1
   138    62    61   ar
   139    62    64   ar
   140    61    63   ar
   141    64    66   ar
   142    63    65   ar
   143    66    65   ar
