@<TRIPOS>MOLECULE
tmp/5owaC00.pdb
 133 130 0 0 0
SMALL
GASTEIGER

@<TRIPOS>ATOM
      1  N         11.5940   17.7500   82.5240 N.3    25  GLY25      -0.1210
      2  CA        10.4440   17.1730   83.2040 C.3    25  GLY25       0.1956
      3  C          9.3880   16.5850   82.2840 C.2    25  GLY25       0.2612
      4  O          8.4240   15.9950   82.7840 O.2    25  GLY25      -0.2717
      5  N          9.5520   16.7290   80.9670 N.am   26  ASN26      -0.1960
      6  CA         8.6150   16.1940   79.9760 C.3    26  ASN26       0.1819
      7  C          7.1880   16.6660   80.2420 C.2    26  ASN26       0.2621
      8  O          6.2230   15.9140   80.0910 O.2    26  ASN26      -0.2715
      9  CB         8.6800   14.6660   79.9110 C.3    26  ASN26       0.1195
     10  CG        10.0690   14.1530   79.5570 C.2    26  ASN26       0.2630
     11  OD1       10.5600   14.3690   78.4450 O.2    26  ASN26      -0.2716
     12  ND2       10.7050   13.4660   80.5000 N.am   26  ASN26      -0.0877
     13  N          7.0480   17.9310   80.6470 N.am   27  ILE27      -0.1963
     14  CA         5.7170   18.4700   80.9080 C.3    27  ILE27       0.1727
     15  C          5.1380   19.1730   79.6920 C.2    27  ILE27       0.2616
     16  O          3.9730   19.6080   79.7350 O.2    27  ILE27      -0.2715
     17  CB         5.7040   19.4380   82.1100 C.3    27  ILE27       0.0290
     18  CG1        5.9890   20.8630   81.6590 C.3    27  ILE27       0.0022
     19  CG2        6.7260   19.0350   83.1640 C.3    27  ILE27       0.0023
     20  CD1        5.6050   21.8600   82.6810 C.3    27  ILE27       0.0001
     21  N          5.9110   19.3020   78.6080 N.am   28  PHE28      -0.1960
     22  CA         5.4350   19.9110   77.3740 C.3    28  PHE28       0.1771
     23  C          5.4530   18.9240   76.2160 C.2    28  PHE28       0.2620
     24  O          5.1970   19.3150   75.0720 O.2    28  PHE28      -0.2715
     25  CB         6.2860   21.1340   77.0100 C.3    28  PHE28       0.0574
     26  CG         6.3000   22.2040   78.0550 C.ar   28  PHE28      -0.0200
     27  CD1        5.1980   23.0120   78.2530 C.ar   28  PHE28      -0.0042
     28  CD2        7.4290   22.4200   78.8260 C.ar   28  PHE28      -0.0042
     29  CE1        5.2190   24.0150   79.2130 C.ar   28  PHE28      -0.0003
     30  CE2        7.4530   23.4140   79.7900 C.ar   28  PHE28      -0.0003
     31  CZ         6.3490   24.2140   79.9750 C.ar   28  PHE28      -0.0000
     32  N          5.7630   17.6540   76.4830 N.am   29  SER29      -0.1936
     33  CA         5.9260   16.6790   75.4120 C.3    29  SER29       0.2055
     34  C          4.6050   16.3070   74.7570 C.2    29  SER29       0.2642
     35  O          4.6010   15.8780   73.5980 O.2    29  SER29      -0.2714
     36  CB         6.6000   15.4180   75.9530 C.3    29  SER29       0.2130
     37  OG         5.7440   14.7340   76.8530 O.3    29  SER29      -0.2179
     38  N          3.4950   16.4760   75.4600 N.am   30  GLU30      -0.1976
     39  CA         2.1890   16.0110   75.0260 C.3    30  GLU30       0.1602
     40  C          1.1630   17.1000   75.2900 C.2    30  GLU30       0.2287
     41  O          1.3770   17.9620   76.1450 O.2    30  GLU30      -0.2864
     42  CB         1.7820   14.7300   75.7700 C.3    30  GLU30       0.0415
     43  CG         2.5990   13.5300   75.3870 C.3    30  GLU30       0.1163
     44  CD         1.7290   12.3600   74.9890 C.2    30  GLU30       0.3649
     45  OE1        1.6660   11.3800   75.7570 O.co2  30  GLU30      -0.2457
     46  OE2        1.0950   12.4300   73.9130 O.co2  30  GLU30      -0.2457
     47  N         -1.8460   19.1150   76.8370 N.3    32  VAL32      -0.1231
     48  CA        -2.3630   19.1970   78.1990 C.3    32  VAL32       0.1678
     49  C         -3.5700   18.2700   78.2660 C.2    32  VAL32       0.2434
     50  O         -4.5520   18.4960   77.5490 O.2    32  VAL32      -0.2733
     51  CB        -2.7120   20.6480   78.5750 C.3    32  VAL32       0.0265
     52  CG1       -3.4950   20.7010   79.8740 C.3    32  VAL32       0.0020
     53  CG2       -1.4390   21.4740   78.7010 C.3    32  VAL32       0.0020
     54  N         -3.5210   17.1970   79.0720 N.am   33  PRO33      -0.2729
     55  CA        -4.6260   16.2200   79.1010 C.3    33  PRO33       0.1401
     56  C         -5.9600   16.8200   79.5200 C.2    33  PRO33       0.2269
     57  O         -6.1780   17.1130   80.7030 O.2    33  PRO33      -0.2865
     58  CB        -4.1410   15.1750   80.1140 C.3    33  PRO33       0.0296
     59  CG        -3.0750   15.8660   80.9170 C.3    33  PRO33       0.0237
     60  CD        -2.4200   16.8190   79.9740 C.3    33  PRO33       0.0939
     61  N         -7.9490   15.5150   82.6600 N.3    36  GLU36      -0.1231
     62  CA        -7.4550   15.9450   83.9650 C.3    36  GLU36       0.1699
     63  C         -7.5100   17.4550   84.1500 C.2    36  GLU36       0.2592
     64  O         -7.4500   17.9280   85.2910 O.2    36  GLU36      -0.2718
     65  CB        -6.0200   15.4560   84.1830 C.3    36  GLU36       0.0402
     66  CG        -5.9270   13.9860   84.5760 C.3    36  GLU36       0.1161
     67  CD        -4.5030   13.4840   84.6460 C.2    36  GLU36       0.3649
     68  OE1       -3.8020   13.8030   85.6280 O.co2  36  GLU36      -0.2457
     69  OE2       -4.0830   12.7700   83.7090 O.co2  36  GLU36      -0.2457
     70  N         -7.6170   18.2170   83.0670 N.am   37  VAL37      -0.1980
     71  CA        -7.7260   19.6710   83.1420 C.3    37  VAL37       0.1595
     72  C         -8.8870   20.1040   82.2550 C.2    37  VAL37       0.2287
     73  O         -8.6900   20.3580   81.0590 O.2    37  VAL37      -0.2864
     74  CB        -6.4200   20.3650   82.7160 C.3    37  VAL37       0.0276
     75  CG1       -6.5320   21.8690   82.9190 C.3    37  VAL37       0.0022
     76  CG2       -5.2310   19.8110   83.4860 C.3    37  VAL37       0.0022
     77  N         -8.9910   23.9750   80.6040 N.3    40  TYR40      -0.1241
     78  CA        -7.9250   24.4990   79.7550 C.3    40  TYR40       0.1605
     79  C         -8.4690   25.2200   78.5300 C.2    40  TYR40       0.2264
     80  O         -8.1040   26.3700   78.2650 O.2    40  TYR40      -0.2867
     81  CB        -6.9870   23.3730   79.3470 C.3    40  TYR40       0.0534
     82  CG        -5.6290   23.8620   78.9120 C.ar   40  TYR40      -0.0201
     83  CD1       -4.6220   24.0940   79.8420 C.ar   40  TYR40      -0.0009
     84  CD2       -5.3520   24.0860   77.5730 C.ar   40  TYR40      -0.0009
     85  CE1       -3.3760   24.5320   79.4430 C.ar   40  TYR40       0.0417
     86  CE2       -4.1100   24.5250   77.1640 C.ar   40  TYR40       0.0417
     87  CZ        -3.1270   24.7450   78.0980 C.ar   40  TYR40       0.1957
     88  OH        -1.8920   25.1880   77.6800 O.3    40  TYR40      -0.2866
     89  N          3.5490   27.3130   73.0720 N.3    75  ILE75      -0.1245
     90  CA         3.7560   26.3830   74.1820 C.3    75  ILE75       0.1561
     91  C          4.0620   27.1520   75.4570 C.2    75  ILE75       0.2260
     92  O          3.4990   26.8850   76.5290 O.2    75  ILE75      -0.2867
     93  CB         4.8920   25.3950   73.8630 C.3    75  ILE75       0.0252
     94  CG1        4.5220   24.4440   72.7310 C.3    75  ILE75       0.0019
     95  CG2        5.2850   24.6200   75.1150 C.3    75  ILE75       0.0019
     96  CD1        5.6560   23.4930   72.3950 C.3    75  ILE75       0.0001
     97  N          1.3770   28.2770   78.8220 N.3    79  CYS79      -0.1235
     98  CA         1.7000   27.8330   80.1710 C.3    79  CYS79       0.1677
     99  C          1.7960   29.0170   81.1200 C.2    79  CYS79       0.2270
    100  O          1.3230   28.9440   82.2580 O.2    79  CYS79      -0.2867
    101  CB         3.0040   27.0340   80.1460 C.3    79  CYS79       0.0956
    102  SG         3.3550   26.0520   81.5950 S.3    79  CYS79      -0.0801
    103  N         -2.0340   30.1780   81.6080 N.3    82  TYR82      -0.1227
    104  CA        -2.9630   29.3420   82.3650 C.3    82  TYR82       0.1736
    105  C         -2.5200   29.1660   83.8120 C.2    82  TYR82       0.2595
    106  O         -3.3490   29.2120   84.7270 O.2    82  TYR82      -0.2718
    107  CB        -3.1290   27.9760   81.6970 C.3    82  TYR82       0.0548
    108  CG        -4.1130   27.0800   82.4290 C.ar   82  TYR82      -0.0200
    109  CD1       -5.4790   27.1400   82.1600 C.ar   82  TYR82      -0.0009
    110  CD2       -3.6810   26.1930   83.4060 C.ar   82  TYR82      -0.0009
    111  CE1       -6.3860   26.3310   82.8390 C.ar   82  TYR82       0.0417
    112  CE2       -4.5790   25.3860   84.0900 C.ar   82  TYR82       0.0417
    113  CZ        -5.9270   25.4570   83.8030 C.ar   82  TYR82       0.1957
    114  OH        -6.8110   24.6460   84.4850 O.3    82  TYR82      -0.2866
    115  N         -1.2260   28.9740   84.0430 N.am   83  ASN83      -0.1974
    116  CA        -0.7450   28.5270   85.3420 C.3    83  ASN83       0.1688
    117  C         -0.3340   29.6910   86.2320 C.2    83  ASN83       0.2292
    118  O          0.3220   30.6330   85.7820 O.2    83  ASN83      -0.2864
    119  CB         0.4220   27.5600   85.1520 C.3    83  ASN83       0.1181
    120  CG         0.0370   26.3480   84.3270 C.2    83  ASN83       0.2629
    121  OD1       -0.5420   25.3920   84.8380 O.2    83  ASN83      -0.2716
    122  ND2        0.3620   26.3800   83.0440 N.am   83  ASN83      -0.0877
    123  N          4.6330   24.2070   86.7170 N.3    89  PHE89      -0.1241
    124  CA         4.3300   24.4760   85.3160 C.3    89  PHE89       0.1605
    125  C          4.8060   25.8630   84.9040 C.2    89  PHE89       0.2264
    126  O          5.5190   26.0200   83.9040 O.2    89  PHE89      -0.2867
    127  CB         2.8270   24.3230   85.0740 C.3    89  PHE89       0.0534
    128  CG         2.3290   22.9100   85.2520 C.ar   89  PHE89      -0.0203
    129  CD1        3.1520   21.8290   84.9640 C.ar   89  PHE89      -0.0042
    130  CD2        1.0490   22.6630   85.7120 C.ar   89  PHE89      -0.0042
    131  CE1        2.7060   20.5260   85.1230 C.ar   89  PHE89      -0.0003
    132  CE2        0.5950   21.3600   85.8770 C.ar   89  PHE89      -0.0003
    133  CZ         1.4270   20.2910   85.5820 C.ar   89  PHE89      -0.0000
@<TRIPOS>BOND
     1    96    94    1
     2    94    93    1
     3    89    90    1
     4    35    34    2
     5    93    90    1
     6    93    95    1
     7    46    44   ar
     8    90    91    1
     9    34    33    1
    10    34    38   am
    11    44    43    1
    12    44    45   ar
    13    39    40    1
    14    39    38    1
    15    39    42    1
    16    24    23    2
    17    40    41    2
    18    43    42    1
    19    33    36    1
    20    33    32    1
    21    91    92    2
    22    36    37    1
    23    23    32   am
    24    23    22    1
    25    47    48    1
    26    25    22    1
    27    25    26    1
    28    86    84   ar
    29    86    87   ar
    30    22    21    1
    31    50    49    2
    32    84    82   ar
    33    88    87    1
    34    26    27   ar
    35    26    28   ar
    36    87    85   ar
    37    48    49    1
    38    48    51    1
    39    27    29   ar
    40    80    79    2
    41    49    54   am
    42    11    10    2
    43    79    78    1
    44    51    53    1
    45    51    52    1
    46    21    15   am
    47    97    98    1
    48    28    30   ar
    49    82    81    1
    50    82    83   ar
    51    54    55    1
    52    54    60    1
    53    55    56    1
    54    55    58    1
    55    29    31   ar
    56    81    78    1
    57    85    83   ar
    58    56    57    2
    59    10     9    1
    60    10    12   am
    61    15    16    2
    62    15    14    1
    63    78    77    1
    64    30    31   ar
    65     9     6    1
    66    60    59    1
    67     6     7    1
    68     6     5    1
    69     8     7    2
    70    58    59    1
    71   101    98    1
    72   101   102    1
    73    98    99    1
    74     7    13   am
    75    13    14    1
    76    14    17    1
    77     5     3   am
    78    73    72    2
    79    99   100    2
    80   103   104    1
    81    18    17    1
    82    18    20    1
    83   107   104    1
    84   107   108    1
    85    17    19    1
    86   109   108   ar
    87   109   111   ar
    88    72    71    1
    89     3     4    2
    90     3     2    1
    91   104   105    1
    92   108   110   ar
    93     1     2    1
    94    61    62    1
    95    74    75    1
    96    74    71    1
    97    74    76    1
    98   111   113   ar
    99   122   120   am
   100    70    71    1
   101    70    63   am
   102   110   112   ar
   103    69    67   ar
   104   113   112   ar
   105   113   114    1
   106   105   115   am
   107   105   106    2
   108   126   125    2
   109    62    63    1
   110    62    65    1
   111   115   116    1
   112    63    64    2
   113    65    66    1
   114   120   121    2
   115   120   119    1
   116    66    67    1
   117    67    68   ar
   118   125   124    1
   119   129   131   ar
   120   129   128   ar
   121   127   128    1
   122   127   124    1
   123   131   133   ar
   124   119   116    1
   125   128   130   ar
   126   124   123    1
   127   116   117    1
   128   133   132   ar
   129   130   132   ar
   130   118   117    2
