@<TRIPOS>MOLECULE
tmp/5owbA00.pdb
 105 104 0 0 0
SMALL
GASTEIGER

@<TRIPOS>ATOM
      1  N        -15.8980   12.7200    5.3050 N.3    25  ILE25      -0.1231
      2  CA       -14.4530   12.5570    5.2630 C.3    25  ILE25       0.1692
      3  C        -13.7600   13.9020    5.1270 C.2    25  ILE25       0.2592
      4  O        -12.5680   14.0050    5.4350 O.2    25  ILE25      -0.2718
      5  CB       -14.0130   11.5750    4.1650 C.3    25  ILE25       0.0266
      6  CG1      -14.0990   12.2040    2.7920 C.3    25  ILE25       0.0019
      7  CG2      -14.8480   10.2880    4.2120 C.3    25  ILE25       0.0020
      8  CD1      -13.5060   11.3300    1.7210 C.3    25  ILE25       0.0001
      9  N        -14.4860   14.9520    4.7390 N.am   26  PHE26      -0.1976
     10  CA       -13.9220   16.2910    4.6240 C.3    26  PHE26       0.1639
     11  C        -14.3700   17.2320    5.7380 C.2    26  PHE26       0.2290
     12  O        -14.1790   18.4470    5.6200 O.2    26  PHE26      -0.2864
     13  CB       -14.2830   16.8920    3.2660 C.3    26  PHE26       0.0560
     14  CG       -13.9250   16.0190    2.1090 C.ar   26  PHE26      -0.0200
     15  CD1      -12.5990   15.7590    1.8050 C.ar   26  PHE26      -0.0042
     16  CD2      -14.9110   15.4440    1.3320 C.ar   26  PHE26      -0.0042
     17  CE1      -12.2640   14.9530    0.7510 C.ar   26  PHE26      -0.0003
     18  CE2      -14.5830   14.6250    0.2670 C.ar   26  PHE26      -0.0003
     19  CZ       -13.2540   14.3880   -0.0320 C.ar   26  PHE26      -0.0000
     20  N        -13.3050   17.6330    8.8540 N.3    28  GLU28      -0.1231
     21  CA       -12.2410   18.1450    9.7010 C.3    28  GLU28       0.1684
     22  C        -10.9080   18.0220    8.9750 C.2    28  GLU28       0.2434
     23  O        -10.8130   17.3330    7.9570 O.2    28  GLU28      -0.2733
     24  CB       -12.2110   17.3840   11.0360 C.3    28  GLU28       0.0402
     25  CG       -13.4760   17.5880   11.8570 C.3    28  GLU28       0.1161
     26  CD       -13.6170   16.5950   12.9890 C.2    28  GLU28       0.3649
     27  OE1      -12.6760   15.8030   13.2080 O.co2  28  GLU28      -0.2457
     28  OE2      -14.6750   16.6060   13.6550 O.co2  28  GLU28      -0.2457
     29  N         -9.8770   18.7210    9.4470 N.am   29  PRO29      -0.2718
     30  CA        -8.5840   18.6490    8.7570 C.3    29  PRO29       0.1535
     31  C         -8.0770   17.2210    8.6600 C.2    29  PRO29       0.2598
     32  O         -8.3080   16.3870    9.5450 O.2    29  PRO29      -0.2715
     33  CB        -7.6610   19.5050    9.6370 C.3    29  PRO29       0.0310
     34  CG        -8.5700   20.4740   10.3040 C.3    29  PRO29       0.0237
     35  CD        -9.8820   19.7480   10.5070 C.3    29  PRO29       0.0939
     36  N         -7.3900   16.9410    7.5570 N.am   30  VAL30      -0.1964
     37  CA        -6.6660   15.6820    7.4210 C.3    30  VAL30       0.1712
     38  C         -5.7650   15.5640    8.6420 C.2    30  VAL30       0.2458
     39  O         -4.9690   16.4770    8.9050 O.2    30  VAL30      -0.2730
     40  CB        -5.8660   15.6390    6.1110 C.3    30  VAL30       0.0289
     41  CG1       -4.9660   14.4210    6.0720 C.3    30  VAL30       0.0023
     42  CG2       -6.8200   15.6560    4.9070 C.3    30  VAL30       0.0023
     43  N         -5.8760   14.4920    9.4360 N.am   31  PRO31      -0.2727
     44  CA        -5.0690   14.4050   10.6610 C.3    31  PRO31       0.1402
     45  C         -3.5980   14.1800   10.3530 C.2    31  PRO31       0.2269
     46  O         -3.1940   13.0780    9.9670 O.2    31  PRO31      -0.2865
     47  CB        -5.6850   13.2170   11.4140 C.3    31  PRO31       0.0296
     48  CG        -6.3770   12.4120   10.3700 C.3    31  PRO31       0.0237
     49  CD        -6.8240   13.3720    9.3040 C.3    31  PRO31       0.0939
     50  N         -1.5210   11.0340    8.9300 N.3    35  VAL35      -0.1245
     51  CA        -1.0350   11.1080    7.5570 C.3    35  VAL35       0.1561
     52  C          0.2400   11.9420    7.5680 C.2    35  VAL35       0.2260
     53  O          0.2150   13.1270    7.2030 O.2    35  VAL35      -0.2867
     54  CB        -2.1010   11.6930    6.6200 C.3    35  VAL35       0.0252
     55  CG1       -1.6700   11.5540    5.1770 C.3    35  VAL35       0.0019
     56  CG2       -3.4290   10.9910    6.8460 C.3    35  VAL35       0.0019
     57  N          1.4620   14.1350    4.4600 N.3    38  TYR38      -0.1241
     58  CA         0.4320   14.9060    3.7700 C.3    38  TYR38       0.1605
     59  C          0.9530   16.2670    3.3250 C.2    38  TYR38       0.2264
     60  O          0.7350   16.6830    2.1800 O.2    38  TYR38      -0.2867
     61  CB        -0.7840   15.0700    4.6750 C.3    38  TYR38       0.0534
     62  CG        -1.9880   15.6110    3.9420 C.ar   38  TYR38      -0.0201
     63  CD1       -2.6680   14.8250    3.0210 C.ar   38  TYR38      -0.0009
     64  CD2       -2.4350   16.9050    4.1620 C.ar   38  TYR38      -0.0009
     65  CE1       -3.7670   15.3190    2.3380 C.ar   38  TYR38       0.0417
     66  CE2       -3.5360   17.4030    3.4860 C.ar   38  TYR38       0.0417
     67  CZ        -4.1930   16.6060    2.5780 C.ar   38  TYR38       0.1957
     68  OH        -5.2850   17.1110    1.9040 O.3    38  TYR38      -0.2866
     69  N         -7.5760   16.3240   -2.2720 N.3    77  CYS77      -0.1235
     70  CA        -7.9110   14.9070   -2.1770 C.3    77  CYS77       0.1677
     71  C         -7.5890   14.1680   -3.4750 C.2    77  CYS77       0.2270
     72  O         -7.0790   13.0380   -3.4480 O.2    77  CYS77      -0.2867
     73  CB        -9.3930   14.7860   -1.8130 C.3    77  CYS77       0.0956
     74  SG        -9.9010   13.1470   -1.3470 S.3    77  CYS77      -0.0801
     75  N         -3.6610   13.8470   -3.4900 N.3    80  TYR80      -0.1227
     76  CA        -2.9730   12.9980   -2.5200 C.3    80  TYR80       0.1736
     77  C         -3.2640   11.5170   -2.7280 C.2    80  TYR80       0.2595
     78  O         -2.3880   10.6720   -2.4990 O.2    80  TYR80      -0.2718
     79  CB        -3.3540   13.4080   -1.0960 C.3    80  TYR80       0.0548
     80  CG        -2.6110   12.5850   -0.0820 C.ar   80  TYR80      -0.0200
     81  CD1       -1.2700   12.8240    0.1850 C.ar   80  TYR80      -0.0009
     82  CD2       -3.2340   11.5290    0.5650 C.ar   80  TYR80      -0.0009
     83  CE1       -0.5770   12.0410    1.0880 C.ar   80  TYR80       0.0417
     84  CE2       -2.5450   10.7440    1.4750 C.ar   80  TYR80       0.0417
     85  CZ        -1.2240   11.0080    1.7300 C.ar   80  TYR80       0.1957
     86  OH        -0.5550   10.2080    2.6360 O.3    80  TYR80      -0.2866
     87  N         -4.4780   11.1810   -3.1560 N.am   81  ASN81      -0.1974
     88  CA        -4.9630    9.8110   -3.1410 C.3    81  ASN81       0.1688
     89  C         -4.9600    9.2070   -4.5300 C.2    81  ASN81       0.2292
     90  O         -5.1960    9.8980   -5.5260 O.2    81  ASN81      -0.2864
     91  CB        -6.3670    9.7650   -2.5590 C.3    81  ASN81       0.1181
     92  CG        -6.3920   10.2420   -1.1320 C.2    81  ASN81       0.2629
     93  OD1       -5.9560    9.5300   -0.2280 O.2    81  ASN81      -0.2716
     94  ND2       -6.8610   11.4570   -0.9230 N.am   81  ASN81      -0.0877
     95  N        -11.4090    7.5770   -1.3140 N.3    87  PHE87      -0.1241
     96  CA       -11.1790    9.0090   -1.1060 C.3    87  PHE87       0.1605
     97  C        -11.1590    9.7660   -2.4280 C.2    87  PHE87       0.2264
     98  O        -11.8030   10.8150   -2.5720 O.2    87  PHE87      -0.2867
     99  CB        -9.8730    9.2440   -0.3500 C.3    87  PHE87       0.0534
    100  CG        -9.9760    8.9670    1.1230 C.ar   87  PHE87      -0.0203
    101  CD1      -11.2070    8.7060    1.7030 C.ar   87  PHE87      -0.0042
    102  CD2       -8.8520    8.9590    1.9250 C.ar   87  PHE87      -0.0042
    103  CE1      -11.3160    8.4490    3.0580 C.ar   87  PHE87      -0.0003
    104  CE2       -8.9550    8.7030    3.2840 C.ar   87  PHE87      -0.0003
    105  CZ       -10.1880    8.4510    3.8490 C.ar   87  PHE87      -0.0000
@<TRIPOS>BOND
     1    90    89    2
     2    89    88    1
     3    75    76    1
     4    71    72    2
     5    71    70    1
     6    87    88    1
     7    87    77   am
     8    88    91    1
     9    77    76    1
    10    77    78    2
    11    98    97    2
    12    91    92    1
    13    76    79    1
    14    97    96    1
    15    69    70    1
    16    70    73    1
    17    73    74    1
    18    95    96    1
    19    92    94   am
    20    92    93    2
    21    96    99    1
    22    79    80    1
    23    99   100    1
    24    80    81   ar
    25    80    82   ar
    26    19    18   ar
    27    19    17   ar
    28    81    83   ar
    29    18    16   ar
    30    82    84   ar
    31    17    15   ar
    32    83    85   ar
    33   100   101   ar
    34   100   102   ar
    35    16    14   ar
    36    84    85   ar
    37   101   103   ar
    38     8     6    1
    39    85    86    1
    40    15    14   ar
    41    68    67    1
    42   102   104   ar
    43    14    13    1
    44    60    59    2
    45    65    67   ar
    46    65    63   ar
    47    67    66   ar
    48     6     5    1
    49    63    62   ar
    50   103   105   ar
    51    13    10    1
    52   104   105   ar
    53    59    58    1
    54    66    64   ar
    55    58    57    1
    56    58    61    1
    57    62    64   ar
    58    62    61    1
    59     5     7    1
    60     5     2    1
    61    10     9    1
    62    10    11    1
    63     9     3   am
    64    42    40    1
    65     3     2    1
    66     3     4    2
    67    55    54    1
    68     2     1    1
    69    12    11    2
    70    41    40    1
    71    40    37    1
    72    54    56    1
    73    54    51    1
    74    53    52    2
    75    37    36    1
    76    37    38    1
    77    51    52    1
    78    51    50    1
    79    36    31   am
    80    23    22    2
    81    38    39    2
    82    38    43   am
    83    31    30    1
    84    31    32    2
    85    30    29    1
    86    30    33    1
    87    20    21    1
    88    22    29   am
    89    22    21    1
    90    49    43    1
    91    49    48    1
    92    43    44    1
    93    29    35    1
    94    33    34    1
    95    21    24    1
    96    46    45    2
    97    34    35    1
    98    45    44    1
    99    48    47    1
   100    44    47    1
   101    24    25    1
   102    25    26    1
   103    26    27   ar
   104    26    28   ar
