@<TRIPOS>MOLECULE
tmp/5owcA00.pdb
 157 151 0 0 0
SMALL
GASTEIGER

@<TRIPOS>ATOM
      1  N         -2.6060    0.9920   -7.1770 N.3     2  ILE2       -0.1245
      2  CA        -2.2870   -0.3090   -6.5610 C.3     2  ILE2        0.1561
      3  C         -1.2540   -1.0780   -7.4110 C.2     2  ILE2        0.2260
      4  O         -0.4100   -1.7800   -6.8720 O.2     2  ILE2       -0.2867
      5  CB        -3.5680   -1.1650   -6.3400 C.3     2  ILE2        0.0252
      6  CG1       -4.3520   -0.7300   -5.0960 C.3     2  ILE2        0.0019
      7  CG2       -3.2510   -2.6340   -6.0960 C.3     2  ILE2        0.0019
      8  CD1       -3.7840    0.4340   -4.3220 C.3     2  ILE2        0.0001
      9  N          2.0740    0.4000   -6.6410 N.3     5  LEU5       -0.1231
     10  CA         2.4110    0.0310   -5.2790 C.3     5  LEU5        0.1693
     11  C          3.0360   -1.3700   -5.2110 C.2     5  LEU5        0.2591
     12  O          4.1180   -1.5610   -4.6290 O.2     5  LEU5       -0.2718
     13  CB         1.1710    0.1060   -4.3810 C.3     5  LEU5        0.0284
     14  CG         1.3460   -0.3600   -2.9320 C.3     5  LEU5        0.0019
     15  CD1        2.4910    0.3610   -2.2250 C.3     5  LEU5        0.0001
     16  CD2        0.0320   -0.1210   -2.2070 C.3     5  LEU5        0.0001
     17  N          2.3480   -2.3410   -5.8060 N.am    6  ALA6       -0.1980
     18  CA         2.8620   -3.7140   -5.8710 C.3     6  ALA6        0.1597
     19  C          4.2170   -3.7560   -6.5970 C.2     6  ALA6        0.2287
     20  O          5.1610   -4.3970   -6.1310 O.2     6  ALA6       -0.2864
     21  CB         1.8610   -4.6260   -6.5690 C.3     6  ALA6        0.0319
     22  N          7.1210   -1.9320   -4.5200 N.3     9  VAL9       -0.1245
     23  CA         7.4540   -2.7910   -3.3890 C.3     9  VAL9        0.1561
     24  C          8.2370   -4.0250   -3.8590 C.2     9  VAL9        0.2260
     25  O          9.2390   -4.4000   -3.2450 O.2     9  VAL9       -0.2867
     26  CB         6.1960   -3.1340   -2.5460 C.3     9  VAL9        0.0252
     27  CG1        6.4980   -4.2120   -1.5030 C.3     9  VAL9        0.0019
     28  CG2        5.6830   -1.8880   -1.8390 C.3     9  VAL9        0.0019
     29  N          5.0400   -8.7470   -3.0690 N.3    17  PRO17      -0.2102
     30  CA         4.1760   -7.7070   -2.4860 C.3    17  PRO17       0.1504
     31  C          2.9260   -8.2640   -1.7740 C.2    17  PRO17       0.2575
     32  O          2.3950   -7.6140   -0.8590 O.2    17  PRO17      -0.2718
     33  CB         3.7840   -6.8400   -3.6910 C.3    17  PRO17       0.0282
     34  CG         4.0870   -7.6540   -4.8990 C.3    17  PRO17       0.0208
     35  CD         5.2290   -8.5520   -4.5200 C.3    17  PRO17       0.0893
     36  N          2.5060   -9.4580   -2.1930 N.am   18  ILE18      -0.1980
     37  CA         1.4730  -10.2810   -1.5280 C.3    18  ILE18       0.1595
     38  C          1.7130  -10.4980   -0.0310 C.2    18  ILE18       0.2287
     39  O          0.7610  -10.6440    0.7310 O.2    18  ILE18      -0.2864
     40  CB         1.3350  -11.6680   -2.2410 C.3    18  ILE18       0.0276
     41  CG1        0.9190  -11.4910   -3.7110 C.3    18  ILE18       0.0022
     42  CG2        0.3380  -12.5920   -1.5440 C.3    18  ILE18       0.0022
     43  CD1       -0.2000  -10.4980   -3.9290 C.3    18  ILE18       0.0001
     44  N          2.3950   -8.3970    2.0800 N.3    20  TYR20      -0.1227
     45  CA         1.8280   -7.2640    2.8210 C.3    20  TYR20       0.1736
     46  C          0.3270   -7.0190    2.6320 C.2    20  TYR20       0.2595
     47  O         -0.1800   -5.9900    3.0700 O.2    20  TYR20      -0.2718
     48  CB         2.5880   -5.9980    2.4190 C.3    20  TYR20       0.0548
     49  CG         4.0800   -6.1670    2.4700 C.ar   20  TYR20      -0.0200
     50  CD1        4.7390   -6.2750    3.6900 C.ar   20  TYR20      -0.0009
     51  CD2        4.8420   -6.2410    1.3010 C.ar   20  TYR20      -0.0009
     52  CE1        6.1120   -6.4380    3.7490 C.ar   20  TYR20       0.0417
     53  CE2        6.2220   -6.4080    1.3510 C.ar   20  TYR20       0.0417
     54  CZ         6.8530   -6.5020    2.5780 C.ar   20  TYR20       0.1957
     55  OH         8.2190   -6.6430    2.6570 O.3    20  TYR20      -0.2866
     56  N         -0.3790   -7.9530    1.9940 N.am   21  MET21      -0.1979
     57  CA        -1.8040   -7.7600    1.6790 C.3    21  MET21       0.1605
     58  C         -2.6900   -7.7130    2.9130 C.2    21  MET21       0.2287
     59  O         -3.6720   -6.9660    2.9470 O.2    21  MET21      -0.2864
     60  CB        -2.3130   -8.8550    0.7460 C.3    21  MET21       0.0413
     61  CG        -2.0310   -8.5630   -0.7070 C.3    21  MET21       0.0598
     62  SD        -2.7140   -9.7730   -1.8460 S.3    21  MET21      -0.1393
     63  CE        -4.3300   -9.0630   -2.1450 C.3    21  MET21       0.0692
     64  N         -1.9190   -2.7030   10.0030 N.3    26  PHE26      -0.1227
     65  CA        -1.9740   -1.6450    8.9830 C.3    26  PHE26       0.1736
     66  C         -1.7470   -2.0540    7.5350 C.2    26  PHE26       0.2596
     67  O         -2.2170   -1.3460    6.6350 O.2    26  PHE26      -0.2718
     68  CB        -1.0300   -0.5060    9.3610 C.3    26  PHE26       0.0547
     69  CG        -1.5130    0.2730   10.5420 C.ar   26  PHE26      -0.0202
     70  CD1       -2.4470    1.2850   10.3720 C.ar   26  PHE26      -0.0042
     71  CD2       -1.0880   -0.0440   11.8220 C.ar   26  PHE26      -0.0042
     72  CE1       -2.9300    1.9990   11.4610 C.ar   26  PHE26      -0.0003
     73  CE2       -1.5650    0.6650   12.9130 C.ar   26  PHE26      -0.0003
     74  CZ        -2.4900    1.6830   12.7320 C.ar   26  PHE26      -0.0000
     75  N         -1.0490   -3.1560    7.2940 N.am   27  CYS27      -0.1956
     76  CA        -0.7680   -3.5680    5.9180 C.3    27  CYS27       0.1843
     77  C         -1.9830   -4.2710    5.3420 C.2    27  CYS27       0.2626
     78  O         -2.3210   -5.3800    5.7570 O.2    27  CYS27      -0.2714
     79  CB         0.4610   -4.4700    5.8290 C.3    27  CYS27       0.0997
     80  SG         1.9600   -3.8390    6.5950 S.3    27  CYS27      -0.0797
     81  N         -2.6210   -3.6110    4.3790 N.am   28  GLY28      -0.1940
     82  CA        -3.9080   -4.0190    3.8330 C.3    28  GLY28       0.2014
     83  C         -4.8600   -2.8450    3.8340 C.2    28  GLY28       0.2639
     84  O         -4.5190   -1.7600    4.3130 O.2    28  GLY28      -0.2714
     85  N         -6.0640   -3.0640    3.3170 N.am   29  LEU29      -0.1963
     86  CA        -7.0660   -1.9940    3.2210 C.3    29  LEU29       0.1728
     87  C         -7.4510   -1.4770    4.6050 C.2    29  LEU29       0.2616
     88  O         -7.8320   -2.2520    5.4880 O.2    29  LEU29      -0.2715
     89  CB        -8.3020   -2.4930    2.4680 C.3    29  LEU29       0.0311
     90  CG        -9.3730   -1.4660    2.0860 C.3    29  LEU29       0.0022
     91  CD1       -8.8390   -0.4120    1.1250 C.3    29  LEU29       0.0001
     92  CD2      -10.5610   -2.1920    1.4740 C.3    29  LEU29       0.0001
     93  N         -7.3310   -0.1640    4.7830 N.am   30  GLY30      -0.1955
     94  CA        -7.5140    0.4900    6.0770 C.3    30  GLY30       0.1869
     95  C         -6.4460    0.1250    7.0870 C.2    30  GLY30       0.2309
     96  O         -5.2990   -0.1760    6.7370 O.2    30  GLY30      -0.2863
     97  N          3.6820    0.4330    6.9690 N.3    43  CYS43      -0.1235
     98  CA         2.3350    0.4910    6.4080 C.3    43  CYS43       0.1677
     99  C          1.5170    1.6260    7.0270 C.2    43  CYS43       0.2270
    100  O          0.7570    2.2910    6.3310 O.2    43  CYS43      -0.2867
    101  CB         1.6280   -0.8540    6.5590 C.3    43  CYS43       0.0956
    102  SG         2.3620   -2.1450    5.5350 S.3    43  CYS43      -0.0801
    103  N          2.6330    4.7210    5.3050 N.3    46  HIS46      -0.1226
    104  CA         2.0820    4.7140    3.9550 C.3    46  HIS46       0.1752
    105  C          0.5830    5.0620    3.9230 C.2    46  HIS46       0.2596
    106  O          0.1390    5.8300    3.0730 O.2    46  HIS46      -0.2718
    107  CB         2.3570    3.3530    3.3130 C.3    46  HIS46       0.0759
    108  CG         2.1020    3.3150    1.8440 C.ar   46  HIS46       0.0818
    109  ND1        1.1120    2.5460    1.2820 N.ar   46  HIS46      -0.2268
    110  CD2        2.7070    3.9610    0.8180 C.ar   46  HIS46       0.1154
    111  CE1        1.1190    2.7100   -0.0280 C.ar   46  HIS46       0.1986
    112  NE2        2.0780    3.5670   -0.3350 N.ar   46  HIS46      -0.2212
    113  N         -0.1950    4.5000    4.8500 N.am   47  ASP47      -0.1974
    114  CA        -1.6130    4.8840    5.0090 C.3    47  ASP47       0.1709
    115  C         -1.7670    6.3870    5.2170 C.2    47  ASP47       0.2293
    116  O         -2.6350    7.0180    4.6060 O.2    47  ASP47      -0.2864
    117  CB        -2.2470    4.1510    6.1960 C.3    47  ASP47       0.1436
    118  CG        -2.4520    2.6710    5.9440 C.2    47  ASP47       0.3671
    119  OD1       -2.0350    2.1250    4.8930 O.co2  47  ASP47      -0.2456
    120  OD2       -3.0650    2.0120    6.8150 O.co2  47  ASP47      -0.2456
    121  N         -1.0080    8.1900    1.8460 N.3    50  TYR50      -0.1241
    122  CA        -2.2000    8.1060    0.9930 C.3    50  TYR50       0.1605
    123  C         -3.3370    9.0250    1.4580 C.2    50  TYR50       0.2264
    124  O         -4.0160    9.6430    0.6240 O.2    50  TYR50      -0.2867
    125  CB        -2.6860    6.6580    0.8810 C.3    50  TYR50       0.0534
    126  CG        -2.0240    5.8320   -0.2210 C.ar   50  TYR50      -0.0201
    127  CD1       -0.7640    6.1650   -0.7490 C.ar   50  TYR50      -0.0009
    128  CD2       -2.6600    4.6960   -0.7290 C.ar   50  TYR50      -0.0009
    129  CE1       -0.1820    5.3970   -1.7550 C.ar   50  TYR50       0.0417
    130  CE2       -2.0810    3.9250   -1.7330 C.ar   50  TYR50       0.0417
    131  CZ        -0.8360    4.2820   -2.2410 C.ar   50  TYR50       0.1957
    132  OH        -0.2550    3.5050   -3.2330 O.3    50  TYR50      -0.2866
    133  N         -5.2840    4.9270   -5.0150 N.3    61  LYS61      -0.1245
    134  CA        -5.5360    3.5430   -5.4000 C.3    61  LYS61       0.1561
    135  C         -5.6000    3.2900   -6.9030 C.2    61  LYS61       0.2260
    136  O         -5.3300    2.1840   -7.3510 O.2    61  LYS61      -0.2867
    137  CB        -6.8120    3.0190   -4.7170 C.3    61  LYS61       0.0271
    138  CG        -6.7290    3.0630   -3.1960 C.3    61  LYS61       0.0035
    139  CD        -7.8430    2.2730   -2.5080 C.3    61  LYS61       0.0206
    140  CE        -9.0560    3.1340   -2.1890 C.3    61  LYS61       0.1093
    141  NZ       -10.1500    2.3430   -1.5420 N.3    61  LYS61      -0.1314
    142  N          7.4430    3.6810    1.0270 N.3    94  ILE94      -0.1245
    143  CA         7.0810    2.3980    1.6510 C.3    94  ILE94       0.1561
    144  C          7.9590    1.2660    1.1130 C.2    94  ILE94       0.2260
    145  O          8.3790    0.4070    1.8840 O.2    94  ILE94      -0.2867
    146  CB         5.5790    2.0320    1.5900 C.3    94  ILE94       0.0252
    147  CG1        5.2740    0.9980    2.7080 C.3    94  ILE94       0.0019
    148  CG2        5.1470    1.5860    0.1890 C.3    94  ILE94       0.0019
    149  CD1        3.9640    0.2530    2.5900 C.3    94  ILE94       0.0001
    150  N         10.0680   -1.0340    3.6730 N.3    98  LEU98      -0.1245
    151  CA         9.8500   -2.4760    3.7930 C.3    98  LEU98       0.1561
    152  C         11.0790   -3.3100    3.4460 C.2    98  LEU98       0.2260
    153  O         11.3010   -4.3600    4.0340 O.2    98  LEU98      -0.2867
    154  CB         8.6760   -2.9060    2.9180 C.3    98  LEU98       0.0270
    155  CG         7.3160   -2.3410    3.3380 C.3    98  LEU98       0.0019
    156  CD1        6.2920   -2.6240    2.2540 C.3    98  LEU98       0.0001
    157  CD2        6.8520   -2.9140    4.6690 C.3    98  LEU98       0.0001
@<TRIPOS>BOND
     1     3     4    2
     2     3     2    1
     3   136   135    2
     4     1     2    1
     5   135   134    1
     6     9    10    1
     7    19    20    2
     8    19    18    1
     9    21    18    1
    10     2     5    1
    11     5     7    1
    12     5     6    1
    13    18    17    1
    14    17    11   am
    15   134   133    1
    16   134   137    1
    17    10    11    1
    18    10    13    1
    19    11    12    2
    20     6     8    1
    21    34    35    1
    22    34    33    1
    23   137   138    1
    24    22    23    1
    25    35    29    1
    26    13    14    1
    27    43    41    1
    28    24    23    1
    29    24    25    2
    30    41    40    1
    31    33    30    1
    32    23    26    1
    33   132   131    1
    34   138   139    1
    35    29    30    1
    36    14    15    1
    37    14    16    1
    38    26    28    1
    39    26    27    1
    40   139   140    1
    41    30    31    1
    42    40    42    1
    43    40    37    1
    44   131   129   ar
    45   131   130   ar
    46    36    31   am
    47    36    37    1
    48   140   141    1
    49    63    62    1
    50    62    61    1
    51    31    32    2
    52   129   127   ar
    53   130   128   ar
    54    37    38    1
    55   127   126   ar
    56   128   126   ar
    57    61    60    1
    58   112   111   ar
    59   112   110   ar
    60   126   125    1
    61    38    39    2
    62   111   109   ar
    63   148   146    1
    64   124   123    2
    65    60    57    1
    66   110   108   ar
    67   125   122    1
    68   122   123    1
    69   122   121    1
    70   142   143    1
    71   144   143    1
    72   144   145    2
    73    91    90    1
    74   109   108   ar
    75    51    53   ar
    76    51    49   ar
    77    53    54   ar
    78    92    90    1
    79   146   143    1
    80   146   147    1
    81    57    56    1
    82    57    58    1
    83   108   107    1
    84    56    46   am
    85    44    45    1
    86    90    89    1
    87   156   155    1
    88    48    49    1
    89    48    45    1
    90    89    86    1
    91    49    50   ar
    92    54    55    1
    93    54    52   ar
    94   149   147    1
    95    46    45    1
    96    46    47    2
    97    58    59    2
    98   154   155    1
    99   154   151    1
   100   106   105    2
   101    86    85    1
   102    86    87    1
   103   107   104    1
   104    85    83   am
   105   155   157    1
   106   152   151    1
   107   152   153    2
   108   150   151    1
   109    50    52   ar
   110    82    83    1
   111    82    81    1
   112    83    84    2
   113   105   104    1
   114   105   113   am
   115   104   103    1
   116    81    77   am
   117    87    93   am
   118    87    88    2
   119   116   115    2
   120    93    94    1
   121   113   114    1
   122   119   118   ar
   123   114   115    1
   124   114   117    1
   125    77    78    2
   126    77    76    1
   127   102   101    1
   128   102    80    1
   129    79    76    1
   130    79    80    1
   131    76    75    1
   132   118   117    1
   133   118   120   ar
   134    94    95    1
   135   100    99    2
   136    98   101    1
   137    98    97    1
   138    98    99    1
   139    67    66    2
   140    96    95    2
   141    75    66   am
   142    66    65    1
   143    65    68    1
   144    65    64    1
   145    68    69    1
   146    70    69   ar
   147    70    72   ar
   148    69    71   ar
   149    72    74   ar
   150    71    73   ar
   151    74    73   ar
