@<TRIPOS>MOLECULE
tmp/5oweA00.pdb
 114 113 0 0 0
SMALL
GASTEIGER

@<TRIPOS>ATOM
      1  N         16.3290  -12.7850    5.0300 N.3    26  ILE26      -0.1231
      2  CA        14.9090  -12.6040    4.7790 C.3    26  ILE26       0.1692
      3  C         14.1690  -13.9200    4.9570 C.2    26  ILE26       0.2592
      4  O         13.0150  -13.9440    5.3980 O.2    26  ILE26      -0.2718
      5  CB        14.7140  -12.0320    3.3640 C.3    26  ILE26       0.0266
      6  CG1       15.2780  -10.6140    3.2790 C.3    26  ILE26       0.0019
      7  CG2       13.2510  -12.0690    2.9350 C.3    26  ILE26       0.0020
      8  CD1       15.8860  -10.2930    1.9340 C.3    26  ILE26       0.0001
      9  N         14.8270  -15.0320    4.6510 N.am   27  PHE27      -0.1976
     10  CA        14.1820  -16.3340    4.5830 C.3    27  PHE27       0.1639
     11  C         14.6460  -17.2780    5.6890 C.2    27  PHE27       0.2290
     12  O         14.4420  -18.4850    5.5900 O.2    27  PHE27      -0.2864
     13  CB        14.4420  -16.9390    3.2090 C.3    27  PHE27       0.0560
     14  CG        14.0790  -16.0310    2.0780 C.ar   27  PHE27      -0.0200
     15  CD1       12.7520  -15.7540    1.8000 C.ar   27  PHE27      -0.0042
     16  CD2       15.0580  -15.4430    1.2980 C.ar   27  PHE27      -0.0042
     17  CE1       12.4080  -14.9290    0.7680 C.ar   27  PHE27      -0.0003
     18  CE2       14.7200  -14.5950    0.2720 C.ar   27  PHE27      -0.0003
     19  CZ        13.3920  -14.3520   -0.0090 C.ar   27  PHE27      -0.0000
     20  N         13.6620  -17.6020    8.9010 N.3    29  GLU29      -0.1231
     21  CA        12.6080  -18.0860    9.7760 C.3    29  GLU29       0.1684
     22  C         11.2870  -18.0360    9.0340 C.2    29  GLU29       0.2434
     23  O         11.1750  -17.3610    8.0070 O.2    29  GLU29      -0.2733
     24  CB        12.5440  -17.2310   11.0520 C.3    29  GLU29       0.0402
     25  CG        13.8690  -17.1550   11.7930 C.3    29  GLU29       0.1161
     26  CD        14.0110  -15.8780   12.5860 C.2    29  GLU29       0.3649
     27  OE1       13.0160  -15.4420   13.2000 O.co2  29  GLU29      -0.2457
     28  OE2       15.1150  -15.2970   12.5760 O.co2  29  GLU29      -0.2457
     29  N         10.2660  -18.7440    9.5150 N.am   30  PRO30      -0.2718
     30  CA         8.9500  -18.6560    8.8750 C.3    30  PRO30       0.1535
     31  C          8.4850  -17.2100    8.7480 C.2    30  PRO30       0.2598
     32  O          8.8430  -16.3440    9.5510 O.2    30  PRO30      -0.2715
     33  CB         8.0480  -19.4600    9.8170 C.3    30  PRO30       0.0310
     34  CG         8.9580  -20.4470   10.4600 C.3    30  PRO30       0.0237
     35  CD        10.2800  -19.7320   10.6110 C.3    30  PRO30       0.0939
     36  N          7.6960  -16.9510    7.7110 N.am   31  VAL31      -0.1964
     37  CA         7.1270  -15.6100    7.5560 C.3    31  VAL31       0.1712
     38  C          6.2630  -15.3020    8.7690 C.2    31  VAL31       0.2458
     39  O          5.3960  -16.1200    9.1270 O.2    31  VAL31      -0.2730
     40  CB         6.3080  -15.5170    6.2600 C.3    31  VAL31       0.0289
     41  CG1        5.6210  -14.1640    6.1590 C.3    31  VAL31       0.0023
     42  CG2        7.2120  -15.7470    5.0560 C.3    31  VAL31       0.0023
     43  N          6.4640  -14.1700    9.4540 N.am   32  PRO32      -0.2727
     44  CA         5.7100  -13.9060   10.6900 C.3    32  PRO32       0.1402
     45  C          4.2250  -13.6960   10.4420 C.2    32  PRO32       0.2269
     46  O          3.7920  -12.5940   10.0920 O.2    32  PRO32      -0.2865
     47  CB         6.3750  -12.6380   11.2410 C.3    32  PRO32       0.0296
     48  CG         6.9710  -11.9720   10.0470 C.3    32  PRO32       0.0237
     49  CD         7.4120  -13.0890    9.1400 C.3    32  PRO32       0.0939
     50  N          2.3380  -10.7940   11.6800 N.3    35  GLU35      -0.1231
     51  CA         2.5720   -9.5220   11.0140 C.3    35  GLU35       0.1699
     52  C          2.1010   -9.5050    9.5700 C.2    35  GLU35       0.2592
     53  O          1.9270   -8.4200    9.0060 O.2    35  GLU35      -0.2718
     54  CB         4.0640   -9.1680   11.0660 C.3    35  GLU35       0.0402
     55  CG         4.6280   -9.1910   12.4760 C.3    35  GLU35       0.1161
     56  CD         6.1340   -9.0770   12.5010 C.2    35  GLU35       0.3649
     57  OE1        6.7300   -8.8850   11.4180 O.co2  35  GLU35      -0.2457
     58  OE2        6.7170   -9.1840   13.6020 O.co2  35  GLU35      -0.2457
     59  N          1.8930  -10.6700    8.9650 N.am   36  VAL36      -0.1980
     60  CA         1.3290  -10.7840    7.6230 C.3    36  VAL36       0.1595
     61  C          0.0380  -11.5840    7.7370 C.2    36  VAL36       0.2287
     62  O          0.0300  -12.7900    7.4560 O.2    36  VAL36      -0.2864
     63  CB         2.3150  -11.4520    6.6550 C.3    36  VAL36       0.0276
     64  CG1        1.8110  -11.3530    5.2300 C.3    36  VAL36       0.0022
     65  CG2        3.6880  -10.8260    6.7920 C.3    36  VAL36       0.0022
     66  N         -1.3250  -14.0780    4.8080 N.3    39  TYR39      -0.1241
     67  CA        -0.3030  -14.8120    4.0690 C.3    39  TYR39       0.1605
     68  C         -0.8140  -16.1760    3.6120 C.2    39  TYR39       0.2264
     69  O         -0.7320  -16.5170    2.4250 O.2    39  TYR39      -0.2867
     70  CB         0.9570  -14.9600    4.9250 C.3    39  TYR39       0.0534
     71  CG         2.1460  -15.4940    4.1540 C.ar   39  TYR39      -0.0201
     72  CD1        2.8410  -14.6860    3.2620 C.ar   39  TYR39      -0.0009
     73  CD2        2.5660  -16.8060    4.3110 C.ar   39  TYR39      -0.0009
     74  CE1        3.9160  -15.1720    2.5460 C.ar   39  TYR39       0.0417
     75  CE2        3.6470  -17.2980    3.6020 C.ar   39  TYR39       0.0417
     76  CZ         4.3190  -16.4740    2.7250 C.ar   39  TYR39       0.1957
     77  OH         5.3960  -16.9760    2.0120 O.3    39  TYR39      -0.2866
     78  N          7.6300  -16.3400   -2.2230 N.3    78  CYS78      -0.1235
     79  CA         7.9430  -14.9210   -2.1200 C.3    78  CYS78       0.1677
     80  C          7.6200  -14.1810   -3.4190 C.2    78  CYS78       0.2270
     81  O          7.1290  -13.0430   -3.3820 O.2    78  CYS78      -0.2867
     82  CB         9.4150  -14.7690   -1.7370 C.3    78  CYS78       0.0956
     83  SG         9.9430  -13.1270   -1.2810 S.3    78  CYS78      -0.0801
     84  N          3.6650  -13.8340   -3.3980 N.3    81  TYR81      -0.1227
     85  CA         2.9750  -12.9720   -2.4420 C.3    81  TYR81       0.1736
     86  C          3.2580  -11.4970   -2.6920 C.2    81  TYR81       0.2595
     87  O          2.3870  -10.6480   -2.4700 O.2    81  TYR81      -0.2718
     88  CB         3.3690  -13.3310   -1.0110 C.3    81  TYR81       0.0548
     89  CG         2.5950  -12.5180   -0.0050 C.ar   81  TYR81      -0.0200
     90  CD1        1.3340  -12.9200    0.4190 C.ar   81  TYR81      -0.0009
     91  CD2        3.1030  -11.3200    0.4840 C.ar   81  TYR81      -0.0009
     92  CE1        0.6090  -12.1590    1.3220 C.ar   81  TYR81       0.0417
     93  CE2        2.3870  -10.5560    1.3820 C.ar   81  TYR81       0.0417
     94  CZ         1.1430  -10.9820    1.7980 C.ar   81  TYR81       0.1957
     95  OH         0.4350  -10.2190    2.6920 O.3    81  TYR81      -0.2866
     96  N          4.4680  -11.1700   -3.1410 N.am   82  ASN82      -0.1974
     97  CA         4.9550   -9.7990   -3.1530 C.3    82  ASN82       0.1688
     98  C          4.9630   -9.2100   -4.5570 C.2    82  ASN82       0.2292
     99  O          5.2370   -9.9030   -5.5390 O.2    82  ASN82      -0.2864
    100  CB         6.3610   -9.7400   -2.5610 C.3    82  ASN82       0.1181
    101  CG         6.3820  -10.1850   -1.1170 C.2    82  ASN82       0.2629
    102  OD1        5.9890   -9.4280   -0.2330 O.2    82  ASN82      -0.2716
    103  ND2        6.8230  -11.4120   -0.8710 N.am   82  ASN82      -0.0877
    104  N         11.3630   -7.5810   -1.2810 N.3    88  PHE88      -0.1241
    105  CA        11.1530   -9.0150   -1.1170 C.3    88  PHE88       0.1605
    106  C         11.1780   -9.7380   -2.4540 C.2    88  PHE88       0.2264
    107  O         11.8440  -10.7720   -2.6000 O.2    88  PHE88      -0.2867
    108  CB         9.8270   -9.2860   -0.4110 C.3    88  PHE88       0.0534
    109  CG         9.8620   -9.0340    1.0610 C.ar   88  PHE88      -0.0203
    110  CD1       10.9630   -9.4040    1.8130 C.ar   88  PHE88      -0.0042
    111  CD2        8.7970   -8.4210    1.6940 C.ar   88  PHE88      -0.0042
    112  CE1       10.9980   -9.1710    3.1710 C.ar   88  PHE88      -0.0003
    113  CE2        8.8240   -8.1860    3.0510 C.ar   88  PHE88      -0.0003
    114  CZ         9.9250   -8.5600    3.7920 C.ar   88  PHE88      -0.0000
@<TRIPOS>BOND
     1    99    98    2
     2    98    97    1
     3    80    81    2
     4    80    79    1
     5    84    85    1
     6    97    96    1
     7    97   100    1
     8    96    86   am
     9    86    87    2
    10    86    85    1
    11   107   106    2
    12   100   101    1
    13   106   105    1
    14    85    88    1
    15    78    79    1
    16    79    82    1
    17    82    83    1
    18   104   105    1
    19   101   103   am
    20   101   102    2
    21   105   108    1
    22    88    89    1
    23   108   109    1
    24    19    18   ar
    25    19    17   ar
    26    89    90   ar
    27    89    91   ar
    28    18    16   ar
    29    90    92   ar
    30    91    93   ar
    31    17    15   ar
    32   109   111   ar
    33   109   110   ar
    34    16    14   ar
    35    92    94   ar
    36    93    94   ar
    37   111   113   ar
    38    94    95    1
    39    15    14   ar
    40   110   112   ar
    41     8     6    1
    42    77    76    1
    43    14    13    1
    44    69    68    2
    45    74    76   ar
    46    74    72   ar
    47    76    75   ar
    48     7     5    1
    49   113   114   ar
    50   112   114   ar
    51    13    10    1
    52    72    71   ar
    53     6     5    1
    54     5     2    1
    55    75    73   ar
    56    68    67    1
    57    67    66    1
    58    67    70    1
    59    71    73   ar
    60    71    70    1
    61    10     9    1
    62    10    11    1
    63     9     3   am
    64     2     3    1
    65     2     1    1
    66     3     4    2
    67    42    40    1
    68    64    63    1
    69    12    11    2
    70    41    40    1
    71    40    37    1
    72    63    65    1
    73    63    60    1
    74    62    61    2
    75    37    36    1
    76    37    38    1
    77    60    61    1
    78    60    59    1
    79    36    31   am
    80    23    22    2
    81    31    30    1
    82    31    32    2
    83    38    39    2
    84    38    43   am
    85    30    29    1
    86    30    33    1
    87    20    21    1
    88    59    52   am
    89    53    52    2
    90    22    29   am
    91    22    21    1
    92    49    43    1
    93    49    48    1
    94    43    44    1
    95    29    35    1
    96    52    51    1
    97    21    24    1
    98    33    34    1
    99    48    47    1
   100    46    45    2
   101    45    44    1
   102    34    35    1
   103    44    47    1
   104    51    54    1
   105    51    50    1
   106    24    25    1
   107    54    55    1
   108    57    56   ar
   109    25    26    1
   110    55    56    1
   111    56    58   ar
   112    28    26   ar
   113    26    27   ar
