@<TRIPOS>MOLECULE
tmp/5owkA00.pdb
 102 97 0 0 0
SMALL
GASTEIGER

@<TRIPOS>ATOM
      1  N          7.4170   24.5360   69.1310 N.3    27  LEU27      -0.1231
      2  CA         8.1470   24.1450   70.3350 C.3    27  LEU27       0.1678
      3  C          7.3040   23.3770   71.3400 C.2    27  LEU27       0.2434
      4  O          7.8140   22.3970   71.9110 O.2    27  LEU27      -0.2733
      5  CB         8.8410   25.3470   70.9860 C.3    27  LEU27       0.0284
      6  CG         9.8640   26.0790   70.1290 C.3    27  LEU27       0.0019
      7  CD1       10.4880   27.2280   70.9120 C.3    27  LEU27       0.0001
      8  CD2       10.9330   25.1380   69.6290 C.3    27  LEU27       0.0001
      9  N          6.0460   23.7420   71.6070 N.am   28  PRO28      -0.2718
     10  CA         5.2480   22.9480   72.5530 C.3    28  PRO28       0.1535
     11  C          4.9050   21.5660   72.0570 C.2    28  PRO28       0.2598
     12  O          4.3520   20.7840   72.8360 O.2    28  PRO28      -0.2715
     13  CB         3.9760   23.7880   72.7330 C.3    28  PRO28       0.0310
     14  CG         4.4010   25.1790   72.3850 C.3    28  PRO28       0.0237
     15  CD         5.3580   24.9970   71.2520 C.3    28  PRO28       0.0939
     16  N          5.2060   21.2470   70.7990 N.am   29  PHE29      -0.1974
     17  CA         4.7920   20.0070   70.1600 C.3    29  PHE29       0.1639
     18  C          5.9630   19.0910   69.8640 C.2    29  PHE29       0.2290
     19  O          5.7570   17.9930   69.3380 O.2    29  PHE29      -0.2864
     20  CB         4.0400   20.3300   68.8620 C.3    29  PHE29       0.0560
     21  CG         2.8210   21.1530   69.0950 C.ar   29  PHE29      -0.0200
     22  CD1        2.8870   22.5370   69.1500 C.ar   29  PHE29      -0.0042
     23  CD2        1.6060   20.5310   69.3360 C.ar   29  PHE29      -0.0042
     24  CE1        1.7540   23.2910   69.4060 C.ar   29  PHE29      -0.0003
     25  CE2        0.4670   21.2790   69.5910 C.ar   29  PHE29      -0.0003
     26  CZ         0.5490   22.6570   69.6330 C.ar   29  PHE29      -0.0000
     27  N          8.1610   17.4780   71.8310 N.3    31  GLN31      -0.1245
     28  CA         8.3810   16.3550   72.7280 C.3    31  GLN31       0.1566
     29  C          7.0520   15.9780   73.3520 C.2    31  GLN31       0.2260
     30  O          6.1350   16.8040   73.4080 O.2    31  GLN31      -0.2867
     31  CB         9.3690   16.7230   73.8420 C.3    31  GLN31       0.0367
     32  CG        10.7820   17.0080   73.3310 C.3    31  GLN31       0.0905
     33  CD        11.4310   15.7890   72.6890 C.2    31  GLN31       0.2608
     34  OE1       12.1610   15.9070   71.7010 O.2    31  GLN31      -0.2717
     35  NE2       11.1780   14.6170   73.2520 N.am   31  GLN31      -0.0878
     36  N          4.1160   15.7290   75.8330 N.3    33  VAL33      -0.1245
     37  CA         3.7260   16.5280   76.9910 C.3    33  VAL33       0.1561
     38  C          4.1140   15.7830   78.2530 C.2    33  VAL33       0.2260
     39  O          3.7850   14.6010   78.4170 O.2    33  VAL33      -0.2867
     40  CB         2.2110   16.7880   76.9630 C.3    33  VAL33       0.0252
     41  CG1        1.7230   17.4290   78.2670 C.3    33  VAL33       0.0019
     42  CG2        1.8610   17.6710   75.7830 C.3    33  VAL33       0.0019
     43  N          5.4600   20.2850   83.2800 N.3    38  LEU38      -0.1245
     44  CA         4.8560   21.4900   82.7330 C.3    38  LEU38       0.1561
     45  C          3.8270   22.1150   83.6540 C.2    38  LEU38       0.2260
     46  O          3.2350   23.1360   83.2840 O.2    38  LEU38      -0.2867
     47  CB         4.1920   21.1940   81.3900 C.3    38  LEU38       0.0270
     48  CG         5.1360   20.7690   80.2750 C.3    38  LEU38       0.0019
     49  CD1        4.3320   20.4460   79.0290 C.3    38  LEU38       0.0001
     50  CD2        6.1670   21.8600   80.0010 C.3    38  LEU38       0.0001
     51  N          0.8810   20.9410   84.5150 N.3    40  ILE40      -0.1245
     52  CA        -0.4800   20.6400   84.0760 C.3    40  ILE40       0.1561
     53  C         -0.8230   19.2040   84.4660 C.2    40  ILE40       0.2260
     54  O         -1.0400   18.3430   83.5940 O.2    40  ILE40      -0.2867
     55  CB        -0.6650   20.9410   82.5810 C.3    40  ILE40       0.0252
     56  CG1        0.4600   20.3130   81.7490 C.3    40  ILE40       0.0019
     57  CG2       -0.7260   22.4560   82.3530 C.3    40  ILE40       0.0019
     58  CD1        0.1910   20.3430   80.2660 C.3    40  ILE40       0.0001
     59  N         -3.3790   16.5880   82.7500 N.3    43  TYR43      -0.1241
     60  CA        -3.3420   16.4250   81.2970 C.3    43  TYR43       0.1605
     61  C         -3.8410   15.0500   80.8490 C.2    43  TYR43       0.2264
     62  O         -4.6970   14.9460   79.9630 O.2    43  TYR43      -0.2867
     63  CB        -1.9250   16.6900   80.7930 C.3    43  TYR43       0.0534
     64  CG        -1.8380   16.6040   79.2970 C.ar   43  TYR43      -0.0201
     65  CD1       -2.2250   17.6770   78.5020 C.ar   43  TYR43      -0.0009
     66  CD2       -1.3830   15.4560   78.6800 C.ar   43  TYR43      -0.0009
     67  CE1       -2.1680   17.5900   77.1240 C.ar   43  TYR43       0.0417
     68  CE2       -1.3020   15.3640   77.3110 C.ar   43  TYR43       0.0417
     69  CZ        -1.7080   16.4280   76.5350 C.ar   43  TYR43       0.1957
     70  OH        -1.6410   16.3080   75.1620 O.3    43  TYR43      -0.2866
     71  N         -4.3180   19.0970   71.4770 N.3    82  ALA82      -0.1245
     72  CA        -3.9820   20.4260   71.9620 C.3    82  ALA82       0.1562
     73  C         -5.1950   21.3420   71.9520 C.2    82  ALA82       0.2260
     74  O         -5.3660   22.1560   72.8660 O.2    82  ALA82      -0.2867
     75  CB        -2.8290   21.0290   71.1690 C.3    82  ALA82       0.0290
     76  N         -7.2350   20.1590   75.1230 N.3    85  TYR85      -0.1227
     77  CA        -6.7350   20.4320   76.4640 C.3    85  TYR85       0.1736
     78  C         -6.6480   21.9250   76.7660 C.2    85  TYR85       0.2595
     79  O         -6.9330   22.3530   77.8940 O.2    85  TYR85      -0.2718
     80  CB        -5.3660   19.7740   76.6840 C.3    85  TYR85       0.0548
     81  CG        -4.9000   20.0570   78.0830 C.ar   85  TYR85      -0.0200
     82  CD1       -5.4440   19.3690   79.1460 C.ar   85  TYR85      -0.0009
     83  CD2       -3.9980   21.0800   78.3530 C.ar   85  TYR85      -0.0009
     84  CE1       -5.0820   19.6660   80.4390 C.ar   85  TYR85       0.0417
     85  CE2       -3.6340   21.3800   79.6470 C.ar   85  TYR85       0.0417
     86  CZ        -4.1790   20.6710   80.6760 C.ar   85  TYR85       0.1957
     87  OH        -3.8270   20.9670   81.9780 O.3    85  TYR85      -0.2866
     88  N         -6.2250   22.7250   75.7960 N.am   86  ASN86      -0.1974
     89  CA        -5.8620   24.1130   76.0430 C.3    86  ASN86       0.1688
     90  C         -7.0270   25.0300   75.7130 C.2    86  ASN86       0.2292
     91  O         -7.8370   24.7410   74.8320 O.2    86  ASN86      -0.2864
     92  CB        -4.6510   24.4890   75.1920 C.3    86  ASN86       0.1181
     93  CG        -3.4580   23.6290   75.5020 C.2    86  ASN86       0.2629
     94  OD1       -2.7460   23.8710   76.4790 O.2    86  ASN86      -0.2716
     95  ND2       -3.2350   22.6000   74.6940 N.am   86  ASN86      -0.0877
     96  N         -0.6940   27.9510   73.4710 N.3    92  VAL92      -0.1245
     97  CA        -0.5440   26.6440   72.8350 C.3    92  VAL92       0.1561
     98  C         -1.6740   26.3770   71.8520 C.2    92  VAL92       0.2260
     99  O         -1.4420   25.8310   70.7700 O.2    92  VAL92      -0.2867
    100  CB        -0.3920   25.5370   73.8930 C.3    92  VAL92       0.0252
    101  CG1       -0.4670   24.1600   73.2600 C.3    92  VAL92       0.0019
    102  CG2        0.9210   25.6940   74.6450 C.3    92  VAL92       0.0019
@<TRIPOS>BOND
     1    20    21    1
     2    20    17    1
     3    21    22   ar
     4    21    23   ar
     5     1     2    1
     6    22    24   ar
     7    23    25   ar
     8    19    18    2
     9    24    26   ar
    10    25    26   ar
    11     8     6    1
    12    18    17    1
    13     6     7    1
    14     6     5    1
    15    17    16    1
    16     2     5    1
    17     2     3    1
    18    99    98    2
    19    16    11   am
    20    75    72    1
    21    15     9    1
    22    15    14    1
    23     3     9   am
    24     3     4    2
    25    71    72    1
    26     9    10    1
    27    34    33    2
    28    27    28    1
    29    98    97    1
    30    73    72    1
    31    73    74    2
    32    11    10    1
    33    11    12    2
    34    14    13    1
    35    10    13    1
    36    33    35   am
    37    33    32    1
    38    28    29    1
    39    28    31    1
    40    97    96    1
    41    97   100    1
    42   101   100    1
    43    32    31    1
    44    29    30    2
    45   100   102    1
    46    95    93   am
    47    91    90    2
    48    76    77    1
    49    70    69    1
    50    92    93    1
    51    92    89    1
    52    93    94    2
    53    90    89    1
    54    42    40    1
    55    88    89    1
    56    88    78   am
    57    36    37    1
    58    77    80    1
    59    77    78    1
    60    69    67   ar
    61    69    68   ar
    62    80    81    1
    63    78    79    2
    64    40    37    1
    65    40    41    1
    66    37    38    1
    67    67    65   ar
    68    68    66   ar
    69    81    83   ar
    70    81    82   ar
    71    38    39    2
    72    83    85   ar
    73    65    64   ar
    74    66    64   ar
    75    49    48    1
    76    82    84   ar
    77    64    63    1
    78    85    86   ar
    79    62    61    2
    80    50    48    1
    81    58    56    1
    82    48    47    1
    83    84    86   ar
    84    86    87    1
    85    63    60    1
    86    61    60    1
    87    60    59    1
    88    47    44    1
    89    56    55    1
    90    57    55    1
    91    55    52    1
    92    44    43    1
    93    44    45    1
    94    46    45    2
    95    54    53    2
    96    52    53    1
    97    52    51    1
