@<TRIPOS>MOLECULE
tmp/5owlB00.pdb
 137 128 0 0 0
SMALL
GASTEIGER

@<TRIPOS>ATOM
      1  N        -14.5510  -71.7300   29.8580 N.3    44  LEU44      -0.1245
      2  CA       -15.6420  -70.8160   29.5450 C.3    44  LEU44       0.1561
      3  C        -15.1870  -69.3880   29.2670 C.2    44  LEU44       0.2260
      4  O        -16.0370  -68.5160   29.0640 O.2    44  LEU44      -0.2867
      5  CB       -16.6690  -70.8080   30.6810 C.3    44  LEU44       0.0270
      6  CG       -17.4300  -72.1120   30.9160 C.3    44  LEU44       0.0019
      7  CD1      -18.4420  -71.9530   32.0420 C.3    44  LEU44       0.0001
      8  CD2      -18.1140  -72.5570   29.6290 C.3    44  LEU44       0.0001
      9  N         -8.5800  -63.9770   36.3190 N.3    50  SER50      -0.1217
     10  CA        -8.9460  -65.3710   36.5310 C.3    50  SER50       0.1889
     11  C         -9.2860  -66.0380   35.2080 C.2    50  SER50       0.2288
     12  O         -9.5540  -65.3750   34.2020 O.2    50  SER50      -0.2866
     13  CB       -10.1350  -65.4930   37.4870 C.3    50  SER50       0.2089
     14  OG       -11.3230  -65.0360   36.8640 O.3    50  SER50      -0.2183
     15  N        -11.9120  -69.0720   33.7910 N.3    52  VAL52      -0.1245
     16  CA       -13.1790  -69.6850   34.1710 C.3    52  VAL52       0.1561
     17  C        -13.3930  -70.9590   33.3690 C.2    52  VAL52       0.2260
     18  O        -13.2570  -70.9620   32.1390 O.2    52  VAL52      -0.2867
     19  CB       -14.3450  -68.7020   33.9680 C.3    52  VAL52       0.0252
     20  CG1      -15.6380  -69.3030   34.4740 C.3    52  VAL52       0.0019
     21  CG2      -14.0480  -67.3900   34.6760 C.3    52  VAL52       0.0019
     22  N        -19.0360  -74.4080   38.0940 N.3    65  VAL65      -0.1245
     23  CA       -18.1500  -73.4850   37.3970 C.3    65  VAL65       0.1561
     24  C        -16.9710  -73.1830   38.3130 C.2    65  VAL65       0.2260
     25  O        -17.1630  -72.8070   39.4760 O.2    65  VAL65      -0.2867
     26  CB       -18.8840  -72.1920   36.9960 C.3    65  VAL65       0.0252
     27  CG1      -17.9150  -71.1830   36.4170 C.3    65  VAL65       0.0019
     28  CG2      -19.9900  -72.4990   35.9970 C.3    65  VAL65       0.0019
     29  N        -13.5170  -71.0090   38.9370 N.3    67  LYS67      -0.1245
     30  CA       -12.7850  -69.7870   38.6200 C.3    67  LYS67       0.1561
     31  C        -11.4100  -69.8880   39.2740 C.2    67  LYS67       0.2260
     32  O        -11.2760  -69.7200   40.4890 O.2    67  LYS67      -0.2867
     33  CB       -13.5620  -68.5690   39.1100 C.3    67  LYS67       0.0271
     34  CG       -12.8500  -67.2400   38.9760 C.3    67  LYS67       0.0035
     35  CD       -13.7980  -66.1090   39.3600 C.3    67  LYS67       0.0206
     36  CE       -13.0640  -64.8020   39.6030 C.3    67  LYS67       0.1093
     37  NZ       -13.9780  -63.7650   40.1630 N.3    67  LYS67      -0.1314
     38  N        -13.1580  -61.1780   48.7150 N.3    80  GLU80      -0.1245
     39  CA       -14.1680  -61.7350   47.8200 C.3    80  GLU80       0.1567
     40  C        -14.8430  -62.9490   48.4380 C.2    80  GLU80       0.2260
     41  O        -16.0660  -63.1060   48.3410 O.2    80  GLU80      -0.2867
     42  CB       -13.5430  -62.1090   46.4770 C.3    80  GLU80       0.0388
     43  CG       -14.5370  -62.7560   45.5150 C.3    80  GLU80       0.1160
     44  CD       -13.9410  -63.0680   44.1550 C.2    80  GLU80       0.3649
     45  OE1      -12.7290  -62.8380   43.9630 O.co2  80  GLU80      -0.2457
     46  OE2      -14.6900  -63.5510   43.2780 O.co2  80  GLU80      -0.2457
     47  N        -24.9090  -65.0690   43.0980 N.3    94  ILE94      -0.1245
     48  CA       -24.2540  -66.3220   42.7440 C.3    94  ILE94       0.1561
     49  C        -23.8640  -67.0670   44.0160 C.2    94  ILE94       0.2260
     50  O        -23.4620  -66.4630   45.0190 O.2    94  ILE94      -0.2867
     51  CB       -23.0390  -66.0560   41.8380 C.3    94  ILE94       0.0252
     52  CG1      -22.5500  -67.3530   41.1920 C.3    94  ILE94       0.0019
     53  CG2      -21.9090  -65.3720   42.6010 C.3    94  ILE94       0.0019
     54  CD1      -23.4920  -67.8970   40.1480 C.3    94  ILE94       0.0001
     55  N        -18.4000  -72.2620   41.8850 N.3   112  PHE112     -0.1227
     56  CA       -19.6980  -71.6050   41.9080 C.3   112  PHE112      0.1736
     57  C        -20.7720  -72.5320   41.3550 C.2   112  PHE112      0.2595
     58  O        -20.4870  -73.4900   40.6310 O.2   112  PHE112     -0.2718
     59  CB       -19.6900  -70.3070   41.0880 C.3   112  PHE112      0.0547
     60  CG       -18.7960  -69.2360   41.6420 C.ar  112  PHE112     -0.0202
     61  CD1      -19.2700  -68.3370   42.5820 C.ar  112  PHE112     -0.0042
     62  CD2      -17.4840  -69.1180   41.2110 C.ar  112  PHE112     -0.0042
     63  CE1      -18.4510  -67.3460   43.0910 C.ar  112  PHE112     -0.0003
     64  CE2      -16.6600  -68.1290   41.7150 C.ar  112  PHE112     -0.0003
     65  CZ       -17.1440  -67.2420   42.6570 C.ar  112  PHE112     -0.0000
     66  N        -22.0200  -72.2280   41.7050 N.am  113  GLU113     -0.1979
     67  CA       -23.1530  -72.8790   41.0630 C.3   113  GLU113      0.1602
     68  C        -23.1410  -72.5830   39.5680 C.2   113  GLU113      0.2287
     69  O        -22.6790  -71.5280   39.1240 O.2   113  GLU113     -0.2864
     70  CB       -24.4670  -72.3980   41.6780 C.3   113  GLU113      0.0415
     71  CG       -24.6590  -70.8930   41.5860 C.3   113  GLU113      0.1163
     72  CD       -26.0940  -70.4590   41.8080 C.2   113  GLU113      0.3649
     73  OE1      -27.0130  -71.2020   41.4040 O.co2 113  GLU113     -0.2457
     74  OE2      -26.3040  -69.3700   42.3830 O.co2 113  GLU113     -0.2457
     75  N        -24.6890  -71.6620   35.9660 N.3   115  VAL115     -0.1245
     76  CA       -25.7600  -70.9160   35.3140 C.3   115  VAL115      0.1561
     77  C        -25.6180  -71.0980   33.8100 C.2   115  VAL115      0.2260
     78  O        -24.5230  -70.9320   33.2610 O.2   115  VAL115     -0.2867
     79  CB       -25.7240  -69.4220   35.6870 C.3   115  VAL115      0.0252
     80  CG1      -26.8460  -68.6690   34.9850 C.3   115  VAL115      0.0019
     81  CG2      -25.8230  -69.2480   37.1920 C.3   115  VAL115      0.0019
     82  N        -25.7330  -69.5020   31.0300 N.3   117  ASN117     -0.1240
     83  CA       -25.7440  -68.1080   30.6080 C.3   117  ASN117      0.1653
     84  C        -25.6360  -67.9800   29.0930 C.2   117  ASN117      0.2266
     85  O        -24.9250  -68.7440   28.4340 O.2   117  ASN117     -0.2867
     86  CB       -24.6000  -67.3400   31.2710 C.3   117  ASN117      0.1155
     87  CG       -24.4260  -65.9390   30.6990 C.2   117  ASN117      0.2627
     88  OD1      -25.2930  -65.0770   30.8550 O.2   117  ASN117     -0.2716
     89  ND2      -23.2990  -65.7080   30.0360 N.am  117  ASN117     -0.0877
     90  N        -21.3890  -57.9130   31.5860 N.3   159  HIS159     -0.1241
     91  CA       -20.4960  -59.0630   31.6890 C.3   159  HIS159      0.1621
     92  C        -20.6050  -59.7670   33.0370 C.2   159  HIS159      0.2264
     93  O        -20.2720  -60.9530   33.1330 O.2   159  HIS159     -0.2867
     94  CB       -19.0460  -58.6340   31.4600 C.3   159  HIS159      0.0745
     95  CG       -18.8520  -57.7740   30.2510 C.ar  159  HIS159      0.0817
     96  ND1      -19.1350  -56.4240   30.2440 N.ar  159  HIS159     -0.2268
     97  CD2      -18.3910  -58.0680   29.0130 C.ar  159  HIS159      0.1154
     98  CE1      -18.8640  -55.9260   29.0510 C.ar  159  HIS159      0.1986
     99  NE2      -18.4110  -56.9030   28.2850 N.ar  159  HIS159     -0.2212
    100  N        -25.2290  -62.9550   34.8150 N.3   162  MET162     -0.1245
    101  CA       -25.5180  -64.2040   34.1240 C.3   162  MET162      0.1570
    102  C        -27.0250  -64.4050   34.0440 C.2   162  MET162      0.2261
    103  O        -27.7360  -64.2130   35.0350 O.2   162  MET162     -0.2867
    104  CB       -24.8580  -65.3860   34.8340 C.3   162  MET162      0.0387
    105  CG       -23.3430  -65.2740   34.9890 C.3   162  MET162      0.0595
    106  SD       -22.4100  -65.3230   33.4410 S.3   162  MET162     -0.1393
    107  CE       -22.2590  -63.5790   33.0460 C.3   162  MET162      0.0692
    108  N        -22.7150  -61.8250   39.4710 N.3   173  ILE173     -0.1231
    109  CA       -21.4570  -62.5270   39.7110 C.3   173  ILE173      0.1692
    110  C        -20.3000  -61.5420   39.8100 C.2   173  ILE173      0.2592
    111  O        -20.5030  -60.3230   39.8250 O.2   173  ILE173     -0.2718
    112  CB       -21.1790  -63.5630   38.6060 C.3   173  ILE173      0.0266
    113  CG1      -20.9500  -62.8560   37.2680 C.3   173  ILE173      0.0019
    114  CG2      -22.3240  -64.5640   38.5060 C.3   173  ILE173      0.0020
    115  CD1      -20.3390  -63.7360   36.2030 C.3   173  ILE173      0.0001
    116  N        -19.0800  -62.0780   39.8810 N.am  174  ASP174     -0.1960
    117  CA       -17.8410  -61.3070   39.9120 C.3   174  ASP174      0.1840
    118  C        -17.8260  -60.2920   41.0480 C.2   174  ASP174      0.2622
    119  O        -18.0350  -59.0940   40.8280 O.2   174  ASP174     -0.2715
    120  CB       -17.6160  -60.6060   38.5720 C.3   174  ASP174      0.1450
    121  CG       -16.1720  -60.6670   38.1240 C.2   174  ASP174      0.3671
    122  OD1      -15.2810  -60.4070   38.9600 O.co2 174  ASP174     -0.2456
    123  OD2      -15.9270  -60.9760   36.9380 O.co2 174  ASP174     -0.2456
    124  N        -17.5700  -60.7670   42.2660 N.am  175  TRP175     -0.1974
    125  CA       -17.5500  -59.9290   43.4560 C.3   175  TRP175      0.1640
    126  C        -16.1330  -59.5760   43.8930 C.2   175  TRP175      0.2290
    127  O        -15.9190  -59.2160   45.0560 O.2   175  TRP175     -0.2864
    128  CB       -18.3160  -60.6230   44.5830 C.3   175  TRP175      0.0576
    129  CG       -19.7640  -60.7970   44.2420 C.ar  175  TRP175      0.0006
    130  CD1      -20.3130  -61.7880   43.4810 C.ar  175  TRP175      0.0946
    131  CD2      -20.8440  -59.9330   44.6150 C.ar  175  TRP175      0.0152
    132  NE1      -21.6700  -61.6030   43.3690 N.ar  175  TRP175     -0.2442
    133  CE2      -22.0210  -60.4700   44.0560 C.ar  175  TRP175      0.0810
    134  CE3      -20.9320  -58.7620   45.3760 C.ar  175  TRP175      0.0012
    135  CZ2      -23.2720  -59.8780   44.2330 C.ar  175  TRP175      0.0191
    136  CZ3      -22.1760  -58.1740   45.5470 C.ar  175  TRP175      0.0001
    137  CH2      -23.3280  -58.7340   44.9800 C.ar  175  TRP175      0.0015
@<TRIPOS>BOND
     1    99    97   ar
     2    99    98   ar
     3    85    84    2
     4    97    95   ar
     5    98    96   ar
     6     4     3    2
     7    84    83    1
     8     3     2    1
     9     2     1    1
    10     2     5    1
    11     8     6    1
    12    89    87   am
    13    96    95   ar
    14    95    94    1
    15    83    82    1
    16    83    86    1
    17     5     6    1
    18    87    88    2
    19    87    86    1
    20     6     7    1
    21    94    91    1
    22    90    91    1
    23    91    92    1
    24    18    17    2
    25    92    93    2
    26   107   106    1
    27    78    77    2
    28    17    16    1
    29   106   105    1
    30    15    16    1
    31    77    76    1
    32    19    16    1
    33    19    20    1
    34    19    21    1
    35   102   101    1
    36   102   103    2
    37   101   100    1
    38   101   104    1
    39    12    11    2
    40   104   105    1
    41    80    79    1
    42    11    10    1
    43    76    79    1
    44    76    75    1
    45    79    81    1
    46    28    26    1
    47   115   113    1
    48     9    10    1
    49    27    26    1
    50    10    13    1
    51    14    13    1
    52   123   121   ar
    53    26    23    1
    54   113   112    1
    55    23    22    1
    56    23    24    1
    57   121   120    1
    58   121   122   ar
    59    24    25    2
    60   114   112    1
    61   120   117    1
    62   112   109    1
    63    30    29    1
    64    30    33    1
    65    30    31    1
    66    34    33    1
    67    34    35    1
    68    69    68    2
    69    31    32    2
    70    35    36    1
    71   108   109    1
    72    68    67    1
    73    36    37    1
    74   109   110    1
    75   110   111    2
    76   110   116   am
    77   116   117    1
    78   117   118    1
    79    54    52    1
    80    58    57    2
    81   119   118    2
    82   118   124   am
    83    67    70    1
    84    67    66    1
    85    59    60    1
    86    59    56    1
    87    52    51    1
    88    62    60   ar
    89    62    64   ar
    90    57    66   am
    91    57    56    1
    92    73    72   ar
    93    71    70    1
    94    71    72    1
    95    60    61   ar
    96    64    65   ar
    97    72    74   ar
    98    51    53    1
    99    51    48    1
   100    55    56    1
   101   124   125    1
   102    61    63   ar
   103    65    63   ar
   104    48    47    1
   105    48    49    1
   106    46    44   ar
   107   132   130   ar
   108   132   133   ar
   109   125   126    1
   110   125   128    1
   111   130   129   ar
   112   126   127    2
   113    45    44   ar
   114    49    50    2
   115   133   135   ar
   116   133   131   ar
   117    44    43    1
   118   135   137   ar
   119   129   128    1
   120   129   131   ar
   121   131   134   ar
   122   137   136   ar
   123   134   136   ar
   124    43    42    1
   125    42    39    1
   126    39    40    1
   127    39    38    1
   128    41    40    2
