@<TRIPOS>MOLECULE
tmp/5owmA00.pdb
 125 122 0 0 0
SMALL
GASTEIGER

@<TRIPOS>ATOM
      1  N         30.1320   47.4960    0.7720 N.3    40  TRP40      -0.1228
      2  CA        30.4250   48.7870    1.3900 C.3    40  TRP40       0.1722
      3  C         29.1990   49.6360    1.7250 C.2    40  TRP40       0.2437
      4  O         29.2360   50.3190    2.7640 O.2    40  TRP40      -0.2733
      5  CB        31.4160   49.5750    0.5200 C.3    40  TRP40       0.0563
      6  CG        30.9570   49.8900   -0.8760 C.ar   40  TRP40       0.0003
      7  CD1       31.1930   49.1530   -2.0020 C.ar   40  TRP40       0.0946
      8  CD2       30.1920   51.0310   -1.2940 C.ar   40  TRP40       0.0152
      9  NE1       30.6170   49.7590   -3.0950 N.ar   40  TRP40      -0.2442
     10  CE2       29.9940   50.9100   -2.6870 C.ar   40  TRP40       0.0810
     11  CE3       29.6460   52.1370   -0.6260 C.ar   40  TRP40       0.0012
     12  CZ2       29.2800   51.8550   -3.4240 C.ar   40  TRP40       0.0191
     13  CZ3       28.9330   53.0780   -1.3650 C.ar   40  TRP40       0.0001
     14  CH2       28.7570   52.9280   -2.7470 C.ar   40  TRP40       0.0015
     15  N         28.1010   49.6530    0.9490 N.am   41  PRO41      -0.2718
     16  CA        26.9600   50.4810    1.3770 C.3    41  PRO41       0.1535
     17  C         26.3130   50.0010    2.6590 C.2    41  PRO41       0.2598
     18  O         25.5460   50.7530    3.2700 O.2    41  PRO41      -0.2715
     19  CB        25.9830   50.3790    0.1960 C.3    41  PRO41       0.0310
     20  CG        26.8090   49.9300   -0.9570 C.3    41  PRO41       0.0237
     21  CD        27.8130   49.0080   -0.3500 C.3    41  PRO41       0.0939
     22  N         26.5960   48.7700    3.0800 N.am   42  PHE42      -0.1974
     23  CA        25.8770   48.1110    4.1530 C.3    42  PHE42       0.1639
     24  C         26.7390   47.9370    5.3910 C.2    42  PHE42       0.2290
     25  O         26.3070   47.2910    6.3430 O.2    42  PHE42      -0.2864
     26  CB        25.3340   46.7600    3.6580 C.3    42  PHE42       0.0560
     27  CG        24.4940   46.8860    2.4080 C.ar   42  PHE42      -0.0200
     28  CD1       23.1630   47.2710    2.4910 C.ar   42  PHE42      -0.0042
     29  CD2       25.0470   46.6760    1.1550 C.ar   42  PHE42      -0.0042
     30  CE1       22.3920   47.4240    1.3500 C.ar   42  PHE42      -0.0003
     31  CE2       24.2800   46.8340   -0.0000 C.ar   42  PHE42      -0.0003
     32  CZ        22.9520   47.1960    0.0960 C.ar   42  PHE42      -0.0000
     33  N         22.8690   53.8600    7.3910 N.3    46  VAL46      -0.1245
     34  CA        22.6590   54.8450    6.3350 C.3    46  VAL46       0.1561
     35  C         22.8290   56.2400    6.9220 C.2    46  VAL46       0.2260
     36  O         22.1110   56.6350    7.8510 O.2    46  VAL46      -0.2867
     37  CB        21.2800   54.6610    5.6920 C.3    46  VAL46       0.0252
     38  CG1       20.9790   55.8030    4.7350 C.3    46  VAL46       0.0019
     39  CG2       21.2060   53.3230    4.9640 C.3    46  VAL46       0.0019
     40  N         24.8590   61.0370    2.5250 N.3    51  LEU51      -0.1245
     41  CA        24.4120   60.4120    1.2860 C.3    51  LEU51       0.1561
     42  C         23.3440   61.2140    0.5500 C.2    51  LEU51       0.2260
     43  O         22.8920   60.7770   -0.5120 O.2    51  LEU51      -0.2867
     44  CB        23.8840   58.9950    1.5630 C.3    51  LEU51       0.0270
     45  CG        24.9360   57.9430    1.8810 C.3    51  LEU51       0.0019
     46  CD1       24.2710   56.5980    2.1370 C.3    51  LEU51       0.0001
     47  CD2       25.9180   57.8520    0.7310 C.3    51  LEU51       0.0001
     48  N         20.2050   61.6930    1.3280 N.3    53  LEU53      -0.1245
     49  CA        18.9670   60.9170    1.3700 C.3    53  LEU53       0.1561
     50  C         18.0980   61.4200    2.5150 C.2    53  LEU53       0.2260
     51  O         17.8360   60.6870    3.4780 O.2    53  LEU53      -0.2867
     52  CB        19.2290   59.4210    1.5380 C.3    53  LEU53       0.0270
     53  CG        20.3130   58.7770    0.6830 C.3    53  LEU53       0.0019
     54  CD1       20.6280   57.3760    1.2250 C.3    53  LEU53       0.0001
     55  CD2       19.8610   58.7010   -0.7730 C.3    53  LEU53       0.0001
     56  N         15.2670   59.2010    3.9770 N.3    56  TYR56      -0.1241
     57  CA        15.4990   57.7840    4.2500 C.3    56  TYR56       0.1605
     58  C         14.7800   57.3450    5.5160 C.2    56  TYR56       0.2264
     59  O         14.0020   56.3910    5.4960 O.2    56  TYR56      -0.2867
     60  CB        16.9930   57.4820    4.3640 C.3    56  TYR56       0.0534
     61  CG        17.2330   56.0040    4.5600 C.ar   56  TYR56      -0.0201
     62  CD1       17.2340   55.1370    3.4800 C.ar   56  TYR56      -0.0009
     63  CD2       17.4120   55.4790    5.8250 C.ar   56  TYR56      -0.0009
     64  CE1       17.4300   53.7810    3.6560 C.ar   56  TYR56       0.0417
     65  CE2       17.6050   54.1270    6.0120 C.ar   56  TYR56       0.0417
     66  CZ        17.6140   53.2820    4.9250 C.ar   56  TYR56       0.1957
     67  OH        17.8050   51.9300    5.1140 O.3    56  TYR56      -0.2866
     68  N         16.3160   47.9500    2.1140 N.3    95  CYS95      -0.1235
     69  CA        16.8690   48.4430    0.8630 C.3    95  CYS95       0.1677
     70  C         15.8520   48.3220   -0.2690 C.2    95  CYS95       0.2270
     71  O         15.7180   49.2380   -1.0930 O.2    95  CYS95      -0.2867
     72  CB        18.1550   47.6810    0.5540 C.3    95  CYS95       0.0956
     73  SG        19.0190   48.2450   -0.9150 S.3    95  CYS95      -0.0801
     74  N         13.0520   51.1320    0.3680 N.3    98  TYR98      -0.1227
     75  CA        13.4230   52.5110    0.0580 C.3    98  TYR98       0.1736
     76  C         13.6610   52.7160   -1.4340 C.2    98  TYR98       0.2595
     77  O         13.3430   53.7820   -1.9780 O.2    98  TYR98      -0.2718
     78  CB        14.6660   52.9210    0.8580 C.3    98  TYR98       0.0548
     79  CG        15.0460   54.3800    0.6380 C.ar   98  TYR98      -0.0200
     80  CD1       14.2950   55.4080    1.1940 C.ar   98  TYR98      -0.0009
     81  CD2       16.1350   54.7220   -0.1530 C.ar   98  TYR98      -0.0009
     82  CE1       14.6270   56.7430    0.9680 C.ar   98  TYR98       0.0417
     83  CE2       16.4750   56.0510   -0.3830 C.ar   98  TYR98       0.0417
     84  CZ        15.7220   57.0540    0.1820 C.ar   98  TYR98       0.1957
     85  OH        16.0740   58.3720   -0.0590 O.3    98  TYR98      -0.2866
     86  N         14.2240   51.7310   -2.1120 N.am   99  ASN99      -0.1974
     87  CA        14.6480   51.9110   -3.4850 C.3    99  ASN99       0.1688
     88  C         13.7240   51.1260   -4.4120 C.2    99  ASN99       0.2292
     89  O         12.7660   50.4820   -3.9780 O.2    99  ASN99      -0.2864
     90  CB        16.1110   51.4960   -3.6420 C.3    99  ASN99       0.1181
     91  CG        17.0330   52.2330   -2.6780 C.2    99  ASN99       0.2629
     92  OD1       17.3980   53.3840   -2.9100 O.2    99  ASN99      -0.2716
     93  ND2       17.4210   51.5650   -1.5990 N.am   99  ASN99      -0.0877
     94  N         17.5970   49.4770   -9.4370 N.3   103  ASP103     -0.1225
     95  CA        18.5580   50.4630   -8.9490 C.3   103  ASP103      0.1805
     96  C         19.8770   49.7730   -8.6210 C.2   103  ASP103      0.2598
     97  O         19.9040   48.6130   -8.2040 O.2   103  ASP103     -0.2718
     98  CB        18.0420   51.1620   -7.6870 C.3   103  ASP103      0.1424
     99  CG        16.9040   52.1280   -7.9530 C.2   103  ASP103      0.3668
    100  OD1       16.6410   52.4480   -9.1390 O.co2 103  ASP103     -0.2456
    101  OD2       16.2830   52.5810   -6.9580 O.co2 103  ASP103     -0.2456
    102  N         20.9810   50.5130   -8.7690 N.am  104  ASP104     -0.1960
    103  CA        22.2950   49.9330   -8.4960 C.3   104  ASP104      0.1840
    104  C         22.3940   49.3990   -7.0660 C.2   104  ASP104      0.2621
    105  O         22.8940   48.2860   -6.8490 O.2   104  ASP104     -0.2715
    106  CB        23.3940   50.9620   -8.7550 C.3   104  ASP104      0.1450
    107  CG        23.8290   51.0030  -10.2150 C.2   104  ASP104      0.3671
    108  OD1       23.3580   50.1630  -11.0140 O.co2 104  ASP104     -0.2456
    109  OD2       24.6490   51.8820  -10.5660 O.co2 104  ASP104     -0.2456
    110  N         21.9010   50.1600   -6.0810 N.am  105  ILE105     -0.1977
    111  CA        21.9690   49.7100   -4.6880 C.3   105  ILE105      0.1596
    112  C         21.1480   48.4430   -4.4940 C.2   105  ILE105      0.2287
    113  O         21.5220   47.5660   -3.7040 O.2   105  ILE105     -0.2864
    114  CB        21.5240   50.8470   -3.7380 C.3   105  ILE105      0.0276
    115  CG1       21.6990   50.4300   -2.2730 C.3   105  ILE105      0.0022
    116  CG2       20.0800   51.2780   -4.0150 C.3   105  ILE105      0.0022
    117  CD1       23.1350   50.1800   -1.9120 C.3   105  ILE105      0.0001
    118  N         22.9570   45.4570   -5.7290 N.3   108  MET108     -0.1245
    119  CA        23.9630   45.0800   -4.7420 C.3   108  MET108      0.1570
    120  C         23.3390   44.2560   -3.6270 C.2   108  MET108      0.2261
    121  O         23.8720   43.2100   -3.2330 O.2   108  MET108     -0.2867
    122  CB        24.6430   46.3340   -4.1910 C.3   108  MET108      0.0387
    123  CG        25.4420   47.0550   -5.2430 C.3   108  MET108      0.0595
    124  SD        25.9370   48.6960   -4.7000 S.3   108  MET108     -0.1393
    125  CE        27.5470   48.3520   -4.0200 C.3   108  MET108      0.0692
@<TRIPOS>BOND
     1   108   107   ar
     2   109   107   ar
     3   107   106    1
     4    94    95    1
     5   100    99   ar
     6    95    96    1
     7    95    98    1
     8   102    96   am
     9   102   103    1
    10   106   103    1
    11    96    97    2
    12   103   104    1
    13    99    98    1
    14    99   101   ar
    15   104   105    2
    16   104   110   am
    17   110   111    1
    18   118   119    1
    19   123   124    1
    20   123   122    1
    21   119   122    1
    22   119   120    1
    23   124   125    1
    24   111   112    1
    25   111   114    1
    26   112   113    2
    27    88    89    2
    28    88    87    1
    29   116   114    1
    30   114   115    1
    31    90    87    1
    32    90    91    1
    33   120   121    2
    34    87    86    1
    35    12    14   ar
    36    12    10   ar
    37     9    10   ar
    38     9     7   ar
    39    92    91    2
    40    14    13   ar
    41    10     8   ar
    42    91    93   am
    43   115   117    1
    44    86    76   am
    45     7     6   ar
    46    77    76    2
    47    76    75    1
    48    13    11   ar
    49     8     6   ar
    50     8    11   ar
    51    71    70    2
    52    20    21    1
    53    20    19    1
    54    73    72    1
    55     6     5    1
    56    55    53    1
    57    43    42    2
    58    83    81   ar
    59    83    84   ar
    60    21    15    1
    61    70    69    1
    62    81    79   ar
    63    85    84    1
    64    31    32   ar
    65    31    29   ar
    66    75    74    1
    67    75    78    1
    68    32    30   ar
    69    84    82   ar
    70    19    16    1
    71     5     2    1
    72    42    41    1
    73    72    69    1
    74    79    78    1
    75    79    80   ar
    76    53    54    1
    77    53    52    1
    78    47    45    1
    79     1     2    1
    80    69    68    1
    81    15    16    1
    82    15     3   am
    83    82    80   ar
    84    29    27   ar
    85    41    44    1
    86    41    40    1
    87    48    49    1
    88    30    28   ar
    89    49    52    1
    90    49    50    1
    91    16    17    1
    92     2     3    1
    93    44    45    1
    94     3     4    2
    95    45    46    1
    96    27    28   ar
    97    27    26    1
    98    50    51    2
    99    17    22   am
   100    17    18    2
   101    22    23    1
   102    62    64   ar
   103    62    61   ar
   104    64    66   ar
   105    26    23    1
   106    56    57    1
   107    23    24    1
   108    57    60    1
   109    57    58    1
   110    60    61    1
   111    61    63   ar
   112    38    37    1
   113    66    67    1
   114    66    65   ar
   115    39    37    1
   116    24    25    2
   117    59    58    2
   118    37    34    1
   119    63    65   ar
   120    34    35    1
   121    34    33    1
   122    35    36    2
