@<TRIPOS>MOLECULE
tmp/5owpA00.pdb
 159 160 0 0 0
SMALL
GASTEIGER

@<TRIPOS>ATOM
      1  N         25.3190   13.4170   13.5140 N.3    31  ASN31      -0.1225
      2  CA        25.0170   13.6060   12.0630 C.3    31  ASN31       0.1785
      3  C         23.6920   13.0130   11.6390 C.2    31  ASN31       0.2597
      4  O         23.2310   13.2810   10.5440 O.2    31  ASN31      -0.2718
      5  CB        26.0740   12.9350   11.1890 C.3    31  ASN31       0.1169
      6  CG        27.3880   13.6840   11.1540 C.2    31  ASN31       0.2627
      7  OD1       27.5130   14.8210   11.6150 O.2    31  ASN31      -0.2716
      8  ND2       28.3930   13.0280   10.5570 N.am   31  ASN31      -0.0877
      9  N         23.0780   12.1940   12.4890 N.am   32  TYR32      -0.1962
     10  CA        21.8420   11.5610   12.1320 C.3    32  TYR32       0.1771
     11  C         20.6100   12.0160   12.9120 C.2    32  TYR32       0.2619
     12  O         20.6860   12.2930   14.1080 O.2    32  TYR32      -0.2715
     13  CB        22.0050   10.0690   12.2560 C.3    32  TYR32       0.0574
     14  CG        23.0280    9.5420   11.2910 C.ar   32  TYR32      -0.0198
     15  CD1       22.6880    9.2620    9.9650 C.ar   32  TYR32      -0.0009
     16  CD2       24.3240    9.3130   11.6940 C.ar   32  TYR32      -0.0009
     17  CE1       23.6420    8.7550    9.0710 C.ar   32  TYR32       0.0417
     18  CE2       25.2890    8.8260   10.8150 C.ar   32  TYR32       0.0417
     19  CZ        24.9470    8.5340    9.5280 C.ar   32  TYR32       0.1957
     20  OH        25.9160    8.0650    8.7030 O.3    32  TYR32      -0.2866
     21  N         19.4860   12.0600   12.1920 N.am   33  TRP33      -0.1974
     22  CA        18.2110   12.2140   12.8060 C.3    33  TRP33       0.1640
     23  C         17.9360   10.9580   13.6390 C.2    33  TRP33       0.2290
     24  O         18.3740    9.8580   13.2760 O.2    33  TRP33      -0.2864
     25  CB        17.0850   12.3320   11.7840 C.3    33  TRP33       0.0576
     26  CG        17.1710   13.4530   10.7630 C.ar   33  TRP33       0.0006
     27  CD1       18.1990   14.3000   10.5370 C.ar   33  TRP33       0.0946
     28  CD2       16.1530   13.7890    9.8250 C.ar   33  TRP33       0.0152
     29  NE1       17.8850   15.1590    9.5150 N.ar   33  TRP33      -0.2442
     30  CE2       16.6320   14.8560    9.0560 C.ar   33  TRP33       0.0810
     31  CE3       14.8780   13.2740    9.5570 C.ar   33  TRP33       0.0012
     32  CZ2       15.8770   15.4330    8.0450 C.ar   33  TRP33       0.0191
     33  CZ3       14.1360   13.8300    8.5550 C.ar   33  TRP33       0.0001
     34  CH2       14.6410   14.8850    7.7870 C.ar   33  TRP33       0.0015
     35  N         15.8470   16.0970   14.5170 N.3    52  ARG52      -0.1231
     36  CA        16.8320   16.2720   13.4320 C.3    52  ARG52       0.1694
     37  C         18.1080   16.8610   14.0920 C.2    52  ARG52       0.2591
     38  O         18.3390   16.6150   15.2940 O.2    52  ARG52      -0.2718
     39  CB        16.2510   17.1100   12.2530 C.3    52  ARG52       0.0321
     40  CG        14.7280   17.1280   12.2000 C.3    52  ARG52       0.0489
     41  CD        13.9720   16.4620   11.0890 C.3    52  ARG52       0.2205
     42  NE        13.7400   17.3130    9.9760 N.pl3  52  ARG52      -0.0865
     43  CZ        12.8040   17.1790    8.9960 C.cat  52  ARG52       0.5346
     44  NH1       11.8730   16.2410    8.9830 N.pl3  52  ARG52       0.1354
     45  NH2       12.8200   18.0290    7.9650 N.pl3  52  ARG52       0.1354
     46  N         18.9320   17.6250   13.3480 N.am   53  LEU53      -0.1980
     47  CA        20.2780   17.8900   13.8020 C.3    53  LEU53       0.1596
     48  C         20.3530   19.2590   14.4680 C.2    53  LEU53       0.2287
     49  O         19.4740   20.0900   14.3040 O.2    53  LEU53      -0.2864
     50  CB        21.2500   17.8370   12.6520 C.3    53  LEU53       0.0297
     51  CG        21.1550   16.6100   11.7530 C.3    53  LEU53       0.0022
     52  CD1       22.2620   16.6280   10.6770 C.3    53  LEU53       0.0001
     53  CD2       21.1850   15.3450   12.5630 C.3    53  LEU53       0.0001
     54  N         19.1980    6.2470   11.1520 N.3   101  VAL101     -0.1231
     55  CA        20.3170    5.9780   10.1990 C.3   101  VAL101      0.1692
     56  C         19.8190    5.2480    8.9260 C.2   101  VAL101      0.2593
     57  O         19.5470    4.0540    8.9340 O.2   101  VAL101     -0.2718
     58  CB        21.5340    5.2280   10.8110 C.3   101  VAL101      0.0266
     59  CG1       22.6790    5.1140    9.7860 C.3   101  VAL101      0.0020
     60  CG2       22.0460    5.9590   12.0490 C.3   101  VAL101      0.0020
     61  N         19.6770    6.0240    7.8680 N.am  102  GLY102     -0.1942
     62  CA        19.4910    5.5040    6.5260 C.3   102  GLY102      0.2014
     63  C         18.4080    4.4950    6.2460 C.2   102  GLY102      0.2638
     64  O         18.6980    3.5180    5.5710 O.2   102  GLY102     -0.2714
     65  N         17.1760    4.6470    6.7330 N.am  103  GLN103     -0.1977
     66  CA        16.7100    5.5970    7.7430 C.3   103  GLN103      0.1601
     67  C         16.4290    4.8820    9.0820 C.2   103  GLN103      0.2287
     68  O         16.2070    5.5570   10.0870 O.2   103  GLN103     -0.2864
     69  CB        15.4410    6.3100    7.2450 C.3   103  GLN103      0.0394
     70  CG        15.7240    7.3690    6.1760 C.3   103  GLN103      0.0908
     71  CD        16.2060    6.7780    4.8480 C.2   103  GLN103      0.2608
     72  OE1       15.6060    5.8380    4.3070 O.2   103  GLN103     -0.2717
     73  NE2       17.3070    7.3190    4.3200 N.am  103  GLN103     -0.0878
     74  N         18.5350    1.7690    9.9510 N.3   105  ALA105     -0.1231
     75  CA        19.4190    0.6660   10.0650 C.3   105  ALA105      0.1694
     76  C         19.5560    0.1450   11.5310 C.2   105  ALA105      0.2592
     77  O         19.6720   -1.0700   11.7260 O.2   105  ALA105     -0.2718
     78  CB        20.7680    1.0070    9.4670 C.3   105  ALA105      0.0304
     79  N         19.5320    1.0380   12.5400 N.am  106  TYR106     -0.1976
     80  CA        19.9840    0.6630   13.9120 C.3   106  TYR106      0.1639
     81  C         18.8100    0.8600   14.8340 C.2   106  TYR106      0.2290
     82  O         18.1330    1.8720   14.7660 O.2   106  TYR106     -0.2864
     83  CB        21.2110    1.4610   14.3940 C.3   106  TYR106      0.0560
     84  CG        22.3970    1.4630   13.4160 C.ar  106  TYR106     -0.0198
     85  CD1       22.8440    0.2860   12.8150 C.ar  106  TYR106     -0.0009
     86  CD2       23.0640    2.6230   13.0970 C.ar  106  TYR106     -0.0009
     87  CE1       23.8900    0.2710   11.8970 C.ar  106  TYR106      0.0417
     88  CE2       24.1220    2.6120   12.1870 C.ar  106  TYR106      0.0417
     89  CZ        24.5330    1.4230   11.6050 C.ar  106  TYR106      0.1957
     90  OH        25.5880    1.3800   10.7040 O.3   106  TYR106     -0.2866
     91  N         10.9290    7.0840    0.1530 N.3   150  TYR150     -0.1241
     92  CA        12.0990    6.6280    0.8930 C.3   150  TYR150      0.1605
     93  C         11.7900    5.3190    1.6050 C.2   150  TYR150      0.2264
     94  O         12.0720    5.1890    2.7840 O.2   150  TYR150     -0.2867
     95  CB        12.5770    7.7000    1.8970 C.3   150  TYR150      0.0534
     96  CG        12.9060    8.9650    1.1700 C.ar  150  TYR150     -0.0201
     97  CD1       11.9360    9.9320    0.9490 C.ar  150  TYR150     -0.0009
     98  CD2       14.1540    9.1360    0.5820 C.ar  150  TYR150     -0.0009
     99  CE1       12.2330   11.0870    0.2110 C.ar  150  TYR150      0.0417
    100  CE2       14.4430   10.2770   -0.1630 C.ar  150  TYR150      0.0417
    101  CZ        13.4770   11.2290   -0.3620 C.ar  150  TYR150      0.1957
    102  OH        13.7880   12.3550   -1.1070 O.3   150  TYR150     -0.2866
    103  N         20.9430   -0.8620    0.6190 N.3   172  ARG172     -0.1231
    104  CA        21.1560   -1.8540    1.6610 C.3   172  ARG172      0.1694
    105  C         21.9020   -1.2020    2.8550 C.2   172  ARG172      0.2592
    106  O         22.9440   -0.6050    2.6920 O.2   172  ARG172     -0.2718
    107  CB        21.9600   -3.0580    1.0810 C.3   172  ARG172      0.0321
    108  CG        21.4350   -4.3950    1.5040 C.3   172  ARG172      0.0489
    109  CD        22.0810   -5.6080    0.8190 C.3   172  ARG172      0.2205
    110  NE        23.0710   -5.2770   -0.1910 N.pl3 172  ARG172     -0.0865
    111  CZ        22.9400   -5.3230   -1.5210 C.cat 172  ARG172      0.5346
    112  NH1       21.8150   -5.7160   -2.1900 N.pl3 172  ARG172      0.1354
    113  NH2       24.0030   -4.9460   -2.2250 N.pl3 172  ARG172      0.1354
    114  N         21.3870   -1.3700    4.0510 N.am  173  ALA173     -0.1966
    115  CA        22.0880   -0.8590    5.2500 C.3   173  ALA173      0.1713
    116  C         23.4410   -1.5530    5.4350 C.2   173  ALA173      0.2458
    117  O         23.6760   -2.6660    4.9260 O.2   173  ALA173     -0.2730
    118  CB        21.2170   -1.0030    6.5000 C.3   173  ALA173      0.0333
    119  N         24.3620   -0.8980    6.1460 N.am  174  PRO174     -0.2727
    120  CA        25.7070   -1.4880    6.1890 C.3   174  PRO174      0.1402
    121  C         25.7340   -2.8640    6.9110 C.2   174  PRO174      0.2269
    122  O         24.9920   -3.1190    7.8690 O.2   174  PRO174     -0.2865
    123  CB        26.5440   -0.4180    6.9230 C.3   174  PRO174      0.0296
    124  CG        25.6400    0.7910    7.0820 C.3   174  PRO174      0.0237
    125  CD        24.2380    0.2790    7.0390 C.3   174  PRO174      0.0939
    126  N          7.6350    7.2490    3.8140 N.3   209  TRP209     -0.1241
    127  CA         7.7470    8.6210    4.3120 C.3   209  TRP209      0.1605
    128  C          6.7500    9.4670    3.5710 C.2   209  TRP209      0.2264
    129  O          6.7090    9.4130    2.3410 O.2   209  TRP209     -0.2867
    130  CB         9.1590    9.1160    4.0540 C.3   209  TRP209      0.0550
    131  CG         9.4290   10.5400    4.2150 C.ar  209  TRP209      0.0003
    132  CD1        9.4910   11.4860    3.2220 C.ar  209  TRP209      0.0946
    133  CD2        9.7770   11.2010    5.4280 C.ar  209  TRP209      0.0152
    134  NE1        9.8280   12.6920    3.7510 N.ar  209  TRP209     -0.2442
    135  CE2       10.0100   12.5490    5.1120 C.ar  209  TRP209      0.0810
    136  CE3        9.9130   10.7810    6.7490 C.ar  209  TRP209      0.0012
    137  CZ2       10.3920   13.4740    6.0630 C.ar  209  TRP209      0.0191
    138  CZ3       10.2570   11.7020    7.7130 C.ar  209  TRP209      0.0001
    139  CH2       10.5110   13.0400    7.3610 C.ar  209  TRP209      0.0015
    140  N          6.2950   13.3130    3.5900 N.3   211  SER211     -0.1217
    141  CA         6.6300   14.7410    3.7670 C.3   211  SER211      0.1889
    142  C          7.3620   15.0770    5.0600 C.2   211  SER211      0.2288
    143  O          8.4240   15.7250    4.9650 O.2   211  SER211     -0.2866
    144  CB         5.4100   15.6630    3.5480 C.3   211  SER211      0.2089
    145  OG         5.0860   15.7390    2.1580 O.3   211  SER211     -0.2183
    146  N          6.5970    9.0790    9.1270 N.3   214  TRP214     -0.1241
    147  CA         6.7120    7.6870    8.6620 C.3   214  TRP214      0.1605
    148  C          5.4140    6.9730    9.0050 C.2   214  TRP214      0.2264
    149  O          4.8660    7.1730   10.1160 O.2   214  TRP214     -0.2867
    150  CB         7.8700    7.0270    9.3760 C.3   214  TRP214      0.0550
    151  CG         9.2300    7.5690    9.0180 C.ar  214  TRP214      0.0003
    152  CD1        9.9900    8.4840    9.7260 C.ar  214  TRP214      0.0946
    153  CD2        9.9910    7.2240    7.8580 C.ar  214  TRP214      0.0152
    154  NE1       11.1500    8.7640    9.0390 N.ar  214  TRP214     -0.2442
    155  CE2       11.1970    7.9820    7.9020 C.ar  214  TRP214      0.0810
    156  CE3        9.7650    6.3500    6.7660 C.ar  214  TRP214      0.0012
    157  CZ2       12.2010    7.8660    6.9000 C.ar  214  TRP214      0.0191
    158  CZ3       10.7350    6.2450    5.7640 C.ar  214  TRP214      0.0001
    159  CH2       11.9350    7.0000    5.8280 C.ar  214  TRP214      0.0015
@<TRIPOS>BOND
     1   113   111    1
     2   112   111    1
     3   111   110    2
     4   102   101    1
     5   101   100   ar
     6   101    99   ar
     7   110   109    1
     8   100    98   ar
     9    91    92    1
    10    99    97   ar
    11    98    96   ar
    12   103   104    1
    13   109   108    1
    14    92    93    1
    15    92    95    1
    16    97    96   ar
    17   107   108    1
    18   107   104    1
    19    96    95    1
    20    93    94    2
    21   104   105    1
    22   145   144    1
    23   129   128    2
    24   106   105    2
    25   105   114   am
    26   132   134   ar
    27   132   131   ar
    28   144   141    1
    29   128   127    1
    30   140   141    1
    31   134   135   ar
    32   141   142    1
    33   126   127    1
    34   114   115    1
    35   130   131    1
    36   130   127    1
    37   131   133   ar
    38    72    71    2
    39    73    71   am
    40    71    70    1
    41   117   116    2
    42   143   142    2
    43   135   133   ar
    44   135   137   ar
    45   115   116    1
    46   115   118    1
    47   133   136   ar
    48   116   119   am
    49    64    63    2
    50   158   159   ar
    51   158   156   ar
    52   159   157   ar
    53   137   139   ar
    54   119   120    1
    55   119   125    1
    56    70    69    1
    57   120   121    1
    58   120   123    1
    59    63    62    1
    60    63    65   am
    61    62    61    1
    62    65    66    1
    63   136   138   ar
    64   156   153   ar
    65   157   155   ar
    66   121   122    2
    67   123   124    1
    68   125   124    1
    69    69    66    1
    70   139   138   ar
    71    66    67    1
    72    34    32   ar
    73    34    33   ar
    74   153   155   ar
    75   153   151   ar
    76    61    56   am
    77   155   154   ar
    78    45    43    1
    79    32    30   ar
    80    33    31   ar
    81   147   148    1
    82   147   146    1
    83   147   150    1
    84    20    19    1
    85    56    57    2
    86    56    55    1
    87    44    43    1
    88    43    42    2
    89   148   149    2
    90   151   150    1
    91   151   152   ar
    92   154   152   ar
    93    30    29   ar
    94    30    28   ar
    95    17    19   ar
    96    17    15   ar
    97    67    68    2
    98    78    75    1
    99    29    27   ar
   100    19    18   ar
   101    31    28   ar
   102    59    58    1
   103    28    26   ar
   104    74    75    1
   105    15    14   ar
   106    42    41    1
   107    75    76    1
   108    55    58    1
   109    55    54    1
   110    27    26   ar
   111     4     3    2
   112     8     6   am
   113    52    51    1
   114    90    89    1
   115    26    25    1
   116    58    60    1
   117    18    16   ar
   118    41    40    1
   119     6     5    1
   120     6     7    2
   121     5     2    1
   122    14    16   ar
   123    14    13    1
   124    76    77    2
   125    76    79   am
   126    89    87   ar
   127    89    88   ar
   128     3     2    1
   129     3     9   am
   130    51    53    1
   131    51    50    1
   132    25    22    1
   133    87    85   ar
   134     2     1    1
   135    10    13    1
   136    10     9    1
   137    10    11    1
   138    88    86   ar
   139    21    22    1
   140    21    11   am
   141    40    39    1
   142    39    36    1
   143    79    80    1
   144    50    47    1
   145    22    23    1
   146    85    84   ar
   147    11    12    2
   148    86    84   ar
   149    24    23    2
   150    46    47    1
   151    46    37   am
   152    84    83    1
   153    36    37    1
   154    36    35    1
   155    47    48    1
   156    80    83    1
   157    80    81    1
   158    37    38    2
   159    49    48    2
   160    82    81    2
