@<TRIPOS>MOLECULE
tmp/5owqA00.pdb
 157 146 0 0 0
SMALL
GASTEIGER

@<TRIPOS>ATOM
      1  N         12.0230   -2.6170   50.7550 N.3    13  LEU13      -0.1245
      2  CA        10.6390   -2.3280   50.3560 C.3    13  LEU13       0.1561
      3  C         10.4140   -2.2230   48.8490 C.2    13  LEU13       0.2260
      4  O          9.2750   -2.4310   48.4230 O.2    13  LEU13      -0.2867
      5  CB        10.1530   -1.0440   51.0070 C.3    13  LEU13       0.0270
      6  CG        10.0100   -1.0350   52.5280 C.3    13  LEU13       0.0019
      7  CD1        9.9000    0.4020   53.0110 C.3    13  LEU13       0.0001
      8  CD2        8.8200   -1.8650   53.0060 C.3    13  LEU13       0.0001
      9  N         14.8650    1.3540   47.8420 N.3    21  VAL21      -0.1245
     10  CA        14.1030    1.7940   49.0260 C.3    21  VAL21       0.1561
     11  C         14.0980    0.7070   50.1050 C.2    21  VAL21       0.2260
     12  O         13.5530   -0.3810   49.8790 O.2    21  VAL21      -0.2867
     13  CB        12.6450    2.1650   48.6750 C.3    21  VAL21       0.0252
     14  CG1       11.9830    2.8910   49.8390 C.3    21  VAL21       0.0019
     15  CG2       12.5940    3.0350   47.4340 C.3    21  VAL21       0.0019
     16  N         13.7840   -0.2330   54.5960 N.3    23  LYS23      -0.1245
     17  CA        13.0450    0.1210   55.8230 C.3    23  LYS23       0.1561
     18  C         14.0490    0.3240   56.9720 C.2    23  LYS23       0.2260
     19  O         14.9170   -0.5200   57.2080 O.2    23  LYS23      -0.2867
     20  CB        12.0100   -0.9580   56.1580 C.3    23  LYS23       0.0271
     21  CG        11.2960   -0.7450   57.4890 C.3    23  LYS23       0.0035
     22  CD         9.8390   -1.1830   57.4840 C.3    23  LYS23       0.0206
     23  CE         9.6150   -2.6740   57.7070 C.3    23  LYS23       0.1093
     24  NZ         8.1730   -3.0120   57.5990 N.3    23  LYS23      -0.1314
     25  N         11.2870    5.1150   55.7600 N.3    34  ALA34      -0.1245
     26  CA        11.6920    4.6420   54.4610 C.3    34  ALA34       0.1562
     27  C         12.9870    5.3970   54.1880 C.2    34  ALA34       0.2260
     28  O         13.0300    6.6180   54.2780 O.2    34  ALA34      -0.2867
     29  CB        10.6240    4.9540   53.4210 C.3    34  ALA34       0.0290
     30  N         15.7690    6.1830   51.3800 N.3    36  LYS36      -0.1245
     31  CA        16.1980    6.1810   49.9790 C.3    36  LYS36       0.1561
     32  C         17.6810    6.5320   49.9510 C.2    36  LYS36       0.2260
     33  O         18.0950    7.5410   50.5360 O.2    36  LYS36      -0.2867
     34  CB        15.3850    7.1700   49.1490 C.3    36  LYS36       0.0271
     35  CG        15.4610    6.8080   47.6420 C.3    36  LYS36       0.0035
     36  CD        14.9010    7.8490   46.7440 C.3    36  LYS36       0.0206
     37  CE        14.8730    7.3860   45.3000 C.3    36  LYS36       0.1093
     38  NZ        14.6100    8.5380   44.3630 N.3    36  LYS36      -0.1314
     39  N          4.0650   12.9810   52.2510 N.3    62  VAL62      -0.1245
     40  CA         5.0580   12.3510   53.1320 C.3    62  VAL62       0.1561
     41  C          5.9140   13.3470   53.8900 C.2    62  VAL62       0.2260
     42  O          6.3520   14.3440   53.3280 O.2    62  VAL62      -0.2867
     43  CB         5.9850   11.3560   52.3710 C.3    62  VAL62       0.0252
     44  CG1        5.2060   10.1180   51.9410 C.3    62  VAL62       0.0019
     45  CG2        6.6960   12.0070   51.1840 C.3    62  VAL62       0.0019
     46  N         12.2210    9.1620   55.1940 N.3    74  ILE74      -0.1231
     47  CA        10.8540    9.6060   54.9040 C.3    74  ILE74       0.1692
     48  C          9.8720    8.7700   55.7480 C.2    74  ILE74       0.2592
     49  O         10.2480    7.7060   56.2350 O.2    74  ILE74      -0.2718
     50  CB        10.5430    9.4000   53.4060 C.3    74  ILE74       0.0266
     51  CG1       11.7930    9.7370   52.5590 C.3    74  ILE74       0.0019
     52  CG2        9.3140   10.2060   53.0030 C.3    74  ILE74       0.0020
     53  CD1       11.7210    9.4000   51.0880 C.3    74  ILE74       0.0001
     54  N          8.6270    9.2160   55.9270 N.am   75  GLU75      -0.1966
     55  CA         7.7110    8.4960   56.8210 C.3    75  GLU75       0.1733
     56  C          7.3210    7.1190   56.2640 C.2    75  GLU75       0.2616
     57  O          6.8860    7.0030   55.1270 O.2    75  GLU75      -0.2715
     58  CB         6.4620    9.3180   57.1710 C.3    75  GLU75       0.0429
     59  CG         5.2100    8.9810   56.4050 C.3    75  GLU75       0.1163
     60  CD         4.0740    9.8810   56.7620 C.2    75  GLU75       0.3649
     61  OE1        4.1760   11.1140   56.4950 O.co2  75  GLU75      -0.2457
     62  OE2        3.0710    9.3340   57.2640 O.co2  75  GLU75      -0.2457
     63  N          7.4800    6.0870   57.0950 N.am   76  PHE76      -0.1960
     64  CA         6.9290    4.7840   56.8100 C.3    76  PHE76       0.1771
     65  C          5.3990    4.8690   56.7510 C.2    76  PHE76       0.2620
     66  O          4.7770    5.3770   57.6440 O.2    76  PHE76      -0.2715
     67  CB         7.3860    3.7800   57.8600 C.3    76  PHE76       0.0574
     68  CG         6.9660    2.3800   57.5590 C.ar   76  PHE76      -0.0200
     69  CD1        7.4680    1.7210   56.4280 C.ar   76  PHE76      -0.0042
     70  CD2        6.0610    1.7200   58.3700 C.ar   76  PHE76      -0.0042
     71  CE1        7.0640    0.4340   56.1240 C.ar   76  PHE76      -0.0003
     72  CE2        5.6620    0.4300   58.0770 C.ar   76  PHE76      -0.0003
     73  CZ         6.1600   -0.2130   56.9570 C.ar   76  PHE76      -0.0000
     74  N          4.8120    4.4290   55.6500 N.am   77  CYS77      -0.1954
     75  CA         3.3640    4.2860   55.4820 C.3    77  CYS77       0.1828
     76  C          3.0810    2.7680   55.3340 C.2    77  CYS77       0.2467
     77  O          3.3180    2.2070   54.2800 O.2    77  CYS77      -0.2730
     78  CB         2.8750    5.0830   54.2410 C.3    77  CYS77       0.0996
     79  SG         3.5470    6.7840   54.0120 S.3    77  CYS77      -0.0797
     80  N          2.6000    2.0880   56.3950 N.am   78  PRO78      -0.2715
     81  CA         2.4820    0.6110   56.3670 C.3    78  PRO78       0.1536
     82  C          1.3870   -0.0150   55.4880 C.2    78  PRO78       0.2599
     83  O          1.2870   -1.2460   55.4480 O.2    78  PRO78      -0.2715
     84  CB         2.2390    0.2250   57.8240 C.3    78  PRO78       0.0310
     85  CG         1.8410    1.4780   58.5390 C.3    78  PRO78       0.0237
     86  CD         2.3180    2.6550   57.7380 C.3    78  PRO78       0.0939
     87  N          0.5770    0.7610   54.7820 N.am   79  GLY79      -0.1941
     88  CA        -0.2600    0.1770   53.7190 C.3    79  GLY79       0.2014
     89  C          0.4870   -0.0300   52.4150 C.2    79  GLY79       0.2639
     90  O          0.0420   -0.8100   51.5770 O.2    79  GLY79      -0.2714
     91  N          1.6120    0.6750   52.2210 N.am   80  GLY80      -0.1939
     92  CA         2.2970    0.7710   50.8910 C.3    80  GLY80       0.2014
     93  C          1.5470    1.5200   49.7820 C.2    80  GLY80       0.2638
     94  O          0.5360    2.1610   50.0360 O.2    80  GLY80      -0.2714
     95  N          2.0360    1.3860   48.5460 N.am   81  ALA81      -0.1977
     96  CA         1.4920    2.1350   47.3980 C.3    81  ALA81       0.1597
     97  C          0.2430    1.5240   46.8470 C.2    81  ALA81       0.2287
     98  O          0.0600    0.3540   46.9620 O.2    81  ALA81      -0.2864
     99  CB         2.5190    2.2230   46.3130 C.3    81  ALA81       0.0319
    100  N          0.6010   -1.4530   44.1910 N.3    84  ALA84      -0.1231
    101  CA         0.9830   -2.7070   44.8830 C.3    84  ALA84       0.1694
    102  C         -0.2100   -3.3510   45.6010 C.2    84  ALA84       0.2591
    103  O         -0.4510   -4.5650   45.5270 O.2    84  ALA84      -0.2718
    104  CB         2.1130   -2.4610   45.8720 C.3    84  ALA84       0.0304
    105  N         -0.9730   -2.5200   46.2760 N.am   85  ILE85      -0.1980
    106  CA        -2.2140   -2.9480   46.8750 C.3    85  ILE85       0.1595
    107  C         -3.1340   -3.5730   45.8240 C.2    85  ILE85       0.2287
    108  O         -3.6780   -4.6450   46.0490 O.2    85  ILE85      -0.2864
    109  CB        -2.8830   -1.7820   47.6900 C.3    85  ILE85       0.0276
    110  CG1       -2.2250   -1.7300   49.0890 C.3    85  ILE85       0.0022
    111  CG2       -4.4030   -1.9440   47.7960 C.3    85  ILE85       0.0022
    112  CD1       -2.4910   -0.4780   49.9030 C.3    85  ILE85       0.0001
    113  N         -1.7010   -7.2950   44.8080 N.3    88  GLU88      -0.1245
    114  CA        -1.8700   -8.1610   46.0030 C.3    88  GLU88       0.1567
    115  C         -3.3680   -8.5300   46.2220 C.2    88  GLU88       0.2260
    116  O         -3.7110   -9.7100   46.4130 O.2    88  GLU88      -0.2867
    117  CB        -1.1940   -7.4910   47.2140 C.3    88  GLU88       0.0388
    118  CG        -1.2090   -8.2220   48.5480 C.3    88  GLU88       0.1160
    119  CD        -0.6170   -9.6520   48.5770 C.2    88  GLU88       0.3649
    120  OE1        0.5810   -9.8230   48.9600 O.co2  88  GLU88      -0.2457
    121  OE2       -1.3520  -10.6250   48.2300 O.co2  88  GLU88      -0.2457
    122  N          2.8110    6.3070   43.4000 N.3   126  ASN126     -0.1240
    123  CA         3.1750    7.4420   44.3000 C.3   126  ASN126      0.1653
    124  C          2.0510    7.9520   45.2920 C.2   126  ASN126      0.2266
    125  O          2.2390    8.9580   45.9930 O.2   126  ASN126     -0.2867
    126  CB         3.7670    8.5700   43.4440 C.3   126  ASN126      0.1155
    127  CG         5.2120    8.3120   43.0430 C.2   126  ASN126      0.2627
    128  OD1        5.8750    7.4600   43.5960 O.2   126  ASN126     -0.2716
    129  ND2        5.7150    9.0880   42.0730 N.am  126  ASN126     -0.0877
    130  N          0.7490    6.5920   48.5860 N.3   128  LEU128     -0.1245
    131  CA         0.9120    5.6550   49.7100 C.3   128  LEU128      0.1561
    132  C         -0.3010    5.7000   50.6870 C.2   128  LEU128      0.2260
    133  O         -1.0820    6.6450   50.6180 O.2   128  LEU128     -0.2867
    134  CB         2.2180    5.9620   50.4560 C.3   128  LEU128      0.0270
    135  CG         3.5190    5.9300   49.6290 C.3   128  LEU128      0.0019
    136  CD1        4.7560    5.8610   50.5180 C.3   128  LEU128      0.0001
    137  CD2        3.5500    4.7670   48.6590 C.3   128  LEU128      0.0001
    138  N          4.1620   10.7750   47.4720 N.3   138  ALA138     -0.1231
    139  CA         5.5590   10.3660   47.7330 C.3   138  ALA138      0.1694
    140  C          6.6610   11.0700   46.9160 C.2   138  ALA138      0.2592
    141  O          6.3420   11.7940   45.9850 O.2   138  ALA138     -0.2718
    142  CB         5.6690    8.8700   47.5600 C.3   138  ALA138      0.0304
    143  N          7.9270   10.8580   47.3420 N.am  139  ASP139     -0.1974
    144  CA         9.1640   11.4570   46.7980 C.3   139  ASP139      0.1709
    145  C          9.0780   12.9830   46.5130 C.2   139  ASP139      0.2293
    146  O          9.9790   13.5740   45.9020 O.2   139  ASP139     -0.2864
    147  CB         9.6320   10.6900   45.5360 C.3   139  ASP139      0.1436
    148  CG        10.6950    9.5260   45.8470 C.2   139  ASP139      0.3671
    149  OD1       11.7860    9.8290   46.4250 O.co2 139  ASP139     -0.2456
    150  OD2       10.4270    8.3240   45.4830 O.co2 139  ASP139     -0.2456
    151  N         -2.2990  -10.1040   52.6500 N.3   252  VAL252     -0.1245
    152  CA        -0.8340  -10.2200   52.7670 C.3   252  VAL252      0.1561
    153  C         -0.3880  -11.2240   53.7810 C.2   252  VAL252      0.2260
    154  O          0.7280  -11.7150   53.7420 O.2   252  VAL252     -0.2867
    155  CB        -0.1720   -8.8310   53.0740 C.3   252  VAL252      0.0252
    156  CG1        1.2380   -8.9320   53.6870 C.3   252  VAL252      0.0019
    157  CG2       -0.0960   -8.0200   51.7880 C.3   252  VAL252      0.0019
@<TRIPOS>BOND
     1   129   127   am
     2   127   126    1
     3   127   128    2
     4   122   123    1
     5   126   123    1
     6   100   101    1
     7   123   124    1
     8    38    37    1
     9   113   114    1
    10   101   102    1
    11   101   104    1
    12   124   125    2
    13    37    36    1
    14   150   148   ar
    15   103   102    2
    16   147   148    1
    17   147   144    1
    18   102   105   am
    19   107   108    2
    20   107   106    1
    21   148   149   ar
    22   146   145    2
    23   141   140    2
    24   114   115    1
    25   114   117    1
    26   115   116    2
    27   105   106    1
    28    99    96    1
    29   145   144    1
    30    36    35    1
    31   144   143    1
    32    97    98    2
    33    97    96    1
    34   106   109    1
    35   140   143   am
    36   140   139    1
    37   117   118    1
    38    96    95    1
    39    15    13    1
    40   138   139    1
    41   142   139    1
    42    35    34    1
    43   109   111    1
    44   109   110    1
    45     9    10    1
    46   121   119   ar
    47     4     3    2
    48    95    93   am
    49   118   119    1
    50   119   120   ar
    51   130   131    1
    52   137   135    1
    53    13    10    1
    54    13    14    1
    55     3     2    1
    56    10    11    1
    57   110   112    1
    58    34    31    1
    59   135   134    1
    60   135   136    1
    61   131   134    1
    62   131   132    1
    63    93    94    2
    64    93    92    1
    65    12    11    2
    66    32    31    1
    67    32    33    2
    68    31    30    1
    69     2     1    1
    70     2     5    1
    71   133   132    2
    72    92    91    1
    73     5     6    1
    74    53    51    1
    75    45    43    1
    76    90    89    2
    77   157   155    1
    78    44    43    1
    79    91    89   am
    80    39    40    1
    81    43    40    1
    82    89    88    1
    83     6     8    1
    84     6     7    1
    85    51    50    1
    86   151   152    1
    87   152   155    1
    88   152   153    1
    89    52    50    1
    90   155   156    1
    91    40    41    1
    92    42    41    2
    93    50    47    1
    94    29    26    1
    95    88    87    1
    96   154   153    2
    97    79    78    1
    98    27    28    2
    99    27    26    1
   100    78    75    1
   101    77    76    2
   102    26    25    1
   103    16    17    1
   104    87    82   am
   105    47    46    1
   106    47    48    1
   107    57    56    2
   108    76    75    1
   109    76    80   am
   110    83    82    2
   111    75    74    1
   112    82    81    1
   113    74    65   am
   114    48    54   am
   115    48    49    2
   116    17    20    1
   117    17    18    1
   118    54    55    1
   119    71    69   ar
   120    71    73   ar
   121    20    21    1
   122    56    55    1
   123    56    63   am
   124    81    80    1
   125    81    84    1
   126    80    86    1
   127    59    60    1
   128    59    58    1
   129    69    68   ar
   130    61    60   ar
   131    65    64    1
   132    65    66    2
   133    60    62   ar
   134    64    63    1
   135    64    67    1
   136    55    58    1
   137    73    72   ar
   138    18    19    2
   139    22    21    1
   140    22    23    1
   141    68    67    1
   142    68    70   ar
   143    24    23    1
   144    86    85    1
   145    84    85    1
   146    72    70   ar
