@<TRIPOS>MOLECULE
tmp/5owrA00.pdb
 173 162 0 0 0
SMALL
GASTEIGER

@<TRIPOS>ATOM
      1  N          0.1710   42.1120   18.4060 N.3    20  LEU20      -0.1231
      2  CA         0.1740   40.6490   18.5250 C.3    20  LEU20       0.1693
      3  C          0.4130   40.0070   17.1530 C.2    20  LEU20       0.2592
      4  O          1.3150   39.1800   17.0070 O.2    20  LEU20      -0.2718
      5  CB        -1.1470   40.1740   19.1380 C.3    20  LEU20       0.0284
      6  CG        -1.4780   40.7430   20.5290 C.3    20  LEU20       0.0019
      7  CD1       -2.9530   40.5700   20.8600 C.3    20  LEU20       0.0001
      8  CD2       -0.6120   40.1090   21.6080 C.3    20  LEU20       0.0001
      9  N         -0.4100   40.3780   16.1680 N.am   21  GLY21      -0.1957
     10  CA        -0.1260   40.1470   14.7450 C.3    21  GLY21       0.1869
     11  C          0.0690   38.7060   14.3120 C.2    21  GLY21       0.2309
     12  O          0.8280   38.4320   13.3790 O.2    21  GLY21      -0.2863
     13  N         -3.4850   42.6790   14.7410 N.3    24  VAL24      -0.1245
     14  CA        -4.1570   42.4620   16.0260 C.3    24  VAL24       0.1561
     15  C         -3.4060   43.2470   17.1000 C.2    24  VAL24       0.2260
     16  O         -2.2250   42.9870   17.3450 O.2    24  VAL24      -0.2867
     17  CB        -4.1820   40.9730   16.4160 C.3    24  VAL24       0.0252
     18  CG1       -4.8720   40.7500   17.7570 C.3    24  VAL24       0.0019
     19  CG2       -4.9550   40.2000   15.3440 C.3    24  VAL24       0.0019
     20  N         -7.8980   42.1940   23.2290 N.3    37  ALA37      -0.1231
     21  CA        -7.3460   42.0150   21.8950 C.3    37  ALA37       0.1694
     22  C         -8.2170   42.8470   20.9810 C.2    37  ALA37       0.2592
     23  O         -9.4300   42.6370   20.9110 O.2    37  ALA37      -0.2718
     24  CB        -7.3800   40.5550   21.4800 C.3    37  ALA37       0.0304
     25  N         -7.5900   43.7930   20.2910 N.am   38  ALA38      -0.1966
     26  CA        -8.2940   44.8250   19.5450 C.3    38  ALA38       0.1728
     27  C         -8.1110   44.6470   18.0440 C.2    38  ALA38       0.2616
     28  O         -7.1000   44.1100   17.5820 O.2    38  ALA38      -0.2715
     29  CB        -7.8060   46.2020   19.9740 C.3    38  ALA38       0.0334
     30  N         -9.1110   45.1120   17.3040 N.am   39  LYS39      -0.1977
     31  CA        -9.0930   45.1360   15.8470 C.3    39  LYS39       0.1596
     32  C         -9.6820   46.4690   15.3840 C.2    39  LYS39       0.2287
     33  O        -10.8550   46.7470   15.6360 O.2    39  LYS39      -0.2864
     34  CB        -9.9100   43.9600   15.3060 C.3    39  LYS39       0.0298
     35  CG        -9.1340   42.6540   15.2000 C.3    39  LYS39       0.0038
     36  CD        -8.7670   42.2990   13.7680 C.3    39  LYS39       0.0206
     37  CE        -7.9660   41.0100   13.7090 C.3    39  LYS39       0.1093
     38  NZ        -7.4370   40.7500   12.3410 N.3    39  LYS39      -0.1314
     39  N        -18.6780   41.9700    9.5690 N.3    50  TYR50      -0.1241
     40  CA       -18.1820   42.2580   10.9130 C.3    50  TYR50       0.1605
     41  C        -19.3060   42.5920   11.9140 C.2    50  TYR50       0.2264
     42  O        -19.2050   42.2280   13.0840 O.2    50  TYR50      -0.2867
     43  CB       -17.1660   43.3990   10.8930 C.3    50  TYR50       0.0534
     44  CG       -15.8670   43.1080   10.1680 C.ar   50  TYR50      -0.0201
     45  CD1      -14.8400   42.3940   10.7880 C.ar   50  TYR50      -0.0009
     46  CD2      -15.6420   43.5900    8.8810 C.ar   50  TYR50      -0.0009
     47  CE1      -13.6370   42.1450   10.1370 C.ar   50  TYR50       0.0417
     48  CE2      -14.4430   43.3490    8.2240 C.ar   50  TYR50       0.0417
     49  CZ       -13.4450   42.6250    8.8560 C.ar   50  TYR50       0.1957
     50  OH       -12.2590   42.3880    8.2000 O.3    50  TYR50      -0.2866
     51  N        -20.9210   39.3440   12.9070 N.3    53  GLU53      -0.1245
     52  CA       -19.9210   38.7120   13.7800 C.3    53  GLU53       0.1567
     53  C        -19.9970   39.2810   15.2070 C.2    53  GLU53       0.2260
     54  O        -20.0190   38.5210   16.1780 O.2    53  GLU53      -0.2867
     55  CB       -18.5160   38.9020   13.1850 C.3    53  GLU53       0.0388
     56  CG       -17.3880   38.1470   13.8720 C.3    53  GLU53       0.1160
     57  CD       -16.0250   38.4350   13.2570 C.2    53  GLU53       0.3649
     58  OE1      -15.0070   38.2420   13.9530 O.co2  53  GLU53      -0.2457
     59  OE2      -15.9590   38.8520   12.0800 O.co2  53  GLU53      -0.2457
     60  N        -15.1910   33.5660   23.7480 N.3    66  VAL66      -0.1245
     61  CA       -14.5240   34.8680   23.9470 C.3    66  VAL66       0.1561
     62  C        -15.5630   35.9680   24.1740 C.2    66  VAL66       0.2260
     63  O        -16.5880   35.9940   23.4920 O.2    66  VAL66      -0.2867
     64  CB       -13.5690   35.2740   22.7860 C.3    66  VAL66       0.0252
     65  CG1      -12.3960   34.3190   22.7020 C.3    66  VAL66       0.0019
     66  CG2      -14.2870   35.3790   21.4390 C.3    66  VAL66       0.0019
     67  N        -13.2470   46.5220   17.2540 N.3    80  ILE80      -0.1245
     68  CA       -13.7900   45.3370   17.9230 C.3    80  ILE80       0.1561
     69  C        -12.8340   45.0040   19.0540 C.2    80  ILE80       0.2260
     70  O        -11.6630   44.7120   18.8060 O.2    80  ILE80      -0.2867
     71  CB       -13.9240   44.1290   16.9700 C.3    80  ILE80       0.0252
     72  CG1      -14.6860   44.5350   15.7030 C.3    80  ILE80       0.0019
     73  CG2      -14.6370   42.9660   17.6610 C.3    80  ILE80       0.0019
     74  CD1      -15.0030   43.3880   14.7620 C.3    80  ILE80       0.0001
     75  N        -12.0880   42.5070   22.1760 N.3    82  ILE82      -0.1231
     76  CA       -12.3790   41.1660   22.6950 C.3    82  ILE82       0.1692
     77  C        -11.4720   40.8770   23.8890 C.2    82  ILE82       0.2592
     78  O        -10.3200   41.3050   23.8970 O.2    82  ILE82      -0.2718
     79  CB       -12.2140   40.1140   21.5720 C.3    82  ILE82       0.0266
     80  CG1      -13.3980   40.2320   20.6080 C.3    82  ILE82       0.0019
     81  CG2      -12.1260   38.6930   22.1270 C.3    82  ILE82       0.0020
     82  CD1      -13.2880   39.3770   19.3680 C.3    82  ILE82       0.0001
     83  N        -11.9920   40.1490   24.8840 N.am   83  GLU83      -0.1966
     84  CA       -11.2080   39.7770   26.0800 C.3    83  GLU83       0.1733
     85  C         -9.8630   39.1870   25.6710 C.2    83  GLU83       0.2616
     86  O         -9.7910   38.3720   24.7510 O.2    83  GLU83      -0.2715
     87  CB       -11.9600   38.7920   27.0040 C.3    83  GLU83       0.0429
     88  CG       -11.8280   37.3050   26.6450 C.3    83  GLU83       0.1163
     89  CD       -12.5200   36.3750   27.6280 C.2    83  GLU83       0.3649
     90  OE1      -13.5610   35.7900   27.2580 O.co2  83  GLU83      -0.2457
     91  OE2      -12.0200   36.2080   28.7600 O.co2  83  GLU83      -0.2457
     92  N         -8.8030   39.6140   26.3430 N.am   84  PHE84      -0.1960
     93  CA        -7.4740   39.1060   26.0510 C.3    84  PHE84       0.1771
     94  C         -7.3310   37.7270   26.6950 C.2    84  PHE84       0.2620
     95  O         -7.6030   37.5710   27.8880 O.2    84  PHE84      -0.2715
     96  CB        -6.4060   40.0680   26.5670 C.3    84  PHE84       0.0574
     97  CG        -5.0030   39.5990   26.3220 C.ar   84  PHE84      -0.0200
     98  CD1       -4.5750   39.3040   25.0360 C.ar   84  PHE84      -0.0042
     99  CD2       -4.1050   39.4630   27.3740 C.ar   84  PHE84      -0.0042
    100  CE1       -3.2860   38.8710   24.8050 C.ar   84  PHE84      -0.0003
    101  CE2       -2.8160   39.0300   27.1450 C.ar   84  PHE84      -0.0003
    102  CZ        -2.4040   38.7330   25.8610 C.ar   84  PHE84      -0.0000
    103  N         -6.9460   36.7390   25.8860 N.am   85  CYS85      -0.1954
    104  CA        -6.6850   35.3740   26.3390 C.3    85  CYS85       0.1828
    105  C         -5.1650   35.1580   26.3850 C.2    85  CYS85       0.2467
    106  O         -4.5570   34.8120   25.3670 O.2    85  CYS85      -0.2730
    107  CB        -7.3530   34.3770   25.3980 C.3    85  CYS85       0.0996
    108  SG        -9.1550   34.4180   25.4490 S.3    85  CYS85      -0.0797
    109  N         -4.5370   35.3800   27.5620 N.am   86  PRO86      -0.2715
    110  CA        -3.0560   35.3770   27.6460 C.3    86  PRO86       0.1536
    111  C         -2.3270   34.0680   27.3190 C.2    86  PRO86       0.2599
    112  O         -1.1340   34.1070   27.0320 O.2    86  PRO86      -0.2715
    113  CB        -2.7670   35.7960   29.0980 C.3    86  PRO86       0.0310
    114  CG        -4.0750   35.7620   29.8040 C.3    86  PRO86       0.0237
    115  CD        -5.1510   35.9140   28.7910 C.3    86  PRO86       0.0939
    116  N         -3.0170   32.9310   27.3760 N.am   87  GLY87      -0.1941
    117  CA        -2.4210   31.6460   26.9870 C.3    87  GLY87       0.2014
    118  C         -2.2120   31.4650   25.4890 C.2    87  GLY87       0.2639
    119  O         -1.4080   30.6370   25.0740 O.2    87  GLY87      -0.2714
    120  N         -2.9430   32.2220   24.6710 N.am   88  GLY88      -0.1954
    121  CA        -2.8900   32.0610   23.2170 C.3    88  GLY88       0.1869
    122  C         -3.6190   30.8110   22.7540 C.2    88  GLY88       0.2309
    123  O         -4.2950   30.1410   23.5460 O.2    88  GLY88      -0.2863
    124  N         -0.5520   27.0400   18.8710 N.3    92  ALA92      -0.1245
    125  CA         0.6670   27.7690   19.2360 C.3    92  ALA92       0.1562
    126  C          1.3520   27.1410   20.4450 C.2    92  ALA92       0.2260
    127  O          2.5780   27.0480   20.4840 O.2    92  ALA92      -0.2867
    128  CB         0.3620   29.2330   19.5130 C.3    92  ALA92       0.0290
    129  N          5.1220   25.7090   20.6220 N.3    96  GLU96      -0.1245
    130  CA         6.0560   26.1940   21.6360 C.3    96  GLU96       0.1567
    131  C          6.6220   25.0490   22.4770 C.2    96  GLU96       0.2260
    132  O          7.8180   25.0050   22.7220 O.2    96  GLU96      -0.2867
    133  CB         5.3660   27.2310   22.5300 C.3    96  GLU96       0.0388
    134  CG         6.2620   27.9250   23.5500 C.3    96  GLU96       0.1160
    135  CD         7.3910   28.7440   22.9310 C.2    96  GLU96       0.3649
    136  OE1        7.1490   29.4610   21.9300 O.co2  96  GLU96      -0.2457
    137  OE2        8.5240   28.6810   23.4660 O.co2  96  GLU96      -0.2457
    138  N         -8.3710   28.0930   16.8540 N.3   134  ASN134     -0.1240
    139  CA        -9.4770   28.9150   17.3560 C.3   134  ASN134      0.1653
    140  C         -9.9180   28.5800   18.8000 C.2   134  ASN134      0.2266
    141  O        -10.9430   29.0980   19.2760 O.2   134  ASN134     -0.2867
    142  CB       -10.6630   28.8330   16.3830 C.3   134  ASN134      0.1155
    143  CG       -10.3950   29.5650   15.0750 C.2   134  ASN134      0.2627
    144  OD1       -9.6520   30.5490   15.0420 O.2   134  ASN134     -0.2716
    145  ND2      -11.0110   29.0960   13.9940 N.am  134  ASN134     -0.0877
    146  N         -8.6750   29.3050   22.3410 N.3   136  LEU136     -0.1245
    147  CA        -7.7540   30.1590   23.0840 C.3   136  LEU136      0.1561
    148  C         -7.7630   29.7920   24.5630 C.2   136  LEU136      0.2260
    149  O         -8.7830   29.3800   25.0830 O.2   136  LEU136     -0.2867
    150  CB        -8.1410   31.6220   22.9050 C.3   136  LEU136      0.0270
    151  CG        -8.3090   32.1130   21.4670 C.3   136  LEU136      0.0019
    152  CD1       -8.5070   33.6230   21.4700 C.3   136  LEU136      0.0001
    153  CD2       -7.1240   31.7370   20.5900 C.3   136  LEU136      0.0001
    154  N        -12.9600   31.0460   19.7170 N.3   146  ALA146     -0.1231
    155  CA       -12.6910   32.3260   19.0870 C.3   146  ALA146      0.1694
    156  C        -12.9790   32.2700   17.5770 C.2   146  ALA146      0.2592
    157  O        -13.2960   31.2050   17.0190 O.2   146  ALA146     -0.2718
    158  CB       -11.2430   32.7360   19.3590 C.3   146  ALA146      0.0304
    159  N        -12.8940   33.4410   16.9480 N.am  147  ASP147     -0.1974
    160  CA       -13.0130   33.6130   15.4910 C.3   147  ASP147      0.1709
    161  C        -14.3270   33.0890   14.9000 C.2   147  ASP147      0.2293
    162  O        -14.3860   32.0020   14.3030 O.2   147  ASP147     -0.2864
    163  CB       -11.7980   33.0060   14.7690 C.3   147  ASP147      0.1436
    164  CG       -11.5660   33.6060   13.3720 C.2   147  ASP147      0.3671
    165  OD1      -12.4250   34.3840   12.8760 O.co2 147  ASP147     -0.2456
    166  OD2      -10.5050   33.2880   12.7730 O.co2 147  ASP147     -0.2456
    167  N          8.1030   29.7610   27.0530 N.3   279  VAL279     -0.1245
    168  CA         8.3010   31.0450   26.3580 C.3   279  VAL279      0.1561
    169  C          9.4490   31.8410   26.9870 C.2   279  VAL279      0.2260
    170  O         10.1890   32.5250   26.2970 O.2   279  VAL279     -0.2867
    171  CB         6.9870   31.8840   26.3330 C.3   279  VAL279      0.0252
    172  CG1        7.2310   33.3350   25.9090 C.3   279  VAL279      0.0019
    173  CG2        5.9760   31.2360   25.3950 C.3   279  VAL279      0.0019
@<TRIPOS>BOND
     1    50    49    1
     2    48    49   ar
     3    48    46   ar
     4    49    47   ar
     5    46    44   ar
     6    39    40    1
     7    47    45   ar
     8    44    45   ar
     9    44    43    1
    10    43    40    1
    11    40    41    1
    12    41    42    2
    13    59    57   ar
    14    38    37    1
    15   166   164   ar
    16   165   164   ar
    17    51    52    1
    18    55    52    1
    19    55    56    1
    20    57    56    1
    21    57    58   ar
    22   164   163    1
    23    12    11    2
    24    37    36    1
    25    36    35    1
    26    52    53    1
    27   145   143   am
    28   162   161    2
    29    11    10    1
    30    13    14    1
    31    10     9    1
    32    74    72    1
    33   163   160    1
    34   161   160    1
    35   144   143    2
    36   143   142    1
    37    35    34    1
    38    53    54    2
    39    34    31    1
    40    19    17    1
    41    32    33    2
    42    32    31    1
    43   160   159    1
    44    72    71    1
    45    31    30    1
    46    14    17    1
    47    14    15    1
    48     9     3   am
    49   142   139    1
    50    17    18    1
    51   138   139    1
    52   159   156   am
    53    71    73    1
    54    71    68    1
    55     4     3    2
    56   157   156    2
    57    15    16    2
    58     3     2    1
    59    67    68    1
    60    30    27   am
    61   139   140    1
    62   156   155    1
    63    28    27    2
    64    68    69    1
    65    27    26    1
    66     1     2    1
    67     2     5    1
    68   140   141    2
    69    70    69    2
    70   124   125    1
    71   155   158    1
    72   155   154    1
    73     5     6    1
    74   125   128    1
    75   125   126    1
    76    82    80    1
    77    26    29    1
    78    26    25    1
    79    25    22   am
    80   126   127    2
    81     6     7    1
    82     6     8    1
    83   153   151    1
    84    80    79    1
    85   129   130    1
    86    23    22    2
    87    22    21    1
    88    66    64    1
    89   151   152    1
    90   151   150    1
    91    24    21    1
    92    79    81    1
    93    79    76    1
    94   130   131    1
    95   130   133    1
    96    21    20    1
    97   136   135   ar
    98    75    76    1
    99   146   147    1
   100   131   132    2
   101   133   134    1
   102    76    77    1
   103    65    64    1
   104   122   121    1
   105   122   123    2
   106    64    61    1
   107   150   147    1
   108   135   137   ar
   109   135   134    1
   110   147   148    1
   111   121   120    1
   112    63    62    2
   113    60    61    1
   114    77    78    2
   115    77    83   am
   116    61    62    1
   117   148   149    2
   118   120   118   am
   119    86    85    2
   120   100    98   ar
   121   100   102   ar
   122    83    84    1
   123    98    97   ar
   124   119   118    2
   125   106   105    2
   126   173   171    1
   127   107   108    1
   128   107   104    1
   129   118   117    1
   130    85    84    1
   131    85    92   am
   132   102   101   ar
   133   103   104    1
   134   103    94   am
   135   172   171    1
   136    93    92    1
   137    93    96    1
   138    93    94    1
   139    84    87    1
   140   170   169    2
   141    97    96    1
   142    97    99   ar
   143   171   168    1
   144   104   105    1
   145   168   169    1
   146   168   167    1
   147   105   109   am
   148    88    87    1
   149    88    89    1
   150    94    95    2
   151   117   116    1
   152   112   111    2
   153   101    99   ar
   154    90    89   ar
   155   111   116   am
   156   111   110    1
   157   109   110    1
   158   109   115    1
   159    89    91   ar
   160   110   113    1
   161   115   114    1
   162   113   114    1
