@<TRIPOS>MOLECULE
tmp/5owtB00.pdb
 160 161 0 0 0
SMALL
GASTEIGER

@<TRIPOS>ATOM
      1  N        -47.8030  -39.6160   11.6410 N.3    80  HIS80      -0.1226
      2  CA       -48.0380  -39.9690   13.0530 C.3    80  HIS80       0.1752
      3  C        -48.3590  -38.6760   13.8060 C.2    80  HIS80       0.2597
      4  O        -47.5880  -37.6800   13.7230 O.2    80  HIS80      -0.2718
      5  CB       -46.8040  -40.6060   13.6750 C.3    80  HIS80       0.0759
      6  CG       -47.0070  -41.1080   15.0650 C.ar   80  HIS80       0.0818
      7  ND1      -47.5370  -42.3580   15.3310 N.ar   80  HIS80      -0.2268
      8  CD2      -46.7280  -40.5550   16.2710 C.ar   80  HIS80       0.1154
      9  CE1      -47.5980  -42.5410   16.6390 C.ar   80  HIS80       0.1986
     10  NE2      -47.1160  -41.4620   17.2320 N.ar   80  HIS80      -0.2212
     11  N        -49.4750  -38.7210   14.5260 N.am   81  GLY81      -0.1942
     12  CA       -49.9270  -37.6820   15.4510 C.3    81  GLY81       0.2014
     13  C        -49.8940  -38.2690   16.8480 C.2    81  GLY81       0.2640
     14  O        -50.2360  -39.4480   17.0470 O.2    81  GLY81      -0.2714
     15  N        -49.4820  -37.4430   17.8100 N.am   82  SER82      -0.1936
     16  CA       -49.2680  -37.8530   19.1770 C.3    82  SER82       0.2040
     17  C        -49.0410  -36.6570   20.0860 C.2    82  SER82       0.2485
     18  O        -48.2860  -35.7560   19.7600 O.2    82  SER82      -0.2729
     19  CB       -48.0470  -38.7500   19.2790 C.3    82  SER82       0.2129
     20  OG       -47.8010  -39.0510   20.6540 O.3    82  SER82      -0.2179
     21  N        -49.6140  -36.6850   21.2820 N.am   83  PRO83      -0.2715
     22  CA       -49.2660  -35.6210   22.2080 C.3    83  PRO83       0.1536
     23  C        -47.7950  -35.5820   22.5340 C.2    83  PRO83       0.2598
     24  O        -47.3570  -34.5800   23.0670 O.2    83  PRO83      -0.2715
     25  CB       -50.0410  -35.9620   23.4880 C.3    83  PRO83       0.0310
     26  CG       -51.0170  -37.0210   23.1150 C.3    83  PRO83       0.0237
     27  CD       -50.5030  -37.6930   21.8760 C.3    83  PRO83       0.0939
     28  N        -47.0390  -36.6450   22.2290 N.am   84  PHE84      -0.1974
     29  CA       -45.6420  -36.7350   22.6480 C.3    84  PHE84       0.1639
     30  C        -44.6770  -36.5640   21.5080 C.2    84  PHE84       0.2290
     31  O        -43.5980  -37.1480   21.5010 O.2    84  PHE84      -0.2864
     32  CB       -45.3930  -38.0800   23.3400 C.3    84  PHE84       0.0560
     33  CG       -46.3550  -38.3660   24.4530 C.ar   84  PHE84      -0.0200
     34  CD1      -46.5350  -37.4450   25.4890 C.ar   84  PHE84      -0.0042
     35  CD2      -47.0780  -39.5510   24.4760 C.ar   84  PHE84      -0.0042
     36  CE1      -47.4300  -37.6910   26.5150 C.ar   84  PHE84      -0.0003
     37  CE2      -47.9730  -39.8110   25.4990 C.ar   84  PHE84      -0.0003
     38  CZ       -48.1540  -38.8770   26.5190 C.ar   84  PHE84      -0.0000
     39  N        -43.8870  -46.7550   25.0210 N.3    96  ARG96      -0.1231
     40  CA       -44.6740  -45.6080   25.5120 C.3    96  ARG96       0.1694
     41  C        -45.6560  -45.0870   24.4660 C.2    96  ARG96       0.2592
     42  O        -46.6690  -44.5150   24.8020 O.2    96  ARG96      -0.2718
     43  CB       -43.7610  -44.4140   25.8940 C.3    96  ARG96       0.0321
     44  CG       -42.9380  -44.5620   27.1680 C.3    96  ARG96       0.0489
     45  CD       -41.9370  -43.4180   27.3330 C.3    96  ARG96       0.2205
     46  NE       -41.0030  -43.5930   28.4640 N.pl3  96  ARG96      -0.0865
     47  CZ       -40.0100  -42.7450   28.7860 C.cat  96  ARG96       0.5346
     48  NH1      -39.7950  -41.6430   28.0770 N.pl3  96  ARG96       0.1354
     49  NH2      -39.2150  -42.9940   29.8250 N.pl3  96  ARG96       0.1354
     50  N        -45.3350  -45.2340   23.1910 N.am   97  HIS97      -0.1962
     51  CA       -46.1450  -44.6090   22.1320 C.3    97  HIS97       0.1787
     52  C        -47.1270  -45.5550   21.4710 C.2    97  HIS97       0.2620
     53  O        -47.7070  -45.1980   20.4230 O.2    97  HIS97      -0.2715
     54  CB       -45.2180  -43.9600   21.0870 C.3    97  HIS97       0.0785
     55  CG       -44.1740  -43.0820   21.7060 C.ar   97  HIS97       0.0821
     56  ND1      -42.8300  -43.2820   21.5060 N.ar   97  HIS97      -0.2267
     57  CD2      -44.2760  -42.0550   22.5860 C.ar   97  HIS97       0.1154
     58  CE1      -42.1450  -42.3960   22.2070 C.ar   97  HIS97       0.1986
     59  NE2      -43.0000  -41.6370   22.8670 N.ar   97  HIS97      -0.2212
     60  N        -47.2920  -46.7420   22.0760 N.am   98  ALA98      -0.1963
     61  CA       -48.1840  -47.7680   21.5410 C.3    98  ALA98       0.1728
     62  C        -49.5870  -47.4930   21.9730 C.2    98  ALA98       0.2616
     63  O        -49.8700  -47.2860   23.1520 O.2    98  ALA98      -0.2715
     64  CB       -47.7950  -49.1650   21.9970 C.3    98  ALA98       0.0334
     65  N        -50.4720  -47.4920   21.0070 N.am   99  TYR99      -0.1960
     66  CA       -51.8830  -47.3970   21.2910 C.3    99  TYR99       0.1771
     67  C        -52.2820  -48.8310   21.6380 C.2    99  TYR99       0.2619
     68  O        -52.2750  -49.7190   20.7810 O.2    99  TYR99      -0.2715
     69  CB       -52.5730  -46.8670   20.0460 C.3    99  TYR99       0.0574
     70  CG       -54.0460  -46.6070   20.1140 C.ar   99  TYR99      -0.0198
     71  CD1      -54.7600  -46.6970   21.3010 C.ar   99  TYR99      -0.0009
     72  CD2      -54.7360  -46.2540   18.9490 C.ar   99  TYR99      -0.0009
     73  CE1      -56.1160  -46.4630   21.3230 C.ar   99  TYR99       0.0417
     74  CE2      -56.0870  -46.0070   18.9670 C.ar   99  TYR99       0.0417
     75  CZ       -56.7700  -46.1070   20.1530 C.ar   99  TYR99       0.1957
     76  OH       -58.1120  -45.8330   20.1570 O.3    99  TYR99      -0.2866
     77  N        -52.5470  -49.0710   22.9120 N.am  100  ILE100     -0.1977
     78  CA       -52.7290  -50.4360   23.3920 C.3   100  ILE100      0.1596
     79  C        -54.0730  -50.9480   22.8570 C.2   100  ILE100      0.2287
     80  O        -54.1530  -52.0770   22.3820 O.2   100  ILE100     -0.2864
     81  CB       -52.6360  -50.5330   24.9470 C.3   100  ILE100      0.0276
     82  CG1      -51.2160  -50.2020   25.4450 C.3   100  ILE100      0.0022
     83  CG2      -53.0340  -51.9240   25.4320 C.3   100  ILE100      0.0022
     84  CD1      -50.2230  -51.3300   25.2770 C.3   100  ILE100      0.0001
     85  N        -48.9920  -46.8090   15.7440 N.3   109  TYR109     -0.1227
     86  CA       -49.8620  -46.5490   14.5750 C.3   109  TYR109      0.1736
     87  C        -49.4000  -45.3880   13.7260 C.2   109  TYR109      0.2595
     88  O        -48.9330  -44.3940   14.2410 O.2   109  TYR109     -0.2718
     89  CB       -51.3020  -46.2360   15.0110 C.3   109  TYR109      0.0548
     90  CG       -51.9980  -47.4820   15.4170 C.ar  109  TYR109     -0.0200
     91  CD1      -51.5890  -48.1750   16.5500 C.ar  109  TYR109     -0.0009
     92  CD2      -53.0110  -48.0380   14.6320 C.ar  109  TYR109     -0.0009
     93  CE1      -52.1860  -49.3820   16.9000 C.ar  109  TYR109      0.0417
     94  CE2      -53.6230  -49.2280   14.9860 C.ar  109  TYR109      0.0417
     95  CZ       -53.1940  -49.8990   16.1110 C.ar  109  TYR109      0.1957
     96  OH       -53.7690  -51.0630   16.4910 O.3   109  TYR109     -0.2866
     97  N        -49.5860  -45.5450   12.4210 N.am  110  PHE110     -0.1962
     98  CA       -49.1400  -44.6170   11.4230 C.3   110  PHE110      0.1771
     99  C        -50.2610  -44.5890   10.4340 C.2   110  PHE110      0.2619
    100  O        -50.9570  -45.6190   10.2410 O.2   110  PHE110     -0.2715
    101  CB       -47.8220  -45.1170   10.7790 C.3   110  PHE110      0.0574
    102  CG       -46.6330  -44.9930   11.6920 C.ar  110  PHE110     -0.0200
    103  CD1      -45.9270  -43.8030   11.7660 C.ar  110  PHE110     -0.0042
    104  CD2      -46.2620  -46.0310   12.5270 C.ar  110  PHE110     -0.0042
    105  CE1      -44.8530  -43.6520   12.6230 C.ar  110  PHE110     -0.0003
    106  CE2      -45.2220  -45.8820   13.4170 C.ar  110  PHE110     -0.0003
    107  CZ       -44.4990  -44.6880   13.4560 C.ar  110  PHE110     -0.0000
    108  N        -50.4670  -43.4310    9.8080 N.am  111  ALA111     -0.1977
    109  CA       -51.5030  -43.3050    8.7760 C.3   111  ALA111      0.1597
    110  C        -51.0090  -42.7510    7.4360 C.2   111  ALA111      0.2287
    111  O        -50.1180  -41.8910    7.4080 O.2   111  ALA111     -0.2864
    112  CB       -52.6570  -42.4680    9.2950 C.3   111  ALA111      0.0319
    113  N        -56.1940  -38.4070    9.5110 N.3   116  LYS116     -0.1231
    114  CA       -56.2980  -39.4530   10.4960 C.3   116  LYS116      0.1693
    115  C        -55.2970  -39.2730   11.5810 C.2   116  LYS116      0.2592
    116  O        -55.6500  -39.3140   12.7360 O.2   116  LYS116     -0.2718
    117  CB       -56.0490  -40.8160    9.8360 C.3   116  LYS116      0.0285
    118  CG       -55.9940  -42.0270   10.7660 C.3   116  LYS116      0.0035
    119  CD       -57.1190  -42.0420   11.7930 C.3   116  LYS116      0.0206
    120  CE       -58.3850  -42.6890   11.2580 C.3   116  LYS116      0.1093
    121  NZ       -59.4410  -42.7120   12.3090 N.3   116  LYS116     -0.1314
    122  N        -54.0240  -39.0710   11.2360 N.am  117  SER117     -0.1952
    123  CA       -53.0320  -38.7650   12.2830 C.3   117  SER117      0.1924
    124  C        -53.3960  -37.4930   13.0510 C.2   117  SER117      0.2314
    125  O        -53.1560  -37.4040   14.2630 O.2   117  SER117     -0.2863
    126  CB       -51.6280  -38.6760   11.7110 C.3   117  SER117      0.2116
    127  OG       -51.1470  -39.9610   11.3830 O.3   117  SER117     -0.2180
    128  N        -55.1800  -37.5300   16.4230 N.3   120  TYR120     -0.1241
    129  CA       -54.4420  -37.9440   17.6230 C.3   120  TYR120      0.1605
    130  C        -53.4950  -36.8960   18.2120 C.2   120  TYR120      0.2264
    131  O        -52.8600  -37.1540   19.2030 O.2   120  TYR120     -0.2867
    132  CB       -53.6580  -39.2270   17.3260 C.3   120  TYR120      0.0534
    133  CG       -54.6020  -40.3550   17.0800 C.ar  120  TYR120     -0.0201
    134  CD1      -55.0930  -40.6190   15.8010 C.ar  120  TYR120     -0.0009
    135  CD2      -55.0660  -41.1100   18.1340 C.ar  120  TYR120     -0.0009
    136  CE1      -56.0010  -41.6370   15.5960 C.ar  120  TYR120      0.0417
    137  CE2      -55.9660  -42.1230   17.9420 C.ar  120  TYR120      0.0417
    138  CZ       -56.4310  -42.3780   16.6770 C.ar  120  TYR120      0.1957
    139  OH       -57.3100  -43.3900   16.5290 O.3   120  TYR120     -0.2866
    140  N        -54.2800  -36.4020   21.7410 N.3   123  GLY123     -0.1210
    141  CA       -54.7050  -37.6440   22.3750 C.3   123  GLY123      0.1956
    142  C        -55.7130  -38.4580   21.5910 C.2   123  GLY123      0.2611
    143  O        -56.2410  -38.0350   20.5600 O.2   123  GLY123     -0.2717
    144  N        -55.9640  -39.6470   22.1120 N.am  124  ILE124     -0.1979
    145  CA       -56.8490  -40.5970   21.5170 C.3   124  ILE124      0.1595
    146  C        -58.2100  -39.9400   21.4740 C.2   124  ILE124      0.2287
    147  O        -58.6540  -39.3480   22.4750 O.2   124  ILE124     -0.2864
    148  CB       -56.9130  -41.8930   22.3530 C.3   124  ILE124      0.0276
    149  CG1      -55.5770  -42.6260   22.3030 C.3   124  ILE124      0.0022
    150  CG2      -58.0470  -42.8000   21.8660 C.3   124  ILE124      0.0022
    151  CD1      -55.4900  -43.7600   23.3060 C.3   124  ILE124      0.0001
    152  N        -53.8010  -47.7910    7.2940 N.3   185  GLU185     -0.1245
    153  CA       -53.1850  -47.4550    8.5980 C.3   185  GLU185      0.1567
    154  C        -52.2230  -48.5820    8.9450 C.2   185  GLU185      0.2260
    155  O        -52.4350  -49.6950    8.4880 O.2   185  GLU185     -0.2867
    156  CB       -54.2330  -47.2920    9.6700 C.3   185  GLU185      0.0388
    157  CG       -55.2900  -46.3150    9.2290 C.3   185  GLU185      0.1160
    158  CD       -56.3680  -46.0670   10.2540 C.2   185  GLU185      0.3649
    159  OE1      -56.2360  -46.5550   11.3830 O.co2 185  GLU185     -0.2457
    160  OE2      -57.3430  -45.3620    9.9200 O.co2 185  GLU185     -0.2457
@<TRIPOS>BOND
     1   152   153    1
     2   111   110    2
     3   110   109    1
     4   155   154    2
     5   153   154    1
     6   153   156    1
     7   109   112    1
     8   109   108    1
     9   157   156    1
    10   157   158    1
    11   113   114    1
    12   108    99   am
    13   117   114    1
    14   117   118    1
    15   160   158   ar
    16   100    99    2
    17   158   159   ar
    18    99    98    1
    19   114   115    1
    20   118   119    1
    21   101    98    1
    22   101   102    1
    23   122   115   am
    24   122   123    1
    25   120   119    1
    26   120   121    1
    27   127   126    1
    28    98    97    1
    29   115   116    2
    30     1     2    1
    31   102   103   ar
    32   102   104   ar
    33   126   123    1
    34   103   105   ar
    35   123   124    1
    36    97    87   am
    37   104   106   ar
    38   105   107   ar
    39   124   125    2
    40     2     5    1
    41     2     3    1
    42   106   107   ar
    43     5     6    1
    44     4     3    2
    45    87    88    2
    46    87    86    1
    47     3    11   am
    48    11    12    1
    49    86    89    1
    50    86    85    1
    51    92    94   ar
    52    92    90   ar
    53    94    95   ar
    54    89    90    1
    55     6     7   ar
    56     6     8   ar
    57     7     9   ar
    58    90    91   ar
    59    12    13    1
    60   136   134   ar
    61   136   138   ar
    62   134   133   ar
    63    95    96    1
    64    95    93   ar
    65     8    10   ar
    66   128   129    1
    67   139   138    1
    68    91    93   ar
    69     9    10   ar
    70   138   137   ar
    71    13    14    2
    72    13    15   am
    73   133   132    1
    74   133   135   ar
    75   132   129    1
    76   129   130    1
    77    15    16    1
    78   137   135   ar
    79   130   131    2
    80    72    74   ar
    81    72    70   ar
    82    74    75   ar
    83    16    19    1
    84    16    17    1
    85    19    20    1
    86    18    17    2
    87    69    70    1
    88    69    66    1
    89    17    21   am
    90    70    71   ar
    91    75    76    1
    92    75    73   ar
    93    53    52    2
    94   143   142    2
    95    68    67    2
    96    65    66    1
    97    65    62   am
    98    54    55    1
    99    54    51    1
   100    21    27    1
   101    21    22    1
   102    66    67    1
   103    71    73   ar
   104    52    60   am
   105    52    51    1
   106   146   145    1
   107   146   147    2
   108    31    30    2
   109    56    55   ar
   110    56    58   ar
   111    30    29    1
   112   145   144    1
   113   145   148    1
   114    61    62    1
   115    61    64    1
   116    61    60    1
   117   142   144   am
   118   142   141    1
   119    67    77   am
   120    55    57   ar
   121   140   141    1
   122   150   148    1
   123    27    26    1
   124    62    63    2
   125    51    50    1
   126    58    59   ar
   127    22    23    1
   128    22    25    1
   129    28    23   am
   130    28    29    1
   131   149   148    1
   132   149   151    1
   133    80    79    2
   134    23    24    2
   135    57    59   ar
   136    29    32    1
   137    79    78    1
   138    77    78    1
   139    26    25    1
   140    50    41   am
   141    32    33    1
   142    78    81    1
   143    33    35   ar
   144    33    34   ar
   145    41    42    2
   146    41    40    1
   147    35    37   ar
   148    81    83    1
   149    81    82    1
   150    39    40    1
   151    84    82    1
   152    34    36   ar
   153    37    38   ar
   154    40    43    1
   155    43    44    1
   156    36    38   ar
   157    44    45    1
   158    45    46    1
   159    48    47    1
   160    46    47    2
   161    47    49    1
