@<TRIPOS>MOLECULE
tmp/5owwD01.pdb
 141 139 0 0 0
SMALL
GASTEIGER

@<TRIPOS>ATOM
      1  N        -43.2150   -9.7530   23.0270 N.3    40  TRP40      -0.1228
      2  CA       -43.5440   -8.3330   22.8480 C.3    40  TRP40       0.1722
      3  C        -42.6780   -7.5970   21.8300 C.2    40  TRP40       0.2437
      4  O        -43.2430   -6.9590   20.9300 O.2    40  TRP40      -0.2733
      5  CB       -43.4550   -7.6560   24.2270 C.3    40  TRP40       0.0563
      6  CG       -43.6020   -6.1570   24.2400 C.ar   40  TRP40       0.0003
      7  CD1      -44.3280   -5.3750   23.3820 C.ar   40  TRP40       0.0946
      8  CD2      -43.0050   -5.2670   25.1870 C.ar   40  TRP40       0.0152
      9  NE1      -44.2170   -4.0490   23.7480 N.ar   40  TRP40      -0.2442
     10  CE2      -43.4090   -3.9620   24.8520 C.ar   40  TRP40       0.0810
     11  CE3      -42.1680   -5.4530   26.2910 C.ar   40  TRP40       0.0012
     12  CZ2      -42.9990   -2.8440   25.5830 C.ar   40  TRP40       0.0191
     13  CZ3      -41.7580   -4.3420   27.0110 C.ar   40  TRP40       0.0001
     14  CH2      -42.1730   -3.0550   26.6550 C.ar   40  TRP40       0.0015
     15  N        -41.3400   -7.6070   21.9060 N.am   41  PRO41      -0.2718
     16  CA       -40.5530   -6.8220   20.9350 C.3    41  PRO41       0.1535
     17  C        -40.6750   -7.3120   19.5050 C.2    41  PRO41       0.2598
     18  O        -40.3150   -6.5620   18.5860 O.2    41  PRO41      -0.2715
     19  CB       -39.1150   -6.9580   21.4480 C.3    41  PRO41       0.0310
     20  CG       -39.1160   -8.1330   22.3190 C.3    41  PRO41       0.0237
     21  CD       -40.4740   -8.2650   22.9040 C.3    41  PRO41       0.0939
     22  N        -41.2010   -8.5180   19.2820 N.am   42  PHE42      -0.1974
     23  CA       -41.2960   -9.0970   17.9480 C.3    42  PHE42       0.1639
     24  C        -42.7140   -9.0730   17.3950 C.2    42  PHE42       0.2290
     25  O        -42.9690   -9.6460   16.3330 O.2    42  PHE42      -0.2864
     26  CB       -40.7610  -10.5250   17.9810 C.3    42  PHE42       0.0560
     27  CG       -39.3280  -10.6130   18.4480 C.ar   42  PHE42      -0.0200
     28  CD1      -38.2750  -10.3050   17.6010 C.ar   42  PHE42      -0.0042
     29  CD2      -39.0400  -10.9640   19.7540 C.ar   42  PHE42      -0.0042
     30  CE1      -36.9440  -10.3670   18.0640 C.ar   42  PHE42      -0.0003
     31  CE2      -37.7310  -11.0380   20.1970 C.ar   42  PHE42      -0.0003
     32  CZ       -36.6960  -10.7420   19.3630 C.ar   42  PHE42      -0.0000
     33  N        -44.4500   -6.4750   16.2920 N.3    44  GLN44      -0.1231
     34  CA       -44.6900   -5.4020   15.3410 C.3    44  GLN44       0.1683
     35  C        -43.3540   -5.0490   14.7110 C.2    44  GLN44       0.2434
     36  O        -42.3000   -5.4550   15.2160 O.2    44  GLN44      -0.2733
     37  CB       -45.3180   -4.1750   16.0170 C.3    44  GLN44       0.0380
     38  CG       -44.5110   -3.5930   17.1490 C.3    44  GLN44       0.0905
     39  CD       -44.6110   -4.4200   18.4240 C.2    44  GLN44       0.2608
     40  OE1      -45.7130   -4.7480   18.8790 O.2    44  GLN44      -0.2717
     41  NE2      -43.4600   -4.7830   18.9850 N.am   44  GLN44      -0.0878
     42  N        -43.3610   -4.3400   13.5870 N.am   45  PRO45      -0.2718
     43  CA       -42.0880   -3.9410   12.9760 C.3    45  PRO45       0.1535
     44  C        -41.2300   -3.1570   13.9630 C.2    45  PRO45       0.2598
     45  O        -41.7360   -2.4260   14.8120 O.2    45  PRO45      -0.2715
     46  CB       -42.5300   -3.0680   11.7980 C.3    45  PRO45       0.0310
     47  CG       -43.8590   -3.6340   11.3990 C.3    45  PRO45       0.0237
     48  CD       -44.5160   -4.0630   12.7130 C.3    45  PRO45       0.0939
     49  N        -39.9140   -3.2990   13.8170 N.am   46  VAL46      -0.1964
     50  CA       -38.9850   -2.5150   14.6250 C.3    46  VAL46       0.1727
     51  C        -39.1800   -1.0380   14.3230 C.2    46  VAL46       0.2616
     52  O        -38.9740   -0.5900   13.1880 O.2    46  VAL46      -0.2715
     53  CB       -37.5450   -2.9560   14.3570 C.3    46  VAL46       0.0290
     54  CG1      -36.5650   -2.0180   15.0590 C.3    46  VAL46       0.0023
     55  CG2      -37.3490   -4.3950   14.8170 C.3    46  VAL46       0.0023
     56  N        -39.6000   -0.2770   15.3320 N.am   47  ASP47      -0.1971
     57  CA       -39.7320    1.1740   15.2100 C.3    47  ASP47       0.1709
     58  C        -38.3890    1.7880   15.5660 C.2    47  ASP47       0.2293
     59  O        -38.1330    2.1590   16.7130 O.2    47  ASP47      -0.2864
     60  CB       -40.8510    1.7080   16.0980 C.3    47  ASP47       0.1436
     61  CG       -41.1420    3.1800   15.8430 C.2    47  ASP47       0.3671
     62  OD1      -40.2320    3.9030   15.3840 O.co2  47  ASP47      -0.2456
     63  OD2      -42.2830    3.6160   16.0960 O.co2  47  ASP47      -0.2456
     64  N        -37.2200    3.7810   18.9060 N.3    51  LEU51      -0.1245
     65  CA       -36.2370    3.0190   19.6640 C.3    51  LEU51       0.1561
     66  C        -34.8210    3.5760   19.5650 C.2    51  LEU51       0.2260
     67  O        -33.9120    2.9920   20.1660 O.2    51  LEU51      -0.2867
     68  CB       -36.2270    1.5570   19.2040 C.3    51  LEU51       0.0270
     69  CG       -37.4170    0.6790   19.5900 C.3    51  LEU51       0.0019
     70  CD1      -37.2860   -0.6790   18.9190 C.3    51  LEU51       0.0001
     71  CD2      -37.5140    0.5260   21.0990 C.3    51  LEU51       0.0001
     72  N        -32.5750    3.6710   17.0420 N.3    53  LEU53      -0.1245
     73  CA       -31.6980    2.7250   16.3560 C.3    53  LEU53       0.1561
     74  C        -31.5050    3.2170   14.9250 C.2    53  LEU53       0.2260
     75  O        -31.9460    2.5660   13.9680 O.2    53  LEU53      -0.2867
     76  CB       -32.2810    1.3130   16.3730 C.3    53  LEU53       0.0270
     77  CG       -32.6750    0.7000   17.7210 C.3    53  LEU53       0.0019
     78  CD1      -33.5440   -0.5290   17.5150 C.3    53  LEU53       0.0001
     79  CD2      -31.4400    0.3470   18.5420 C.3    53  LEU53       0.0001
     80  N        -30.6630    0.8700   12.0310 N.3    56  TYR56      -0.1241
     81  CA       -31.3070   -0.4390   11.9530 C.3    56  TYR56       0.1605
     82  C        -31.6200   -0.8100   10.5100 C.2    56  TYR56       0.2264
     83  O        -31.2980   -1.9160   10.0600 O.2    56  TYR56      -0.2867
     84  CB       -32.5840   -0.4860   12.8010 C.3    56  TYR56       0.0534
     85  CG       -33.1830   -1.8770   12.7830 C.ar   56  TYR56      -0.0201
     86  CD1      -32.7240   -2.8630   13.6500 C.ar   56  TYR56      -0.0009
     87  CD2      -34.1760   -2.2150   11.8620 C.ar   56  TYR56      -0.0009
     88  CE1      -33.2460   -4.1490   13.6110 C.ar   56  TYR56       0.0417
     89  CE2      -34.7090   -3.4980   11.8110 C.ar   56  TYR56       0.0417
     90  CZ       -34.2470   -4.4570   12.6780 C.ar   56  TYR56       0.1957
     91  OH       -34.7770   -5.7190   12.6070 O.3    56  TYR56      -0.2866
     92  N        -32.4740  -10.3270   14.0820 N.3    95  CYS95      -0.1235
     93  CA       -32.0700  -10.0300   15.4460 C.3    95  CYS95       0.1677
     94  C        -30.6250  -10.4460   15.6910 C.2    95  CYS95       0.2270
     95  O        -29.8600   -9.7120   16.3230 O.2    95  CYS95      -0.2867
     96  CB       -33.0200  -10.7350   16.4060 C.3    95  CYS95       0.0956
     97  SG       -32.8130  -10.2180   18.1060 S.3    95  CYS95      -0.0801
     98  N        -28.1920   -8.0000   13.7980 N.3    98  TYR98      -0.1227
     99  CA       -28.1030   -6.6190   14.2390 C.3    98  TYR98       0.1736
    100  C        -27.4390   -6.4930   15.6010 C.2    98  TYR98       0.2595
    101  O        -26.7270   -5.5160   15.8500 O.2    98  TYR98      -0.2718
    102  CB       -29.4960   -5.9790   14.2870 C.3    98  TYR98       0.0548
    103  CG       -29.4220   -4.5250   14.6680 C.ar   98  TYR98      -0.0200
    104  CD1      -29.0220   -3.5680   13.7450 C.ar   98  TYR98      -0.0009
    105  CD2      -29.7060   -4.1120   15.9610 C.ar   98  TYR98      -0.0009
    106  CE1      -28.9250   -2.2350   14.0950 C.ar   98  TYR98       0.0417
    107  CE2      -29.6160   -2.7810   16.3240 C.ar   98  TYR98       0.0417
    108  CZ       -29.2240   -1.8470   15.3960 C.ar   98  TYR98       0.1957
    109  OH       -29.1400   -0.5280   15.7880 O.3    98  TYR98      -0.2866
    110  N        -27.6560   -7.4560   16.4870 N.am   99  ASN99      -0.1974
    111  CA       -27.2780   -7.3150   17.8840 C.3    99  ASN99       0.1688
    112  C        -26.0690   -8.1750   18.2150 C.2    99  ASN99       0.2292
    113  O        -25.7840   -9.1800   17.5590 O.2    99  ASN99      -0.2864
    114  CB       -28.4440   -7.6950   18.8030 C.3    99  ASN99       0.1181
    115  CG       -29.6410   -6.8210   18.5970 C.2    99  ASN99       0.2629
    116  OD1      -29.7020   -5.6920   19.0990 O.2    99  ASN99      -0.2716
    117  ND2      -30.6030   -7.3200   17.8370 N.am   99  ASN99      -0.0877
    118  N        -29.6360   -9.1950   25.5800 N.3   104  ASP104     -0.1225
    119  CA       -30.9590   -9.5780   26.0750 C.3   104  ASP104      0.1805
    120  C        -31.9610   -9.8200   24.9460 C.2   104  ASP104      0.2597
    121  O        -32.7040  -10.8080   24.9730 O.2   104  ASP104     -0.2718
    122  CB       -31.4860   -8.5100   27.0310 C.3   104  ASP104      0.1424
    123  CG       -30.8210   -8.5760   28.3860 C.2   104  ASP104      0.3668
    124  OD1      -30.5080   -9.7010   28.8400 O.co2 104  ASP104     -0.2456
    125  OD2      -30.6150   -7.5040   28.9900 O.co2 104  ASP104     -0.2456
    126  N        -31.9860   -8.9440   23.9380 N.am  105  ILE105     -0.1980
    127  CA       -32.9550   -9.1340   22.8590 C.3   105  ILE105      0.1595
    128  C        -32.6250  -10.3940   22.0660 C.2   105  ILE105      0.2287
    129  O        -33.5280  -11.0920   21.5820 O.2   105  ILE105     -0.2864
    130  CB       -33.0220   -7.8820   21.9610 C.3   105  ILE105      0.0276
    131  CG1      -34.1880   -7.9610   20.9700 C.3   105  ILE105      0.0022
    132  CG2      -31.7440   -7.6990   21.1810 C.3   105  ILE105      0.0022
    133  CD1      -35.5400   -7.7610   21.6360 C.3   105  ILE105      0.0001
    134  N        -33.9920  -13.3770   23.9360 N.3   108  MET108     -0.1245
    135  CA       -35.4410  -13.4820   23.7390 C.3   108  MET108      0.1570
    136  C        -35.7550  -14.1420   22.4080 C.2   108  MET108      0.2261
    137  O        -36.5820  -15.0550   22.3300 O.2   108  MET108     -0.2867
    138  CB       -36.0830  -12.0950   23.8180 C.3   108  MET108      0.0387
    139  CG       -35.9020  -11.4850   25.1920 C.3   108  MET108      0.0595
    140  SD       -36.4370   -9.7840   25.2740 S.3   108  MET108     -0.1393
    141  CE       -38.1530  -10.1130   25.5070 C.3   108  MET108      0.0692
@<TRIPOS>BOND
     1    83    82    2
     2    82    81    1
     3    47    46    1
     4    47    48    1
     5    46    43    1
     6    89    87   ar
     7    89    90   ar
     8    87    85   ar
     9    81    80    1
    10    81    84    1
    11    91    90    1
    12    90    88   ar
    13    48    42    1
    14    85    84    1
    15    85    86   ar
    16    43    42    1
    17    43    44    1
    18    52    51    2
    19    42    35   am
    20    88    86   ar
    21   104   106   ar
    22   104   103   ar
    23    98    99    1
    24    49    44   am
    25    49    50    1
    26    44    45    2
    27    75    74    2
    28    92    93    1
    29   106   108   ar
    30    99   102    1
    31    99   100    1
    32   102   103    1
    33    51    50    1
    34    51    56   am
    35    53    50    1
    36    53    55    1
    37    53    54    1
    38   103   105   ar
    39    35    36    2
    40    35    34    1
    41    74    73    1
    42    57    56    1
    43    57    58    1
    44    57    60    1
    45    34    37    1
    46    34    33    1
    47    62    61   ar
    48   108   109    1
    49   108   107   ar
    50    93    94    1
    51    93    96    1
    52    58    59    2
    53   100   101    2
    54   100   110   am
    55    94    95    2
    56    61    63   ar
    57    61    60    1
    58   105   107   ar
    59    37    38    1
    60    25    24    2
    61    73    76    1
    62    73    72    1
    63    76    77    1
    64    96    97    1
    65   110   111    1
    66    38    39    1
    67    24    23    1
    68    78    77    1
    69   113   112    2
    70    28    30   ar
    71    28    27   ar
    72    77    79    1
    73   117   115   am
    74   111   112    1
    75   111   114    1
    76    23    26    1
    77    23    22    1
    78    26    27    1
    79    30    32   ar
    80    39    40    2
    81    39    41   am
    82    27    29   ar
    83    18    17    2
    84   115   114    1
    85   115   116    2
    86    64    65    1
    87    70    69    1
    88    68    69    1
    89    68    65    1
    90    22    17   am
    91    32    31   ar
    92    17    16    1
    93    66    65    1
    94    66    67    2
    95    69    71    1
    96    29    31   ar
    97     4     3    2
    98    16    19    1
    99    16    15    1
   100   131   133    1
   101   131   130    1
   102   132   130    1
   103    19    20    1
   104   129   128    2
   105     3    15   am
   106     3     2    1
   107    15    21    1
   108   130   127    1
   109   128   127    1
   110    20    21    1
   111   137   136    2
   112   136   135    1
   113     2     1    1
   114     2     5    1
   115   127   126    1
   116     7     9   ar
   117     7     6   ar
   118   135   138    1
   119   135   134    1
   120     9    10   ar
   121   138   139    1
   122   126   120   am
   123     5     6    1
   124     6     8   ar
   125    10     8   ar
   126    10    12   ar
   127   120   121    2
   128   120   119    1
   129     8    11   ar
   130   139   140    1
   131   140   141    1
   132   118   119    1
   133    12    14   ar
   134   119   122    1
   135    11    13   ar
   136    14    13   ar
   137   122   123    1
   138   123   124   ar
   139   123   125   ar
