@<TRIPOS>MOLECULE
tmp/5owyA01.pdb
 222 212 0 0 0
SMALL
GASTEIGER

@<TRIPOS>ATOM
      1  N         32.9340   20.2130   39.2830 N.3    77  GLU77      -0.1245
      2  CA        31.6070   20.6680   38.9070 C.3    77  GLU77       0.1567
      3  C         30.6740   19.4980   38.6030 C.2    77  GLU77       0.2260
      4  O         31.0450   18.5470   37.8790 O.2    77  GLU77      -0.2867
      5  CB        31.6830   21.5810   37.6770 C.3    77  GLU77       0.0388
      6  CG        32.5840   22.8020   37.8190 C.3    77  GLU77       0.1160
      7  CD        32.4440   23.8020   36.6640 C.2    77  GLU77       0.3649
      8  OE1       31.4590   23.7550   35.9110 O.co2  77  GLU77      -0.2457
      9  OE2       33.3320   24.6440   36.5000 O.co2  77  GLU77      -0.2457
     10  N         29.3570   25.5360   35.9470 N.3   122  ASN122     -0.1240
     11  CA        29.3480   26.7630   35.1490 C.3   122  ASN122      0.1653
     12  C         28.6000   26.6170   33.8300 C.2   122  ASN122      0.2266
     13  O         27.9600   27.5500   33.3800 O.2   122  ASN122     -0.2867
     14  CB        30.7710   27.1560   34.8390 C.3   122  ASN122      0.1155
     15  CG        31.3850   27.9760   35.9380 C.2   122  ASN122      0.2627
     16  OD1       31.0040   29.1280   36.1380 O.2   122  ASN122     -0.2716
     17  ND2       32.2770   27.3680   36.7030 N.am  122  ASN122     -0.0877
     18  N         28.9400   23.7100   30.2650 N.3   124  GLY124     -0.1210
     19  CA        29.0440   22.4360   29.5590 C.3   124  GLY124      0.1956
     20  C         29.8120   21.3450   30.2870 C.2   124  GLY124      0.2611
     21  O         29.3900   20.2100   30.3270 O.2   124  GLY124     -0.2717
     22  N         30.9450   21.7050   30.8640 N.am  125  LEU125     -0.1979
     23  CA        31.7740   20.7400   31.5910 C.3   125  LEU125      0.1596
     24  C         31.0320   20.1630   32.7910 C.2   125  LEU125      0.2287
     25  O         31.0290   18.9460   32.9960 O.2   125  LEU125     -0.2864
     26  CB        33.0970   21.3830   31.9890 C.3   125  LEU125      0.0297
     27  CG        34.0960   20.5600   32.8140 C.3   125  LEU125      0.0022
     28  CD1       35.5330   20.9190   32.5180 C.3   125  LEU125      0.0001
     29  CD2       33.8480   20.8200   34.2820 C.3   125  LEU125      0.0001
     30  N         28.0570   18.0180   31.6160 N.3   128  LEU128     -0.1245
     31  CA        28.5370   16.7410   31.0840 C.3   128  LEU128      0.1561
     32  C         28.7210   15.7220   32.1930 C.2   128  LEU128      0.2260
     33  O         28.3320   14.5610   32.0550 O.2   128  LEU128     -0.2867
     34  CB        29.8540   16.9000   30.3410 C.3   128  LEU128      0.0270
     35  CG        30.3140   15.6370   29.5760 C.3   128  LEU128      0.0019
     36  CD1       29.5490   15.4260   28.2890 C.3   128  LEU128      0.0001
     37  CD2       31.7960   15.6980   29.2710 C.3   128  LEU128      0.0001
     38  N         33.8880   28.8760   41.8350 N.3   263  TYR263     -0.1241
     39  CA        34.4850   29.8900   40.9390 C.3   263  TYR263      0.1605
     40  C         33.6720   29.9350   39.6350 C.2   263  TYR263      0.2264
     41  O         33.4730   28.9010   39.0030 O.2   263  TYR263     -0.2867
     42  CB        35.9560   29.6010   40.6440 C.3   263  TYR263      0.0534
     43  CG        36.8410   30.1630   41.7010 C.ar  263  TYR263     -0.0201
     44  CD1       37.0260   29.4930   42.9060 C.ar  263  TYR263     -0.0009
     45  CD2       37.4620   31.3970   41.5280 C.ar  263  TYR263     -0.0009
     46  CE1       37.8280   30.0250   43.9050 C.ar  263  TYR263      0.0417
     47  CE2       38.2650   31.9320   42.5160 C.ar  263  TYR263      0.0417
     48  CZ        38.4330   31.2380   43.7020 C.ar  263  TYR263      0.1957
     49  OH        39.2140   31.7710   44.6770 O.3   263  TYR263     -0.2866
     50  N         33.9310   30.8530   36.4870 N.3   265  ASN265     -0.1225
     51  CA        34.6140   31.0340   35.2110 C.3   265  ASN265      0.1785
     52  C         34.3490   29.8380   34.3050 C.2   265  ASN265      0.2597
     53  O         34.2980   28.6980   34.7490 O.2   265  ASN265     -0.2718
     54  CB        36.1160   31.1730   35.4360 C.3   265  ASN265      0.1169
     55  CG        36.4600   32.3670   36.2970 C.2   265  ASN265      0.2627
     56  OD1       35.8840   33.4480   36.1300 O.2   265  ASN265     -0.2716
     57  ND2       37.3700   32.1760   37.2510 N.am  265  ASN265     -0.0877
     58  N         34.1560   30.1240   33.0360 N.am  266  ASP266     -0.1960
     59  CA        33.9930   29.1110   32.0370 C.3   266  ASP266      0.1840
     60  C         35.1240   29.3590   31.0460 C.2   266  ASP266      0.2622
     61  O         35.2320   30.4500   30.4800 O.2   266  ASP266     -0.2715
     62  CB        32.6140   29.2840   31.4010 C.3   266  ASP266      0.1450
     63  CG        32.2900   28.1910   30.4000 C.2   266  ASP266      0.3671
     64  OD1       32.8180   28.2370   29.2650 O.co2 266  ASP266     -0.2456
     65  OD2       31.5020   27.2970   30.7630 O.co2 266  ASP266     -0.2456
     66  N         36.0080   28.3830   30.8840 N.am  267  ASN267     -0.1958
     67  CA        37.1100   28.5040   29.9090 C.3   267  ASN267      0.1819
     68  C         38.0520   29.6570   30.2150 C.2   267  ASN267      0.2621
     69  O         38.5170   30.3370   29.3100 O.2   267  ASN267     -0.2715
     70  CB        36.5670   28.6130   28.4640 C.3   267  ASN267      0.1195
     71  CG        36.3750   27.2710   27.8230 C.2   267  ASN267      0.2630
     72  OD1       37.3060   26.7240   27.2470 O.2   267  ASN267     -0.2716
     73  ND2       35.1770   26.7210   27.9360 N.am  267  ASN267     -0.0877
     74  N         38.3540   29.8530   31.4980 N.am  268  PHE268     -0.1960
     75  CA        39.3120   30.8700   31.9170 C.3   268  PHE268      0.1771
     76  C         39.9810   30.4590   33.2350 C.2   268  PHE268      0.2619
     77  O         39.2950   30.1910   34.2220 O.2   268  PHE268     -0.2715
     78  CB        38.6280   32.2220   32.0800 C.3   268  PHE268      0.0574
     79  CG        39.5980   33.3490   32.3710 C.ar  268  PHE268     -0.0200
     80  CD1       40.3720   33.8940   31.3550 C.ar  268  PHE268     -0.0042
     81  CD2       39.7700   33.8340   33.6690 C.ar  268  PHE268     -0.0042
     82  CE1       41.2850   34.9100   31.6200 C.ar  268  PHE268     -0.0003
     83  CE2       40.6910   34.8460   33.9420 C.ar  268  PHE268     -0.0003
     84  CZ        41.4480   35.3810   32.9190 C.ar  268  PHE268     -0.0000
     85  N         41.3060   30.4140   33.2410 N.am  269  PHE269     -0.1974
     86  CA        42.0680   30.0340   34.4160 C.3   269  PHE269      0.1639
     87  C         42.4120   31.2970   35.1960 C.2   269  PHE269      0.2290
     88  O         43.0720   32.1830   34.6630 O.2   269  PHE269     -0.2864
     89  CB        43.3570   29.3210   34.0060 C.3   269  PHE269      0.0560
     90  CG        44.3160   29.0810   35.1440 C.ar  269  PHE269     -0.0200
     91  CD1       43.9650   28.2620   36.1930 C.ar  269  PHE269     -0.0042
     92  CD2       45.5700   29.6940   35.1600 C.ar  269  PHE269     -0.0042
     93  CE1       44.8620   28.0220   37.2400 C.ar  269  PHE269     -0.0003
     94  CE2       46.4610   29.4660   36.1950 C.ar  269  PHE269     -0.0003
     95  CZ        46.1020   28.6170   37.2330 C.ar  269  PHE269     -0.0000
     96  N         41.2050   28.4730   44.9210 N.3   275  ARG275     -0.1245
     97  CA        40.8740   27.4570   43.9340 C.3   275  ARG275      0.1563
     98  C         41.8210   26.2630   44.0290 C.2   275  ARG275      0.2260
     99  O         41.3820   25.1240   43.9590 O.2   275  ARG275     -0.2867
    100  CB        40.8660   28.0700   42.5330 C.3   275  ARG275      0.0307
    101  CG        40.6950   27.1090   41.3980 C.3   275  ARG275      0.0489
    102  CD        39.3630   26.4210   41.4330 C.3   275  ARG275      0.2205
    103  NE        39.2630   25.5900   40.2600 N.pl3 275  ARG275     -0.0865
    104  CZ        38.1420   25.2750   39.6200 C.cat 275  ARG275      0.5346
    105  NH1       36.9540   25.7060   40.0440 N.pl3 275  ARG275      0.1354
    106  NH2       38.2240   24.5090   38.5280 N.pl3 275  ARG275      0.1354
    107  N         38.9940   17.1490   33.1540 N.3   313  ASP313     -0.1239
    108  CA        39.9620   18.2030   32.8810 C.3   313  ASP313      0.1674
    109  C         41.0910   18.1310   33.8960 C.2   313  ASP313      0.2266
    110  O         41.2370   17.1140   34.5580 O.2   313  ASP313     -0.2867
    111  CB        39.3340   19.5850   32.7730 C.3   313  ASP313      0.1410
    112  CG        40.0920   20.4530   31.7570 C.2   313  ASP313      0.3668
    113  OD1       39.9800   20.2400   30.5330 O.co2 313  ASP313     -0.2456
    114  OD2       40.9270   21.2370   32.2030 O.co2 313  ASP313     -0.2456
    115  N         41.4600   19.9260   36.5620 N.3   315  HIS315     -0.1241
    116  CA        41.1030   20.4530   37.8790 C.3   315  HIS315      0.1621
    117  C         41.4320   19.4800   39.0360 C.2   315  HIS315      0.2264
    118  O         41.9080   19.9260   40.0950 O.2   315  HIS315     -0.2867
    119  CB        39.6410   20.9210   37.9170 C.3   315  HIS315      0.0745
    120  CG        39.2670   21.8030   36.7690 C.ar  315  HIS315      0.0817
    121  ND1       37.9880   21.8700   36.2680 N.ar  315  HIS315     -0.2268
    122  CD2       40.0090   22.6390   36.0070 C.ar  315  HIS315      0.1154
    123  CE1       37.9560   22.7210   35.2590 C.ar  315  HIS315      0.1986
    124  NE2       39.1740   23.1890   35.0710 N.ar  315  HIS315     -0.2212
    125  N         39.1580   19.2200   27.7970 N.3   351  HIS351     -0.1226
    126  CA        37.9340   19.8850   27.3330 C.3   351  HIS351      0.1752
    127  C         38.1420   21.2050   26.6090 C.2   351  HIS351      0.2596
    128  O         37.1660   21.8700   26.2950 O.2   351  HIS351     -0.2718
    129  CB        36.9780   20.1470   28.5090 C.3   351  HIS351      0.0759
    130  CG        36.5030   18.9140   29.1980 C.ar  351  HIS351      0.0818
    131  ND1       35.2860   18.3380   28.9250 N.ar  351  HIS351     -0.2268
    132  CD2       37.0730   18.1590   30.1700 C.ar  351  HIS351      0.1154
    133  CE1       35.1280   17.2750   29.6960 C.ar  351  HIS351      0.1986
    134  NE2       36.2060   17.1390   30.4490 N.ar  351  HIS351     -0.2212
    135  N         39.3740   21.6230   26.3530 N.am  352  THR352     -0.1953
    136  CA        39.5720   22.9130   25.6830 C.3   352  THR352      0.1897
    137  C         40.9780   23.0390   25.1770 C.2   352  THR352      0.2313
    138  O         41.8900   22.4850   25.7700 O.2   352  THR352     -0.2863
    139  CB        39.2500   24.1340   26.6070 C.3   352  THR352      0.1794
    140  OG1       39.2800   25.3590   25.8470 O.3   352  THR352     -0.2208
    141  CG2       40.2130   24.2070   27.8040 C.3   352  THR352      0.0378
    142  N         42.6060   29.1090   29.2070 N.3   357  ALA357     -0.1245
    143  CA        41.8540   28.1440   30.0210 C.3   357  ALA357      0.1562
    144  C         42.7470   27.0940   30.6850 C.2   357  ALA357      0.2260
    145  O         42.3010   26.3840   31.6040 O.2   357  ALA357     -0.2867
    146  CB        40.8190   27.4580   29.1530 C.3   357  ALA357      0.0290
    147  N         45.4240   25.2970   33.0170 N.3   359  GLU359     -0.1245
    148  CA        45.9130   25.5240   34.3530 C.3   359  GLU359      0.1567
    149  C         47.4010   25.4470   34.3790 C.2   359  GLU359      0.2260
    150  O         47.9780   24.4160   34.0440 O.2   359  GLU359     -0.2867
    151  CB        45.3260   24.5160   35.3400 C.3   359  GLU359      0.0388
    152  CG        43.8350   24.6570   35.5110 C.3   359  GLU359      0.1160
    153  CD        43.3610   23.8610   36.7190 C.2   359  GLU359      0.3649
    154  OE1       43.4680   22.6240   36.6720 O.co2 359  GLU359     -0.2457
    155  OE2       42.9390   24.4830   37.7030 O.co2 359  GLU359     -0.2457
    156  N         36.9820   15.4080   23.2440 N.3   429  VAL429     -0.1245
    157  CA        35.5520   15.2920   23.4910 C.3   429  VAL429      0.1561
    158  C         34.7000   15.4060   22.2200 C.2   429  VAL429      0.2260
    159  O         33.4790   15.4220   22.2960 O.2   429  VAL429     -0.2867
    160  CB        35.1260   16.2910   24.5840 C.3   429  VAL429      0.0252
    161  CG1       35.6840   15.8410   25.9360 C.3   429  VAL429      0.0019
    162  CG2       35.5360   17.7190   24.2650 C.3   429  VAL429      0.0019
    163  N         31.3510   13.6650   23.0460 N.3   458  ASN458     -0.1240
    164  CA        30.3660   13.9520   24.0820 C.3   458  ASN458      0.1653
    165  C         28.9560   13.5210   23.7220 C.2   458  ASN458      0.2266
    166  O         28.6450   13.1580   22.5920 O.2   458  ASN458     -0.2867
    167  CB        30.3870   15.4310   24.4470 C.3   458  ASN458      0.1155
    168  CG        31.5590   15.8130   25.3660 C.2   458  ASN458      0.2627
    169  OD1       32.2590   14.9610   25.9080 O.2   458  ASN458     -0.2716
    170  ND2       31.7590   17.1090   25.5420 N.am  458  ASN458     -0.0877
    171  N         34.6180   33.6860   22.0920 N.3   547  TYR547     -0.1227
    172  CA        34.7700   32.5680   21.1580 C.3   547  TYR547      0.1736
    173  C         33.4460   31.9980   20.6670 C.2   547  TYR547      0.2595
    174  O         33.3950   31.4390   19.5650 O.2   547  TYR547     -0.2718
    175  CB        35.6950   31.4630   21.7050 C.3   547  TYR547      0.0548
    176  CG        35.0680   30.3520   22.5060 C.ar  547  TYR547     -0.0200
    177  CD1       34.4970   29.2540   21.8830 C.ar  547  TYR547     -0.0009
    178  CD2       35.1530   30.3300   23.8880 C.ar  547  TYR547     -0.0009
    179  CE1       33.9790   28.2110   22.6110 C.ar  547  TYR547      0.0417
    180  CE2       34.6300   29.2770   24.6260 C.ar  547  TYR547      0.0417
    181  CZ        34.0450   28.2170   23.9950 C.ar  547  TYR547      0.1957
    182  OH        33.5180   27.1570   24.7530 O.3   547  TYR547     -0.2866
    183  N         32.3970   32.1320   21.4740 N.am  548  LYS548     -0.1980
    184  CA        31.0740   31.6230   21.1130 C.3   548  LYS548      0.1596
    185  C         30.3130   32.5750   20.1580 C.2   548  LYS548      0.2287
    186  O         29.2960   32.1960   19.5330 O.2   548  LYS548     -0.2864
    187  CB        30.2610   31.3090   22.3840 C.3   548  LYS548      0.0298
    188  CG        30.8600   30.1450   23.2020 C.3   548  LYS548      0.0038
    189  CD        30.1420   29.9330   24.5320 C.3   548  LYS548      0.0206
    190  CE        30.7070   28.8160   25.4230 C.3   548  LYS548      0.1093
    191  NZ        30.3640   27.4400   24.9240 N.3   548  LYS548     -0.1314
    192  N         35.3450   25.6280   19.9630 N.3   646  GLU646     -0.1231
    193  CA        34.4060   24.8770   20.7990 C.3   646  GLU646      0.1699
    194  C         34.7900   23.3940   20.7700 C.2   646  GLU646      0.2592
    195  O         34.5580   22.7270   19.7780 O.2   646  GLU646     -0.2718
    196  CB        32.9460   25.0850   20.3240 C.3   646  GLU646      0.0402
    197  CG        31.8820   24.5590   21.2790 C.3   646  GLU646      0.1161
    198  CD        31.7260   25.4580   22.4990 C.2   646  GLU646      0.3649
    199  OE1       30.9840   26.4570   22.4150 O.co2 646  GLU646     -0.2457
    200  OE2       32.3800   25.1850   23.5260 O.co2 646  GLU646     -0.2457
    201  N         35.3680   22.8680   21.8610 N.am  647  ALA647     -0.1966
    202  CA        35.8940   21.5020   21.8430 C.3   647  ALA647      0.1728
    203  C         34.8440   20.5050   21.3760 C.2   647  ALA647      0.2617
    204  O         35.1330   19.6690   20.5230 O.2   647  ALA647     -0.2715
    205  CB        36.4730   21.0850   23.2000 C.3   647  ALA647      0.0334
    206  N         33.6230   20.6330   21.8930 N.am  648  SER648     -0.1936
    207  CA        32.5300   19.7930   21.4580 C.3   648  SER648      0.2055
    208  C         31.2470   20.5900   21.3370 C.2   648  SER648      0.2644
    209  O         30.6510   20.6820   20.2400 O.2   648  SER648     -0.2714
    210  CB        32.3290   18.6250   22.4280 C.3   648  SER648      0.2130
    211  OG        31.1950   17.8500   22.0830 O.3   648  SER648     -0.2179
    212  N         30.8300   21.1640   22.4610 N.am  649  GLY649     -0.1939
    213  CA        29.4850   21.6180   22.6270 C.3   649  GLY649      0.2014
    214  C         28.6030   20.4610   23.0490 C.2   649  GLY649      0.2639
    215  O         28.8310   19.3080   22.6610 O.2   649  GLY649     -0.2714
    216  N         27.5820   20.7780   23.8360 N.am  650  THR650     -0.1950
    217  CA        26.5120   19.8370   24.1590 C.3   650  THR650      0.1897
    218  C         25.1180   20.4400   24.0280 C.2   650  THR650      0.2313
    219  O         24.1500   19.7130   23.7650 O.2   650  THR650     -0.2863
    220  CB        26.6730   19.2700   25.5810 C.3   650  THR650      0.1794
    221  OG1       26.8130   20.3650   26.4810 O.3   650  THR650     -0.2208
    222  CG2       27.8830   18.3840   25.6780 C.3   650  THR650      0.0378
@<TRIPOS>BOND
     1   186   185    2
     2   174   173    2
     3   195   194    2
     4   192   193    1
     5   185   184    1
     6   209   208    2
     7   196   193    1
     8   196   197    1
     9   204   203    2
    10   173   172    1
    11   173   183   am
    12   194   193    1
    13   194   201   am
    14   184   183    1
    15   184   187    1
    16   172   175    1
    17   172   171    1
    18   197   198    1
    19   208   207    1
    20   208   212   am
    21   203   202    1
    22   203   206   am
    23   207   206    1
    24   207   210    1
    25   175   176    1
    26   202   201    1
    27   202   205    1
    28   177   176   ar
    29   177   179   ar
    30   211   210    1
    31   158   159    2
    32   158   157    1
    33   187   188    1
    34   199   198   ar
    35   212   213    1
    36   198   200   ar
    37   176   178   ar
    38   166   165    2
    39   179   181   ar
    40   213   214    1
    41   215   214    2
    42   163   164    1
    43   214   216   am
    44   188   189    1
    45   156   157    1
    46   157   160    1
    47   165   164    1
    48   219   218    2
    49   216   217    1
    50   178   180   ar
    51   181   180   ar
    52   181   182    1
    53   218   217    1
    54   164   167    1
    55   217   220    1
    56   162   160    1
    57   167   168    1
    58   189   190    1
    59   160   161    1
    60   191   190    1
    61   137   136    1
    62   137   138    2
    63   168   170   am
    64   168   169    2
    65   220   222    1
    66   220   221    1
    67   136   135    1
    68   136   139    1
    69   140   139    1
    70   128   127    2
    71   135   127   am
    72   139   141    1
    73   127   126    1
    74    72    71    2
    75   126   125    1
    76   126   129    1
    77    71    73   am
    78    71    70    1
    79    36    35    1
    80    70    67    1
    81   129   130    1
    82   131   130   ar
    83   131   133   ar
    84   146   143    1
    85   130   132   ar
    86   142   143    1
    87    64    63   ar
    88    37    35    1
    89    69    68    2
    90    19    18    1
    91    19    20    1
    92    35    34    1
    93   133   134   ar
    94    67    68    1
    95    67    66    1
    96   143   144    1
    97   132   134   ar
    98    68    74   am
    99    20    21    2
   100    20    22   am
   101    34    31    1
   102    63    65   ar
   103    63    62    1
   104    61    60    2
   105   113   112   ar
   106   144   145    2
   107    22    23    1
   108    66    60   am
   109    60    59    1
   110    31    30    1
   111    31    32    1
   112    80    82   ar
   113    80    79   ar
   114    62    59    1
   115    74    75    1
   116    23    26    1
   117    23    24    1
   118    82    84   ar
   119   112   114   ar
   120   112   111    1
   121    75    78    1
   122    75    76    1
   123    26    27    1
   124    59    58    1
   125    33    32    2
   126    78    79    1
   127    79    81   ar
   128    28    27    1
   129   111   108    1
   130    24    25    2
   131    27    29    1
   132   108   107    1
   133   108   109    1
   134    84    83   ar
   135   147   148    1
   136    58    52   am
   137    76    85   am
   138    76    77    2
   139    85    86    1
   140    13    12    2
   141    81    83   ar
   142    12    11    1
   143   109   110    2
   144    89    86    1
   145    89    90    1
   146   150   149    2
   147    52    53    2
   148    52    51    1
   149   148   149    1
   150   148   151    1
   151    86    87    1
   152    88    87    2
   153    14    11    1
   154    14    15    1
   155   124   123   ar
   156   124   122   ar
   157    90    92   ar
   158    90    91   ar
   159    11    10    1
   160    92    94   ar
   161    51    54    1
   162    51    50    1
   163   123   121   ar
   164   151   152    1
   165    54    55    1
   166   152   153    1
   167     8     7   ar
   168    15    16    2
   169    15    17   am
   170   122   120   ar
   171    56    55    2
   172    91    93   ar
   173    94    95   ar
   174   121   120   ar
   175    55    57   am
   176     9     7   ar
   177   115   116    1
   178     7     6    1
   179   154   153   ar
   180   153   155   ar
   181   120   119    1
   182    95    93   ar
   183     5     6    1
   184     5     2    1
   185     4     3    2
   186   116   119    1
   187   116   117    1
   188   106   104    1
   189     3     2    1
   190     2     1    1
   191    41    40    2
   192   117   118    2
   193   104   105    1
   194   104   103    2
   195    40    39    1
   196   103   102    1
   197    42    39    1
   198    42    43    1
   199    39    38    1
   200   101   102    1
   201   101   100    1
   202    45    43   ar
   203    45    47   ar
   204    43    44   ar
   205    47    48   ar
   206   100    97    1
   207    44    46   ar
   208    48    46   ar
   209    48    49    1
   210    97    98    1
   211    97    96    1
   212    99    98    2
