@<TRIPOS>MOLECULE
tmp/5owzA02.pdb
 238 228 0 0 0
SMALL
GASTEIGER

@<TRIPOS>ATOM
      1  N         32.9940   20.2580   39.3260 N.3    77  GLU77      -0.1245
      2  CA        31.6850   20.7350   38.9030 C.3    77  GLU77       0.1567
      3  C         30.7620   19.5940   38.5940 C.2    77  GLU77       0.2260
      4  O         31.1380   18.6530   37.8890 O.2    77  GLU77      -0.2867
      5  CB        31.7940   21.6790   37.7160 C.3    77  GLU77       0.0388
      6  CG        32.6870   22.8720   37.8970 C.3    77  GLU77       0.1160
      7  CD        32.6180   23.9080   36.7660 C.2    77  GLU77       0.3649
      8  OE1       31.6410   23.9070   36.0140 O.co2  77  GLU77      -0.2457
      9  OE2       33.5440   24.7180   36.7000 O.co2  77  GLU77      -0.2457
     10  N         29.4370   25.6110   35.9760 N.3   122  ASN122     -0.1240
     11  CA        29.3840   26.8330   35.1770 C.3   122  ASN122      0.1653
     12  C         28.6010   26.6640   33.8700 C.2   122  ASN122      0.2266
     13  O         27.9850   27.6070   33.4440 O.2   122  ASN122     -0.2867
     14  CB        30.7890   27.1940   34.8140 C.3   122  ASN122      0.1155
     15  CG        31.4710   28.0100   35.9000 C.2   122  ASN122      0.2627
     16  OD1       31.0700   29.1620   36.1220 O.2   122  ASN122     -0.2716
     17  ND2       32.4010   27.3930   36.6330 N.am  122  ASN122     -0.0877
     18  N         28.9070   23.7590   30.3120 N.3   124  GLY124     -0.1210
     19  CA        29.0520   22.4960   29.6380 C.3   124  GLY124      0.1956
     20  C         29.8020   21.3890   30.3630 C.2   124  GLY124      0.2611
     21  O         29.4080   20.2320   30.3570 O.2   124  GLY124     -0.2717
     22  N         30.9120   21.7570   30.9750 N.am  125  LEU125     -0.1979
     23  CA        31.7790   20.7840   31.6470 C.3   125  LEU125      0.1596
     24  C         31.0260   20.2110   32.8470 C.2   125  LEU125      0.2287
     25  O         31.0250   19.0130   33.0250 O.2   125  LEU125     -0.2864
     26  CB        33.0640   21.4440   32.0520 C.3   125  LEU125      0.0297
     27  CG        34.0540   20.5160   32.7800 C.3   125  LEU125      0.0022
     28  CD1       35.4690   20.8280   32.5010 C.3   125  LEU125      0.0001
     29  CD2       33.8630   20.7680   34.2250 C.3   125  LEU125      0.0001
     30  N         28.1070   18.0440   31.6660 N.3   128  LEU128     -0.1245
     31  CA        28.5630   16.7640   31.0870 C.3   128  LEU128      0.1561
     32  C         28.7750   15.7430   32.2190 C.2   128  LEU128      0.2260
     33  O         28.3710   14.5870   32.1180 O.2   128  LEU128     -0.2867
     34  CB        29.8670   16.9450   30.3530 C.3   128  LEU128      0.0270
     35  CG        30.3650   15.6820   29.6190 C.3   128  LEU128      0.0019
     36  CD1       29.6210   15.4630   28.3390 C.3   128  LEU128      0.0001
     37  CD2       31.8490   15.8390   29.3360 C.3   128  LEU128      0.0001
     38  N         33.9120   28.8720   41.8300 N.3   263  TYR263     -0.1241
     39  CA        34.5470   29.8730   40.9480 C.3   263  TYR263      0.1605
     40  C         33.7420   29.9400   39.6170 C.2   263  TYR263      0.2264
     41  O         33.5390   28.9110   38.9830 O.2   263  TYR263     -0.2867
     42  CB        36.0120   29.5300   40.6370 C.3   263  TYR263      0.0534
     43  CG        36.8920   30.1110   41.6930 C.ar  263  TYR263     -0.0201
     44  CD1       37.0940   29.4390   42.9210 C.ar  263  TYR263     -0.0009
     45  CD2       37.5240   31.3150   41.5110 C.ar  263  TYR263     -0.0009
     46  CE1       37.8720   29.9900   43.9270 C.ar  263  TYR263      0.0417
     47  CE2       38.3380   31.8600   42.5230 C.ar  263  TYR263      0.0417
     48  CZ        38.5080   31.1650   43.7210 C.ar  263  TYR263      0.1957
     49  OH        39.2890   31.7000   44.7230 O.3   263  TYR263     -0.2866
     50  N         34.0270   31.0070   36.5140 N.3   265  ASN265     -0.1225
     51  CA        34.6610   31.2080   35.2090 C.3   265  ASN265      0.1785
     52  C         34.4170   29.9770   34.3500 C.2   265  ASN265      0.2597
     53  O         34.3870   28.8270   34.8330 O.2   265  ASN265     -0.2718
     54  CB        36.1470   31.3690   35.3760 C.3   265  ASN265      0.1169
     55  CG        36.4850   32.5250   36.2540 C.2   265  ASN265      0.2627
     56  OD1       35.8740   33.5790   36.0920 O.2   265  ASN265     -0.2716
     57  ND2       37.3580   32.3100   37.2920 N.am  265  ASN265     -0.0877
     58  N         34.1920   30.2160   33.0970 N.am  266  ASP266     -0.1960
     59  CA        34.0300   29.1840   32.1630 C.3   266  ASP266      0.1840
     60  C         35.1670   29.4030   31.1650 C.2   266  ASP266      0.2622
     61  O         35.2760   30.4730   30.5820 O.2   266  ASP266     -0.2715
     62  CB        32.6500   29.3680   31.4800 C.3   266  ASP266      0.1450
     63  CG        32.3170   28.1770   30.5990 C.2   266  ASP266      0.3671
     64  OD1       32.9160   28.0470   29.5150 O.co2 266  ASP266     -0.2456
     65  OD2       31.5210   27.3440   30.9840 O.co2 266  ASP266     -0.2456
     66  N         35.9930   28.3980   30.9270 N.am  267  ASN267     -0.1958
     67  CA        37.0530   28.5290   29.9160 C.3   267  ASN267      0.1819
     68  C         38.0130   29.6540   30.2230 C.2   267  ASN267      0.2621
     69  O         38.4940   30.3120   29.3450 O.2   267  ASN267     -0.2715
     70  CB        36.4380   28.6800   28.5040 C.3   267  ASN267      0.1195
     71  CG        36.3150   27.3720   27.8240 C.2   267  ASN267      0.2630
     72  OD1       37.3240   26.8540   27.3580 O.2   267  ASN267     -0.2716
     73  ND2       35.1570   26.7330   27.9780 N.am  267  ASN267     -0.0877
     74  N         38.3670   29.8360   31.5090 N.am  268  PHE268     -0.1960
     75  CA        39.3510   30.8650   31.8650 C.3   268  PHE268      0.1771
     76  C         40.0280   30.3820   33.1630 C.2   268  PHE268      0.2620
     77  O         39.3410   29.8740   34.0590 O.2   268  PHE268     -0.2715
     78  CB        38.6490   32.2040   32.0540 C.3   268  PHE268      0.0574
     79  CG        39.6030   33.3440   32.3680 C.ar  268  PHE268     -0.0200
     80  CD1       40.4160   33.8720   31.3910 C.ar  268  PHE268     -0.0042
     81  CD2       39.7320   33.8460   33.6660 C.ar  268  PHE268     -0.0042
     82  CE1       41.3360   34.8790   31.6870 C.ar  268  PHE268     -0.0003
     83  CE2       40.6550   34.8650   33.9670 C.ar  268  PHE268     -0.0003
     84  CZ        41.4690   35.3680   32.9760 C.ar  268  PHE268     -0.0000
     85  N         41.3360   30.4880   33.2400 N.am  269  PHE269     -0.1960
     86  CA        42.0730   30.1290   34.4430 C.3   269  PHE269      0.1771
     87  C         42.4070   31.3390   35.3110 C.2   269  PHE269      0.2619
     88  O         43.0470   32.2760   34.8710 O.2   269  PHE269     -0.2715
     89  CB        43.3710   29.4250   34.0720 C.3   269  PHE269      0.0574
     90  CG        44.2880   29.1210   35.2570 C.ar  269  PHE269     -0.0200
     91  CD1       43.8850   28.2630   36.2680 C.ar  269  PHE269     -0.0042
     92  CD2       45.5500   29.6930   35.3300 C.ar  269  PHE269     -0.0042
     93  CE1       44.7620   27.9850   37.3360 C.ar  269  PHE269     -0.0003
     94  CE2       46.4110   29.3990   36.3710 C.ar  269  PHE269     -0.0003
     95  CZ        46.0120   28.5350   37.3570 C.ar  269  PHE269     -0.0000
     96  N         42.0070   31.2770   36.5750 N.am  270  GLU270     -0.1977
     97  CA        42.4240   32.3140   37.5730 C.3   270  GLU270      0.1602
     98  C         43.2280   31.5590   38.6350 C.2   270  GLU270      0.2287
     99  O         42.6840   30.6490   39.3240 O.2   270  GLU270     -0.2864
    100  CB        41.1150   32.9240   38.1530 C.3   270  GLU270      0.0415
    101  CG        41.1400   34.4020   38.5520 C.3   270  GLU270      0.1163
    102  CD        39.8470   34.8190   39.2860 C.2   270  GLU270      0.3649
    103  OE1       38.7350   34.3790   38.8900 O.co2 270  GLU270     -0.2457
    104  OE2       39.9280   35.5810   40.2720 O.co2 270  GLU270     -0.2457
    105  N         41.2880   28.6100   45.0320 N.3   275  ARG275     -0.1245
    106  CA        40.9690   27.5910   44.0470 C.3   275  ARG275      0.1563
    107  C         41.9050   26.4040   44.1330 C.2   275  ARG275      0.2260
    108  O         41.4760   25.2790   44.0360 O.2   275  ARG275     -0.2867
    109  CB        40.9960   28.1980   42.6690 C.3   275  ARG275      0.0307
    110  CG        40.8410   27.2110   41.5120 C.3   275  ARG275      0.0489
    111  CD        39.5080   26.5960   41.4690 C.3   275  ARG275      0.2205
    112  NE        39.4160   25.7180   40.3110 N.pl3 275  ARG275     -0.0865
    113  CZ        38.3300   25.2990   39.7220 C.cat 275  ARG275      0.5346
    114  NH1       37.1440   25.6000   40.1990 N.pl3 275  ARG275      0.1354
    115  NH2       38.4390   24.5510   38.6010 N.pl3 275  ARG275      0.1354
    116  N         39.0700   17.1590   33.1670 N.3   313  ASP313     -0.1239
    117  CA        40.0330   18.2230   32.9430 C.3   313  ASP313      0.1674
    118  C         41.1800   18.1520   33.9710 C.2   313  ASP313      0.2266
    119  O         41.3230   17.1570   34.6510 O.2   313  ASP313     -0.2867
    120  CB        39.4130   19.6060   32.7840 C.3   313  ASP313      0.1410
    121  CG        40.1830   20.4320   31.7210 C.2   313  ASP313      0.3668
    122  OD1       40.0430   20.2830   30.4780 O.co2 313  ASP313     -0.2456
    123  OD2       41.1330   21.0850   32.1280 O.co2 313  ASP313     -0.2456
    124  N         41.5120   19.9850   36.5470 N.3   315  HIS315     -0.1241
    125  CA        41.1260   20.5480   37.8630 C.3   315  HIS315      0.1621
    126  C         41.4410   19.5820   39.0350 C.2   315  HIS315      0.2264
    127  O         41.8810   20.0760   40.0900 O.2   315  HIS315     -0.2867
    128  CB        39.6700   21.0280   37.8680 C.3   315  HIS315      0.0745
    129  CG        39.3440   21.8670   36.6810 C.ar  315  HIS315      0.0817
    130  ND1       38.0670   21.9380   36.1550 N.ar  315  HIS315     -0.2268
    131  CD2       40.1550   22.5460   35.8320 C.ar  315  HIS315      0.1154
    132  CE1       38.1150   22.7240   35.0830 C.ar  315  HIS315      0.1986
    133  NE2       39.3720   23.0890   34.8530 N.ar  315  HIS315     -0.2212
    134  N         39.2280   19.2980   27.8650 N.3   351  HIS351     -0.1226
    135  CA        38.0330   19.9610   27.3710 C.3   351  HIS351      0.1752
    136  C         38.2650   21.3150   26.6990 C.2   351  HIS351      0.2596
    137  O         37.3160   22.0380   26.4820 O.2   351  HIS351     -0.2718
    138  CB        37.0320   20.1710   28.4920 C.3   351  HIS351      0.0759
    139  CG        36.5820   18.9280   29.1840 C.ar  351  HIS351      0.0818
    140  ND1       35.3800   18.3460   28.9490 N.ar  351  HIS351     -0.2268
    141  CD2       37.1730   18.2190   30.1870 C.ar  351  HIS351      0.1154
    142  CE1       35.2380   17.3090   29.7730 C.ar  351  HIS351      0.1986
    143  NE2       36.3360   17.2050   30.5210 N.ar  351  HIS351     -0.2212
    144  N         39.4840   21.7120   26.4380 N.am  352  THR352     -0.1953
    145  CA        39.6750   23.0240   25.8370 C.3   352  THR352      0.1897
    146  C         41.0360   23.1390   25.2680 C.2   352  THR352      0.2313
    147  O         41.9540   22.5580   25.7990 O.2   352  THR352     -0.2863
    148  CB        39.4280   24.2230   26.8050 C.3   352  THR352      0.1794
    149  OG1       39.3810   25.4630   26.0470 O.3   352  THR352     -0.2208
    150  CG2       40.4470   24.1930   27.9420 C.3   352  THR352      0.0378
    151  N         42.6510   29.2090   29.2360 N.3   357  ALA357     -0.1245
    152  CA        41.8510   28.2840   30.0460 C.3   357  ALA357      0.1562
    153  C         42.7500   27.2310   30.7040 C.2   357  ALA357      0.2260
    154  O         42.2980   26.5570   31.6860 O.2   357  ALA357     -0.2867
    155  CB        40.7620   27.6250   29.2070 C.3   357  ALA357      0.0290
    156  N         45.4460   25.3300   33.0290 N.3   359  GLU359     -0.1245
    157  CA        45.9450   25.5950   34.3650 C.3   359  GLU359      0.1567
    158  C         47.4170   25.5190   34.3930 C.2   359  GLU359      0.2260
    159  O         47.9920   24.4750   34.0900 O.2   359  GLU359     -0.2867
    160  CB        45.3910   24.5870   35.3900 C.3   359  GLU359      0.0388
    161  CG        43.8920   24.6740   35.5190 C.3   359  GLU359      0.1160
    162  CD        43.4300   23.9020   36.7400 C.2   359  GLU359      0.3649
    163  OE1       43.5670   22.6800   36.7280 O.co2 359  GLU359     -0.2457
    164  OE2       43.0510   24.5260   37.7410 O.co2 359  GLU359     -0.2457
    165  N         37.0570   15.4700   23.2800 N.3   429  VAL429     -0.1245
    166  CA        35.6220   15.4030   23.5330 C.3   429  VAL429      0.1561
    167  C         34.7660   15.5310   22.2780 C.2   429  VAL429      0.2260
    168  O         33.5600   15.4550   22.3440 O.2   429  VAL429     -0.2867
    169  CB        35.1740   16.3520   24.6450 C.3   429  VAL429      0.0252
    170  CG1       35.7800   15.9120   26.0090 C.3   429  VAL429      0.0019
    171  CG2       35.5130   17.7800   24.3240 C.3   429  VAL429      0.0019
    172  N         31.3840   13.6790   23.0650 N.3   458  ASN458     -0.1240
    173  CA        30.4180   13.9690   24.1020 C.3   458  ASN458      0.1653
    174  C         28.9890   13.4970   23.7100 C.2   458  ASN458      0.2266
    175  O         28.6840   13.1720   22.5850 O.2   458  ASN458     -0.2867
    176  CB        30.4310   15.4370   24.4350 C.3   458  ASN458      0.1155
    177  CG        31.5870   15.8480   25.4090 C.2   458  ASN458      0.2627
    178  OD1       32.2750   14.9710   25.9690 O.2   458  ASN458     -0.2716
    179  ND2       31.7830   17.1670   25.5690 N.am  458  ASN458     -0.0877
    180  N         34.6700   33.7180   22.1930 N.3   547  TYR547     -0.1227
    181  CA        34.8260   32.6400   21.2120 C.3   547  TYR547      0.1736
    182  C         33.4960   32.0740   20.7250 C.2   547  TYR547      0.2595
    183  O         33.4320   31.5210   19.6010 O.2   547  TYR547     -0.2718
    184  CB        35.7550   31.4870   21.7100 C.3   547  TYR547      0.0548
    185  CG        35.1250   30.4190   22.4960 C.ar  547  TYR547     -0.0200
    186  CD1       34.5440   29.3460   21.9040 C.ar  547  TYR547     -0.0009
    187  CD2       35.2250   30.4010   23.8880 C.ar  547  TYR547     -0.0009
    188  CE1       34.0500   28.3090   22.6430 C.ar  547  TYR547      0.0417
    189  CE2       34.6720   29.3920   24.6430 C.ar  547  TYR547      0.0417
    190  CZ        34.0790   28.3330   24.0570 C.ar  547  TYR547      0.1957
    191  OH        33.5190   27.3050   24.8250 O.3   547  TYR547     -0.2866
    192  N         32.4540   32.1930   21.5460 N.am  548  LYS548     -0.1980
    193  CA        31.1220   31.7130   21.1600 C.3   548  LYS548      0.1596
    194  C         30.3800   32.6610   20.1840 C.2   548  LYS548      0.2287
    195  O         29.3670   32.2520   19.5590 O.2   548  LYS548     -0.2864
    196  CB        30.2850   31.4390   22.3800 C.3   548  LYS548      0.0298
    197  CG        30.8540   30.2270   23.2030 C.3   548  LYS548      0.0038
    198  CD        30.0920   29.9890   24.4880 C.3   548  LYS548      0.0206
    199  CE        30.6720   28.9500   25.4700 C.3   548  LYS548      0.1093
    200  NZ        30.3040   27.5570   24.9800 N.3   548  LYS548     -0.1314
    201  N         37.5050   26.3260   18.2100 N.3   645  THR645     -0.1203
    202  CA        37.4490   26.8690   19.5780 C.3   645  THR645      0.1994
    203  C         36.5320   26.1430   20.4990 C.2   645  THR645      0.2618
    204  O         36.7830   26.1470   21.6770 O.2   645  THR645     -0.2717
    205  CB        37.1180   28.3760   19.5770 C.3   645  THR645      0.1784
    206  OG1       35.8180   28.5990   18.9980 O.3   645  THR645     -0.2211
    207  CG2       38.1690   29.0560   18.7610 C.3   645  THR645      0.0376
    208  N         35.3840   25.6420   20.0120 N.am  646  GLU646     -0.1965
    209  CA        34.4560   24.9320   20.8440 C.3   646  GLU646      0.1733
    210  C         34.8240   23.4950   20.8730 C.2   646  GLU646      0.2616
    211  O         34.6240   22.8170   19.8960 O.2   646  GLU646     -0.2715
    212  CB        33.0080   25.1310   20.3740 C.3   646  GLU646      0.0429
    213  CG        31.9130   24.5660   21.3350 C.3   646  GLU646      0.1163
    214  CD        31.7330   25.4760   22.5660 C.2   646  GLU646      0.3649
    215  OE1       32.4690   25.3110   23.6020 O.co2 646  GLU646     -0.2457
    216  OE2       31.0380   26.5040   22.4700 O.co2 646  GLU646     -0.2457
    217  N         35.3460   22.9700   21.9970 N.am  647  ALA647     -0.1963
    218  CA        35.9310   21.6200   21.9370 C.3   647  ALA647      0.1728
    219  C         34.8890   20.5980   21.4690 C.2   647  ALA647      0.2617
    220  O         35.1900   19.7760   20.6260 O.2   647  ALA647     -0.2715
    221  CB        36.5610   21.1750   23.2530 C.3   647  ALA647      0.0334
    222  N         33.6620   20.6990   21.9660 N.am  648  SER648     -0.1936
    223  CA        32.5680   19.8440   21.5040 C.3   648  SER648      0.2055
    224  C         31.3120   20.6680   21.3900 C.2   648  SER648      0.2644
    225  O         30.7340   20.7420   20.3180 O.2   648  SER648     -0.2714
    226  CB        32.2950   18.6940   22.4970 C.3   648  SER648      0.2130
    227  OG        31.1450   17.9380   22.1300 O.3   648  SER648     -0.2179
    228  N         30.8870   21.2700   22.5040 N.am  649  GLY649     -0.1939
    229  CA        29.5180   21.6630   22.6340 C.3   649  GLY649      0.2014
    230  C         28.6540   20.5060   23.0740 C.2   649  GLY649      0.2639
    231  O         28.8870   19.3290   22.7080 O.2   649  GLY649     -0.2714
    232  N         27.6490   20.8320   23.8750 N.am  650  THR650     -0.1950
    233  CA        26.5730   19.8940   24.2100 C.3   650  THR650      0.1897
    234  C         25.1770   20.4890   24.0890 C.2   650  THR650      0.2313
    235  O         24.2060   19.7560   23.7980 O.2   650  THR650     -0.2863
    236  CB        26.7310   19.2820   25.6260 C.3   650  THR650      0.1794
    237  OG1       26.8060   20.3750   26.5400 O.3   650  THR650     -0.2208
    238  CG2       27.9720   18.4720   25.7200 C.3   650  THR650      0.0378
@<TRIPOS>BOND
     1   201   202    1
     2   207   205    1
     3   206   205    1
     4   195   194    2
     5   205   202    1
     6   202   203    1
     7   183   182    2
     8   211   210    2
     9   208   203   am
    10   208   209    1
    11   194   193    1
    12   225   224    2
    13   212   209    1
    14   212   213    1
    15   203   204    2
    16   220   219    2
    17   182   181    1
    18   182   192   am
    19   209   210    1
    20   210   217   am
    21   193   192    1
    22   193   196    1
    23   181   184    1
    24   181   180    1
    25   213   214    1
    26   224   223    1
    27   224   228   am
    28   219   218    1
    29   219   222   am
    30   223   222    1
    31   223   226    1
    32   184   185    1
    33   186   185   ar
    34   186   188   ar
    35   218   217    1
    36   218   221    1
    37   227   226    1
    38   167   168    2
    39   167   166    1
    40   196   197    1
    41   216   214   ar
    42   185   187   ar
    43   228   229    1
    44   214   215   ar
    45   175   174    2
    46   229   230    1
    47   188   190   ar
    48   231   230    2
    49   172   173    1
    50   230   232   am
    51   197   198    1
    52   165   166    1
    53   166   169    1
    54   174   173    1
    55   235   234    2
    56   232   233    1
    57   187   189   ar
    58   190   189   ar
    59   190   191    1
    60   234   233    1
    61   173   176    1
    62   233   236    1
    63   171   169    1
    64   176   177    1
    65   198   199    1
    66   169   170    1
    67   200   199    1
    68   146   147    2
    69   146   145    1
    70   177   179   am
    71   177   178    2
    72   236   238    1
    73   236   237    1
    74   145   144    1
    75   145   148    1
    76   149   148    1
    77   144   136   am
    78   137   136    2
    79   136   135    1
    80   148   150    1
    81    72    71    2
    82   135   134    1
    83   135   138    1
    84    71    73   am
    85    71    70    1
    86    36    35    1
    87   138   139    1
    88    70    67    1
    89   140   139   ar
    90   140   142   ar
    91   139   141   ar
    92   155   152    1
    93   151   152    1
    94    37    35    1
    95    69    68    2
    96    64    63   ar
    97    35    34    1
    98    19    18    1
    99    19    20    1
   100   142   143   ar
   101    67    68    1
   102    67    66    1
   103   152   153    1
   104   141   143   ar
   105    68    74   am
   106    34    31    1
   107    21    20    2
   108    20    22   am
   109   122   121   ar
   110    61    60    2
   111    63    65   ar
   112    63    62    1
   113   153   154    2
   114    66    60   am
   115    22    23    1
   116    31    30    1
   117    31    32    1
   118    60    59    1
   119    80    82   ar
   120    80    79   ar
   121    62    59    1
   122    74    75    1
   123    23    26    1
   124    23    24    1
   125    82    84   ar
   126   121   123   ar
   127   121   120    1
   128    75    78    1
   129    75    76    1
   130    26    27    1
   131    78    79    1
   132    33    32    2
   133    59    58    1
   134    79    81   ar
   135    28    27    1
   136    27    29    1
   137   120   117    1
   138    24    25    2
   139   117   116    1
   140   117   118    1
   141    84    83   ar
   142   156   157    1
   143    58    52   am
   144    76    85   am
   145    76    77    2
   146    85    86    1
   147    13    12    2
   148    81    83   ar
   149    12    11    1
   150   118   119    2
   151    89    86    1
   152    89    90    1
   153   159   158    2
   154    52    53    2
   155    52    51    1
   156   157   158    1
   157   157   160    1
   158    86    87    1
   159    14    11    1
   160    14    15    1
   161   133   132   ar
   162   133   131   ar
   163    88    87    2
   164   132   130   ar
   165    11    10    1
   166    51    54    1
   167    51    50    1
   168    90    92   ar
   169    90    91   ar
   170    87    96   am
   171    92    94   ar
   172    54    55    1
   173   160   161    1
   174   161   162    1
   175   131   129   ar
   176    15    16    2
   177    15    17   am
   178     8     7   ar
   179    56    55    2
   180   130   129   ar
   181    55    57   am
   182    91    93   ar
   183    94    95   ar
   184   124   125    1
   185    96    97    1
   186   129   128    1
   187     9     7   ar
   188   163   162   ar
   189   162   164   ar
   190     7     6    1
   191    93    95   ar
   192    97   100    1
   193    97    98    1
   194     5     6    1
   195     5     2    1
   196   125   128    1
   197   125   126    1
   198     4     3    2
   199   100   101    1
   200   101   102    1
   201     3     2    1
   202   115   113    1
   203    98    99    2
   204   103   102   ar
   205     2     1    1
   206    41    40    2
   207   126   127    2
   208   102   104   ar
   209    40    39    1
   210   113   114    1
   211   113   112    2
   212   112   111    1
   213    42    39    1
   214    42    43    1
   215    39    38    1
   216   111   110    1
   217    45    43   ar
   218    45    47   ar
   219   110   109    1
   220    43    44   ar
   221    47    48   ar
   222   109   106    1
   223    44    46   ar
   224    48    46   ar
   225    48    49    1
   226   108   107    2
   227   106   107    1
   228   106   105    1
