@<TRIPOS>MOLECULE
tmp/5ox0A00.pdb
 231 221 0 0 0
SMALL
GASTEIGER

@<TRIPOS>ATOM
      1  N         32.9790   20.2460   39.3230 N.3    77  GLU77      -0.1245
      2  CA        31.6470   20.7160   38.9530 C.3    77  GLU77       0.1567
      3  C         30.7140   19.5620   38.6330 C.2    77  GLU77       0.2260
      4  O         31.1050   18.6460   37.8960 O.2    77  GLU77      -0.2867
      5  CB        31.7270   21.6600   37.7440 C.3    77  GLU77       0.0388
      6  CG        32.6390   22.8490   37.9080 C.3    77  GLU77       0.1160
      7  CD        32.5480   23.8630   36.7740 C.2    77  GLU77       0.3649
      8  OE1       31.5680   23.8670   36.0090 O.co2  77  GLU77      -0.2457
      9  OE2       33.4700   24.6780   36.6720 O.co2  77  GLU77      -0.2457
     10  N         29.3990   25.6360   36.0260 N.3   122  ASN122     -0.1240
     11  CA        29.3790   26.8550   35.2310 C.3   122  ASN122      0.1653
     12  C         28.5710   26.6980   33.9420 C.2   122  ASN122      0.2266
     13  O         27.9800   27.6390   33.4790 O.2   122  ASN122     -0.2867
     14  CB        30.7880   27.2090   34.8390 C.3   122  ASN122      0.1155
     15  CG        31.4800   28.0290   35.8860 C.2   122  ASN122      0.2627
     16  OD1       31.1330   29.1940   36.0760 O.2   122  ASN122     -0.2716
     17  ND2       32.4250   27.4370   36.5840 N.am  122  ASN122     -0.0877
     18  N         28.8270   23.7880   30.4030 N.3   124  GLY124     -0.1210
     19  CA        28.9650   22.5340   29.6960 C.3   124  GLY124      0.1956
     20  C         29.7560   21.4300   30.3990 C.2   124  GLY124      0.2611
     21  O         29.3600   20.2800   30.3920 O.2   124  GLY124     -0.2717
     22  N         30.8840   21.7880   30.9940 N.am  125  LEU125     -0.1979
     23  CA        31.7130   20.8140   31.6980 C.3   125  LEU125      0.1596
     24  C         30.9730   20.2190   32.8960 C.2   125  LEU125      0.2287
     25  O         30.9550   19.0100   33.0760 O.2   125  LEU125     -0.2864
     26  CB        33.0410   21.4300   32.0800 C.3   125  LEU125      0.0297
     27  CG        34.0060   20.5460   32.8670 C.3   125  LEU125      0.0022
     28  CD1       35.4520   20.7910   32.5180 C.3   125  LEU125      0.0001
     29  CD2       33.8390   20.8590   34.3250 C.3   125  LEU125      0.0001
     30  N         28.0270   18.0680   31.6830 N.3   128  LEU128     -0.1245
     31  CA        28.5130   16.8030   31.1440 C.3   128  LEU128      0.1561
     32  C         28.7110   15.7770   32.2440 C.2   128  LEU128      0.2260
     33  O         28.3200   14.6190   32.1100 O.2   128  LEU128     -0.2867
     34  CB        29.8300   16.9990   30.3830 C.3   128  LEU128      0.0270
     35  CG        30.3090   15.7340   29.6320 C.3   128  LEU128      0.0019
     36  CD1       29.5330   15.5240   28.3530 C.3   128  LEU128      0.0001
     37  CD2       31.7940   15.8100   29.3390 C.3   128  LEU128      0.0001
     38  N         33.9090   28.8620   41.8180 N.3   262  TYR262     -0.1241
     39  CA        34.5360   29.8450   40.9220 C.3   262  TYR262      0.1605
     40  C         33.7700   29.9100   39.5940 C.2   262  TYR262      0.2264
     41  O         33.6070   28.8770   38.9390 O.2   262  TYR262     -0.2867
     42  CB        36.0010   29.5260   40.6580 C.3   262  TYR262      0.0534
     43  CG        36.8740   30.0950   41.7290 C.ar  262  TYR262     -0.0201
     44  CD1       37.0290   29.4400   42.9610 C.ar  262  TYR262     -0.0009
     45  CD2       37.5460   31.2960   41.5310 C.ar  262  TYR262     -0.0009
     46  CE1       37.8470   29.9700   43.9570 C.ar  262  TYR262      0.0417
     47  CE2       38.3570   31.8330   42.5200 C.ar  262  TYR262      0.0417
     48  CZ        38.4970   31.1630   43.7290 C.ar  262  TYR262      0.1957
     49  OH        39.2980   31.7110   44.6800 O.3   262  TYR262     -0.2866
     50  N         34.1290   30.8840   36.4940 N.3   264  ASN264     -0.1225
     51  CA        34.9390   31.0900   35.2770 C.3   264  ASN264      0.1785
     52  C         34.8880   29.9370   34.2930 C.2   264  ASN264      0.2597
     53  O         35.6960   29.0170   34.3480 O.2   264  ASN264     -0.2718
     54  CB        36.3990   31.2020   35.6410 C.3   264  ASN264      0.1169
     55  CG        36.6740   32.3640   36.5200 C.2   264  ASN264      0.2627
     56  OD1       36.0810   33.4280   36.3310 O.2   264  ASN264     -0.2716
     57  ND2       37.5530   32.1760   37.5040 N.am  264  ASN264     -0.0877
     58  N         34.0010   30.0460   33.3450 N.am  265  ASP265     -0.1960
     59  CA        33.9010   29.0890   32.2670 C.3   265  ASP265      0.1840
     60  C         35.0360   29.3130   31.2550 C.2   265  ASP265      0.2622
     61  O         35.2020   30.4120   30.7280 O.2   265  ASP265     -0.2715
     62  CB        32.5460   29.3090   31.5980 C.3   265  ASP265      0.1450
     63  CG        32.2070   28.2300   30.6430 C.2   265  ASP265      0.3671
     64  OD1       32.7240   28.2620   29.5160 O.co2 265  ASP265     -0.2456
     65  OD2       31.4300   27.3440   31.0170 O.co2 265  ASP265     -0.2456
     66  N         35.8030   28.2780   30.9510 N.am  266  ASN266     -0.1958
     67  CA        36.9000   28.4120   29.9820 C.3   266  ASN266      0.1819
     68  C         37.8570   29.5510   30.2900 C.2   266  ASN266      0.2621
     69  O         38.2630   30.2890   29.4080 O.2   266  ASN266     -0.2715
     70  CB        36.3480   28.5910   28.5470 C.3   266  ASN266      0.1195
     71  CG        36.2630   27.3010   27.8130 C.2   266  ASN266      0.2630
     72  OD1       37.2500   26.8320   27.2610 O.2   266  ASN266     -0.2716
     73  ND2       35.0950   26.6890   27.8510 N.am  266  ASN266     -0.0877
     74  N         38.2440   29.6850   31.5500 N.am  267  PHE267     -0.1960
     75  CA        39.2450   30.6790   31.9190 C.3   267  PHE267      0.1771
     76  C         39.9440   30.1900   33.2060 C.2   267  PHE267      0.2620
     77  O         39.2940   29.5610   34.0590 O.2   267  PHE267     -0.2715
     78  CB        38.5630   32.0320   32.1180 C.3   267  PHE267      0.0574
     79  CG        39.5120   33.1390   32.4530 C.ar  267  PHE267     -0.0200
     80  CD1       40.3170   33.6930   31.4680 C.ar  267  PHE267     -0.0042
     81  CD2       39.6270   33.6180   33.7610 C.ar  267  PHE267     -0.0042
     82  CE1       41.2280   34.7060   31.7780 C.ar  267  PHE267     -0.0003
     83  CE2       40.5370   34.6320   34.0760 C.ar  267  PHE267     -0.0003
     84  CZ        41.3400   35.1720   33.0840 C.ar  267  PHE267     -0.0000
     85  N         41.2460   30.4470   33.3160 N.am  268  PHE268     -0.1960
     86  CA        42.0490   30.0600   34.4840 C.3   268  PHE268      0.1771
     87  C         42.3830   31.2840   35.3270 C.2   268  PHE268      0.2619
     88  O         43.0250   32.2160   34.8460 O.2   268  PHE268     -0.2715
     89  CB        43.3740   29.4170   34.0470 C.3   268  PHE268      0.0574
     90  CG        44.3250   29.1210   35.1940 C.ar  268  PHE268     -0.0200
     91  CD1       43.9410   28.2770   36.2360 C.ar  268  PHE268     -0.0042
     92  CD2       45.5780   29.7150   35.2520 C.ar  268  PHE268     -0.0042
     93  CE1       44.8100   27.9990   37.2980 C.ar  268  PHE268     -0.0003
     94  CE2       46.4470   29.4360   36.3050 C.ar  268  PHE268     -0.0003
     95  CZ        46.0550   28.5740   37.3230 C.ar  268  PHE268     -0.0000
     96  N         41.9980   31.2380   36.6000 N.am  269  GLU269     -0.1977
     97  CA        42.3620   32.2830   37.5810 C.3   269  GLU269      0.1602
     98  C         43.1860   31.5540   38.6440 C.2   269  GLU269      0.2287
     99  O         42.6680   30.6620   39.3440 O.2   269  GLU269     -0.2864
    100  CB        41.0580   32.8690   38.1510 C.3   269  GLU269      0.0415
    101  CG        41.1310   34.2870   38.6910 C.3   269  GLU269      0.1163
    102  CD        39.8360   34.7010   39.3890 C.2   269  GLU269      0.3649
    103  OE1       38.7760   34.0980   39.1030 O.co2 269  GLU269     -0.2457
    104  OE2       39.8790   35.6180   40.2390 O.co2 269  GLU269     -0.2457
    105  N         41.2660   28.6050   45.0100 N.3   274  ARG274     -0.1245
    106  CA        40.9810   27.5970   44.0080 C.3   274  ARG274      0.1563
    107  C         41.9060   26.3950   44.1000 C.2   274  ARG274      0.2260
    108  O         41.4540   25.2610   43.9820 O.2   274  ARG274     -0.2867
    109  CB        41.0160   28.2170   42.6200 C.3   274  ARG274      0.0307
    110  CG        40.8680   27.2520   41.4730 C.3   274  ARG274      0.0489
    111  CD        39.5220   26.5990   41.4050 C.3   274  ARG274      0.2205
    112  NE        39.4510   25.8220   40.1730 N.pl3 274  ARG274     -0.0865
    113  CZ        38.3510   25.3940   39.5790 C.cat 274  ARG274      0.5346
    114  NH1       37.1520   25.6360   40.1040 N.pl3 274  ARG274      0.1354
    115  NH2       38.4600   24.7340   38.4230 N.pl3 274  ARG274      0.1354
    116  N         39.0600   17.2020   33.1710 N.3   311  ASP311     -0.1239
    117  CA        40.0430   18.2410   32.9340 C.3   311  ASP311      0.1674
    118  C         41.1670   18.1590   33.9560 C.2   311  ASP311      0.2266
    119  O         41.2840   17.1500   34.6450 O.2   311  ASP311     -0.2867
    120  CB        39.4330   19.6360   32.8220 C.3   311  ASP311      0.1410
    121  CG        40.1780   20.4630   31.7620 C.2   311  ASP311      0.3668
    122  OD1       39.9540   20.3050   30.5350 O.co2 311  ASP311     -0.2456
    123  OD2       41.1060   21.1640   32.1710 O.co2 311  ASP311     -0.2456
    124  N         41.5150   19.9530   36.5920 N.3   313  HIS313     -0.1241
    125  CA        41.1390   20.5360   37.8860 C.3   313  HIS313      0.1621
    126  C         41.4500   19.5930   39.0670 C.2   313  HIS313      0.2264
    127  O         41.9240   20.0680   40.1140 O.2   313  HIS313     -0.2867
    128  CB        39.6860   21.0370   37.8860 C.3   313  HIS313      0.0745
    129  CG        39.3450   21.8570   36.6820 C.ar  313  HIS313      0.0817
    130  ND1       38.0750   21.9160   36.1540 N.ar  313  HIS313     -0.2268
    131  CD2       40.1280   22.6070   35.8650 C.ar  313  HIS313      0.1154
    132  CE1       38.0860   22.6900   35.0800 C.ar  313  HIS313      0.1986
    133  NE2       39.3230   23.1140   34.8800 N.ar  313  HIS313     -0.2212
    134  N         39.2220   19.3280   27.8850 N.3   349  HIS349     -0.1226
    135  CA        38.0090   19.9920   27.4330 C.3   349  HIS349      0.1752
    136  C         38.2130   21.3630   26.7850 C.2   349  HIS349      0.2596
    137  O         37.2460   22.0740   26.5940 O.2   349  HIS349     -0.2718
    138  CB        37.0520   20.1880   28.6140 C.3   349  HIS349      0.0759
    139  CG        36.5900   18.9300   29.2740 C.ar  349  HIS349      0.0818
    140  ND1       35.3740   18.3630   28.9960 N.ar  349  HIS349     -0.2268
    141  CD2       37.1330   18.1910   30.2720 C.ar  349  HIS349      0.1154
    142  CE1       35.1990   17.3040   29.7610 C.ar  349  HIS349      0.1986
    143  NE2       36.2610   17.1720   30.5360 N.ar  349  HIS349     -0.2212
    144  N         39.4350   21.7690   26.4860 N.am  350  THR350     -0.1953
    145  CA        39.6390   23.0810   25.8880 C.3   350  THR350      0.1897
    146  C         41.0420   23.1860   25.3530 C.2   350  THR350      0.2313
    147  O         41.9580   22.5910   25.9170 O.2   350  THR350     -0.2863
    148  CB        39.3960   24.2410   26.8870 C.3   350  THR350      0.1794
    149  OG1       39.4260   25.5060   26.1970 O.3   350  THR350     -0.2208
    150  CG2       40.4130   24.1940   28.0580 C.3   350  THR350      0.0378
    151  N         42.6340   29.2220   29.3270 N.3   355  ALA355     -0.1245
    152  CA        41.8690   28.2780   30.1350 C.3   355  ALA355      0.1562
    153  C         42.7410   27.1760   30.7710 C.2   355  ALA355      0.2260
    154  O         42.2970   26.5000   31.7220 O.2   355  ALA355     -0.2867
    155  CB        40.7710   27.6580   29.2900 C.3   355  ALA355      0.0290
    156  N         45.4790   25.3190   33.0390 N.3   357  GLU357     -0.1245
    157  CA        45.9540   25.5670   34.3820 C.3   357  GLU357      0.1567
    158  C         47.4550   25.4950   34.4040 C.2   357  GLU357      0.2260
    159  O         48.0370   24.4750   34.0730 O.2   357  GLU357     -0.2867
    160  CB        45.3970   24.5790   35.3840 C.3   357  GLU357      0.0388
    161  CG        43.8890   24.6670   35.5090 C.3   357  GLU357      0.1160
    162  CD        43.4290   23.8990   36.7290 C.2   357  GLU357      0.3649
    163  OE1       43.5860   22.6520   36.7280 O.co2 357  GLU357     -0.2457
    164  OE2       42.9950   24.5500   37.6950 O.co2 357  GLU357     -0.2457
    165  N         37.0420   15.5080   23.3340 N.3   427  VAL427     -0.1245
    166  CA        35.6020   15.4020   23.5690 C.3   427  VAL427      0.1561
    167  C         34.7600   15.5350   22.3070 C.2   427  VAL427      0.2260
    168  O         33.5440   15.5060   22.3640 O.2   427  VAL427     -0.2867
    169  CB        35.1590   16.3900   24.6730 C.3   427  VAL427      0.0252
    170  CG1       35.7290   15.9600   26.0150 C.3   427  VAL427      0.0019
    171  CG2       35.5490   17.8240   24.3580 C.3   427  VAL427      0.0019
    172  N         31.3850   13.7200   23.1050 N.3   456  ASN456     -0.1240
    173  CA        30.4200   13.9810   24.1440 C.3   456  ASN456      0.1653
    174  C         28.9950   13.5590   23.7680 C.2   456  ASN456      0.2266
    175  O         28.6820   13.2350   22.6310 O.2   456  ASN456     -0.2867
    176  CB        30.4330   15.4610   24.5110 C.3   456  ASN456      0.1155
    177  CG        31.5930   15.8410   25.4360 C.2   456  ASN456      0.2627
    178  OD1       32.2620   14.9900   26.0190 O.2   456  ASN456     -0.2716
    179  ND2       31.8120   17.1420   25.5760 N.am  456  ASN456     -0.0877
    180  N         34.6780   33.7640   22.1790 N.3   545  TYR545     -0.1227
    181  CA        34.8420   32.6610   21.2300 C.3   545  TYR545      0.1736
    182  C         33.5130   32.1050   20.7280 C.2   545  TYR545      0.2595
    183  O         33.4690   31.5680   19.6200 O.2   545  TYR545     -0.2718
    184  CB        35.7630   31.5480   21.7520 C.3   545  TYR545      0.0548
    185  CG        35.1450   30.4560   22.5650 C.ar  545  TYR545     -0.0200
    186  CD1       34.5780   29.3530   21.9670 C.ar  545  TYR545     -0.0009
    187  CD2       35.2150   30.4740   23.9470 C.ar  545  TYR545     -0.0009
    188  CE1       34.0410   28.3280   22.7210 C.ar  545  TYR545      0.0417
    189  CE2       34.6930   29.4540   24.7150 C.ar  545  TYR545      0.0417
    190  CZ        34.1090   28.3760   24.1220 C.ar  545  TYR545      0.1957
    191  OH        33.5690   27.3530   24.9170 O.3   545  TYR545     -0.2866
    192  N         32.4550   32.2570   21.5220 N.am  546  LYS546     -0.1980
    193  CA        31.1230   31.7570   21.1570 C.3   546  LYS546      0.1596
    194  C         30.3770   32.7180   20.2000 C.2   546  LYS546      0.2287
    195  O         29.3640   32.3430   19.5860 O.2   546  LYS546     -0.2864
    196  CB        30.3000   31.4580   22.4120 C.3   546  LYS546      0.0298
    197  CG        30.8750   30.2870   23.2460 C.3   546  LYS546      0.0038
    198  CD        30.1570   30.0870   24.5660 C.3   546  LYS546      0.0206
    199  CE        30.6670   28.9630   25.4750 C.3   546  LYS546      0.1093
    200  NZ        30.2740   27.5940   24.9870 N.3   546  LYS546     -0.1314
    201  N         35.4100   25.6900   20.0480 N.3   644  GLU644     -0.1231
    202  CA        34.4600   25.0040   20.9090 C.3   644  GLU644      0.1699
    203  C         34.8520   23.5360   20.9060 C.2   644  GLU644      0.2592
    204  O         34.6550   22.8750   19.9050 O.2   644  GLU644     -0.2718
    205  CB        33.0200   25.2070   20.4260 C.3   644  GLU644      0.0402
    206  CG        31.9400   24.6960   21.3780 C.3   644  GLU644      0.1161
    207  CD        31.7770   25.5930   22.6040 C.2   644  GLU644      0.3649
    208  OE1       31.0520   26.6050   22.5170 O.co2 644  GLU644     -0.2457
    209  OE2       32.4470   25.3340   23.6420 O.co2 644  GLU644     -0.2457
    210  N         35.3910   23.0160   22.0220 N.am  645  ALA645     -0.1966
    211  CA        35.9460   21.6310   22.0090 C.3   645  ALA645      0.1728
    212  C         34.9170   20.6190   21.5480 C.2   645  ALA645      0.2617
    213  O         35.2280   19.7650   20.7320 O.2   645  ALA645     -0.2715
    214  CB        36.5310   21.2350   23.3690 C.3   645  ALA645      0.0334
    215  N         33.6780   20.7440   22.0450 N.am  646  SER646     -0.1936
    216  CA        32.5860   19.9120   21.6050 C.3   646  SER646      0.2055
    217  C         31.3070   20.7150   21.4620 C.2   646  SER646      0.2644
    218  O         30.7270   20.8020   20.3630 O.2   646  SER646     -0.2714
    219  CB        32.3490   18.7400   22.5820 C.3   646  SER646      0.2130
    220  OG        31.2220   17.9790   22.1780 O.3   646  SER646     -0.2179
    221  N         30.8690   21.3010   22.5690 N.am  647  GLY647     -0.1939
    222  CA        29.5170   21.7530   22.7040 C.3   647  GLY647      0.2014
    223  C         28.6550   20.5840   23.1260 C.2   647  GLY647      0.2639
    224  O         28.9190   19.4330   22.7630 O.2   647  GLY647     -0.2714
    225  N         27.6340   20.8800   23.9110 N.am  648  THR648     -0.1950
    226  CA        26.5690   19.9280   24.2250 C.3   648  THR648      0.1897
    227  C         25.1770   20.5370   24.1060 C.2   648  THR648      0.2313
    228  O         24.2100   19.8120   23.8460 O.2   648  THR648     -0.2863
    229  CB        26.7220   19.3420   25.6450 C.3   648  THR648      0.1794
    230  OG1       26.8080   20.4250   26.5640 O.3   648  THR648     -0.2208
    231  CG2       27.9690   18.5130   25.7440 C.3   648  THR648      0.0378
@<TRIPOS>BOND
     1   195   194    2
     2   183   182    2
     3   204   203    2
     4   201   202    1
     5   194   193    1
     6   218   217    2
     7   205   202    1
     8   205   206    1
     9   182   181    1
    10   182   192   am
    11   213   212    2
    12   203   202    1
    13   203   210   am
    14   193   192    1
    15   193   196    1
    16   181   184    1
    17   181   180    1
    18   206   207    1
    19   217   216    1
    20   217   221   am
    21   212   211    1
    22   212   215   am
    23   216   215    1
    24   216   219    1
    25   184   185    1
    26   186   185   ar
    27   186   188   ar
    28   211   210    1
    29   211   214    1
    30   220   219    1
    31   167   168    2
    32   167   166    1
    33   196   197    1
    34   208   207   ar
    35   185   187   ar
    36   221   222    1
    37   207   209   ar
    38   175   174    2
    39   222   223    1
    40   188   190   ar
    41   224   223    2
    42   172   173    1
    43   223   225   am
    44   197   198    1
    45   165   166    1
    46   166   169    1
    47   174   173    1
    48   228   227    2
    49   225   226    1
    50   187   189   ar
    51   227   226    1
    52   190   189   ar
    53   190   191    1
    54   173   176    1
    55   226   229    1
    56   171   169    1
    57   176   177    1
    58   198   199    1
    59   169   170    1
    60   200   199    1
    61   146   145    1
    62   146   147    2
    63   177   179   am
    64   177   178    2
    65   229   231    1
    66   229   230    1
    67   145   144    1
    68   145   148    1
    69   149   148    1
    70   144   136   am
    71   137   136    2
    72   136   135    1
    73   148   150    1
    74    72    71    2
    75   135   134    1
    76   135   138    1
    77    71    73   am
    78    71    70    1
    79    36    35    1
    80    70    67    1
    81   138   139    1
    82   140   139   ar
    83   140   142   ar
    84   139   141   ar
    85   155   152    1
    86   151   152    1
    87    37    35    1
    88    69    68    2
    89    64    63   ar
    90    35    34    1
    91    19    20    1
    92    19    18    1
    93   142   143   ar
    94    67    68    1
    95    67    66    1
    96   152   153    1
    97   141   143   ar
    98    68    74   am
    99    34    31    1
   100    21    20    2
   101    20    22   am
   102   122   121   ar
   103    63    65   ar
   104    63    62    1
   105    61    60    2
   106   153   154    2
   107    66    60   am
   108    22    23    1
   109    31    30    1
   110    31    32    1
   111    60    59    1
   112    80    82   ar
   113    80    79   ar
   114    74    75    1
   115    62    59    1
   116    23    26    1
   117    23    24    1
   118   121   123   ar
   119   121   120    1
   120    82    84   ar
   121    75    78    1
   122    75    76    1
   123    26    27    1
   124    33    32    2
   125    78    79    1
   126    59    58    1
   127    79    81   ar
   128    28    27    1
   129   120   117    1
   130    27    29    1
   131    24    25    2
   132   117   116    1
   133   117   118    1
   134   156   157    1
   135    84    83   ar
   136    76    85   am
   137    76    77    2
   138    85    86    1
   139    58    52   am
   140    13    12    2
   141    81    83   ar
   142    12    11    1
   143   118   119    2
   144    89    86    1
   145    89    90    1
   146   159   158    2
   147    52    53    2
   148    52    51    1
   149   157   158    1
   150   157   160    1
   151    86    87    1
   152    14    11    1
   153    14    15    1
   154    88    87    2
   155   133   132   ar
   156   133   131   ar
   157   132   130   ar
   158    90    92   ar
   159    90    91   ar
   160    11    10    1
   161    92    94   ar
   162    51    54    1
   163    51    50    1
   164    87    96   am
   165   160   161    1
   166   161   162    1
   167    54    55    1
   168   131   129   ar
   169    15    16    2
   170    15    17   am
   171     8     7   ar
   172   130   129   ar
   173    91    93   ar
   174    94    95   ar
   175    56    55    2
   176    55    57   am
   177   124   125    1
   178    96    97    1
   179     9     7   ar
   180   129   128    1
   181   163   162   ar
   182   162   164   ar
   183     7     6    1
   184    93    95   ar
   185    97   100    1
   186    97    98    1
   187     5     6    1
   188     5     2    1
   189   125   128    1
   190   125   126    1
   191     4     3    2
   192   100   101    1
   193   115   113    1
   194     3     2    1
   195    98    99    2
   196   101   102    1
   197    41    40    2
   198     2     1    1
   199   126   127    2
   200   103   102   ar
   201   102   104   ar
   202   113   114    1
   203   113   112    2
   204    40    39    1
   205   112   111    1
   206    42    39    1
   207    42    43    1
   208    39    38    1
   209   111   110    1
   210   110   109    1
   211    45    43   ar
   212    45    47   ar
   213    43    44   ar
   214    47    48   ar
   215   109   106    1
   216    44    46   ar
   217    48    46   ar
   218    48    49    1
   219   108   107    2
   220   106   107    1
   221   106   105    1
