@<TRIPOS>MOLECULE
tmp/5ox1A00.pdb
 209 199 0 0 0
SMALL
GASTEIGER

@<TRIPOS>ATOM
      1  N         33.0320   20.2290   39.3030 N.3    77  GLU77      -0.1245
      2  CA        31.7010   20.7130   38.9140 C.3    77  GLU77       0.1567
      3  C         30.7540   19.5740   38.5860 C.2    77  GLU77       0.2260
      4  O         31.1330   18.6240   37.8740 O.2    77  GLU77      -0.2867
      5  CB        31.8150   21.6410   37.7030 C.3    77  GLU77       0.0388
      6  CG        32.6870   22.8640   37.9170 C.3    77  GLU77       0.1160
      7  CD        32.6240   23.8870   36.7820 C.2    77  GLU77       0.3649
      8  OE1       31.6420   23.8870   35.9970 O.co2  77  GLU77      -0.2457
      9  OE2       33.5430   24.7310   36.7190 O.co2  77  GLU77      -0.2457
     10  N         29.4290   25.6220   35.9570 N.3   122  ASN122     -0.1240
     11  CA        29.3890   26.8390   35.1730 C.3   122  ASN122      0.1653
     12  C         28.5900   26.6680   33.8770 C.2   122  ASN122      0.2266
     13  O         27.9830   27.6020   33.4260 O.2   122  ASN122     -0.2867
     14  CB        30.8100   27.2340   34.8020 C.3   122  ASN122      0.1155
     15  CG        31.4750   28.0410   35.8780 C.2   122  ASN122      0.2627
     16  OD1       31.1400   29.2070   36.0520 O.2   122  ASN122     -0.2716
     17  ND2       32.3860   27.4350   36.6180 N.am  122  ASN122     -0.0877
     18  N         28.8650   23.7560   30.3330 N.3   124  GLY124     -0.1210
     19  CA        28.9750   22.4700   29.6550 C.3   124  GLY124      0.1956
     20  C         29.7490   21.3750   30.3640 C.2   124  GLY124      0.2611
     21  O         29.3360   20.2280   30.3630 O.2   124  GLY124     -0.2717
     22  N         30.8710   21.7370   30.9790 N.am  125  LEU125     -0.1979
     23  CA        31.7480   20.7790   31.6460 C.3   125  LEU125      0.1596
     24  C         31.0460   20.1810   32.8410 C.2   125  LEU125      0.2287
     25  O         31.0610   18.9630   33.0200 O.2   125  LEU125     -0.2864
     26  CB        33.0730   21.4350   32.0230 C.3   125  LEU125      0.0297
     27  CG        34.0600   20.5390   32.7810 C.3   125  LEU125      0.0022
     28  CD1       35.4890   20.7800   32.3840 C.3   125  LEU125      0.0001
     29  CD2       33.9250   20.8260   34.2540 C.3   125  LEU125      0.0001
     30  N         28.0580   18.0320   31.6580 N.3   128  LEU128     -0.1245
     31  CA        28.5410   16.7560   31.1150 C.3   128  LEU128      0.1561
     32  C         28.7460   15.7210   32.2350 C.2   128  LEU128      0.2260
     33  O         28.3730   14.5630   32.1080 O.2   128  LEU128     -0.2867
     34  CB        29.8460   16.9370   30.3530 C.3   128  LEU128      0.0270
     35  CG        30.3170   15.6850   29.6040 C.3   128  LEU128      0.0019
     36  CD1       29.5380   15.5050   28.3200 C.3   128  LEU128      0.0001
     37  CD2       31.8090   15.7600   29.3090 C.3   128  LEU128      0.0001
     38  N         33.9540   28.8540   41.8060 N.3   263  TYR263     -0.1241
     39  CA        34.5590   29.8440   40.9070 C.3   263  TYR263      0.1605
     40  C         33.7460   29.9090   39.6020 C.2   263  TYR263      0.2264
     41  O         33.5680   28.8750   38.9550 O.2   263  TYR263     -0.2867
     42  CB        36.0200   29.5360   40.6050 C.3   263  TYR263      0.0534
     43  CG        36.9240   30.1080   41.6570 C.ar  263  TYR263     -0.0201
     44  CD1       37.0760   29.4780   42.8830 C.ar  263  TYR263     -0.0009
     45  CD2       37.6030   31.3000   41.4490 C.ar  263  TYR263     -0.0009
     46  CE1       37.8870   30.0170   43.8690 C.ar  263  TYR263      0.0417
     47  CE2       38.4210   31.8430   42.4340 C.ar  263  TYR263      0.0417
     48  CZ        38.5480   31.1870   43.6400 C.ar  263  TYR263      0.1957
     49  OH        39.3520   31.7020   44.6090 O.3   263  TYR263     -0.2866
     50  N         34.0160   30.9950   36.4920 N.3   265  ASN265     -0.1225
     51  CA        34.6600   31.2180   35.2010 C.3   265  ASN265      0.1785
     52  C         34.4390   30.0220   34.3110 C.2   265  ASN265      0.2597
     53  O         34.6180   28.8870   34.7250 O.2   265  ASN265     -0.2718
     54  CB        36.1440   31.4090   35.3710 C.3   265  ASN265      0.1169
     55  CG        36.4580   32.5830   36.2300 C.2   265  ASN265      0.2627
     56  OD1       35.8330   33.6380   36.0880 O.2   265  ASN265     -0.2716
     57  ND2       37.3430   32.3910   37.2020 N.am  265  ASN265     -0.0877
     58  N         34.0070   30.2710   33.0980 N.am  266  ASP266     -0.1960
     59  CA        33.8830   29.2290   32.1310 C.3   266  ASP266      0.1840
     60  C         35.0210   29.4310   31.1460 C.2   266  ASP266      0.2622
     61  O         35.1670   30.5100   30.5910 O.2   266  ASP266     -0.2715
     62  CB        32.5160   29.3510   31.4520 C.3   266  ASP266      0.1450
     63  CG        32.2250   28.1800   30.5410 C.2   266  ASP266      0.3671
     64  OD1       32.7930   28.1520   29.4410 O.co2 266  ASP266     -0.2456
     65  OD2       31.4480   27.2860   30.9240 O.co2 266  ASP266     -0.2456
     66  N         35.8160   28.3900   30.9140 N.am  267  ASN267     -0.1958
     67  CA        36.9390   28.4420   29.9740 C.3   267  ASN267      0.1819
     68  C         37.9470   29.5410   30.2570 C.2   267  ASN267      0.2621
     69  O         38.3960   30.2270   29.3470 O.2   267  ASN267     -0.2715
     70  CB        36.4200   28.6130   28.5410 C.3   267  ASN267      0.1195
     71  CG        36.2460   27.3200   27.8480 C.2   267  ASN267      0.2630
     72  OD1       37.1730   26.8300   27.2300 O.2   267  ASN267     -0.2716
     73  ND2       35.0840   26.7210   28.0040 N.am  267  ASN267     -0.0877
     74  N         38.2920   29.7210   31.5290 N.am  268  PHE268     -0.1974
     75  CA        39.2540   30.7360   31.9160 C.3   268  PHE268      0.1639
     76  C         39.9150   30.2720   33.2150 C.2   268  PHE268      0.2290
     77  O         39.2280   29.7910   34.1220 O.2   268  PHE268     -0.2864
     78  CB        38.5750   32.0970   32.1040 C.3   268  PHE268      0.0560
     79  CG        39.5340   33.2150   32.4280 C.ar  268  PHE268     -0.0200
     80  CD1       40.3480   33.7580   31.4410 C.ar  268  PHE268     -0.0042
     81  CD2       39.6350   33.7220   33.7280 C.ar  268  PHE268     -0.0042
     82  CE1       41.2520   34.7750   31.7440 C.ar  268  PHE268     -0.0003
     83  CE2       40.5360   34.7460   34.0370 C.ar  268  PHE268     -0.0003
     84  CZ        41.3540   35.2690   33.0440 C.ar  268  PHE268     -0.0000
     85  N         41.2890   28.6040   45.0370 N.3   275  ARG275     -0.1245
     86  CA        40.9740   27.5920   44.0390 C.3   275  ARG275      0.1563
     87  C         41.9120   26.3940   44.1200 C.2   275  ARG275      0.2260
     88  O         41.4700   25.2690   43.9880 O.2   275  ARG275     -0.2867
     89  CB        40.9990   28.2040   42.6440 C.3   275  ARG275      0.0307
     90  CG        40.8720   27.2140   41.5120 C.3   275  ARG275      0.0489
     91  CD        39.5110   26.5760   41.4500 C.3   275  ARG275      0.2205
     92  NE        39.4570   25.7480   40.2520 N.pl3 275  ARG275     -0.0865
     93  CZ        38.3630   25.3220   39.6520 C.cat 275  ARG275      0.5346
     94  NH1       37.1530   25.6000   40.1460 N.pl3 275  ARG275      0.1354
     95  NH2       38.4930   24.6110   38.5220 N.pl3 275  ARG275      0.1354
     96  N         39.0920   17.1160   33.1820 N.3   313  ASP313     -0.1239
     97  CA        40.0810   18.1510   32.9110 C.3   313  ASP313      0.1674
     98  C         41.1880   18.1070   33.9550 C.2   313  ASP313      0.2266
     99  O         41.3220   17.1120   34.6570 O.2   313  ASP313     -0.2867
    100  CB        39.4670   19.5480   32.7430 C.3   313  ASP313      0.1410
    101  CG        40.2240   20.3700   31.6930 C.2   313  ASP313      0.3668
    102  OD1       39.9250   20.2770   30.4900 O.co2 313  ASP313     -0.2456
    103  OD2       41.1970   21.0330   32.0780 O.co2 313  ASP313     -0.2456
    104  N         41.5070   19.9490   36.5280 N.3   315  HIS315     -0.1241
    105  CA        41.1290   20.5160   37.8410 C.3   315  HIS315      0.1621
    106  C         41.4460   19.5710   39.0230 C.2   315  HIS315      0.2264
    107  O         41.9030   20.0540   40.0800 O.2   315  HIS315     -0.2867
    108  CB        39.6800   21.0230   37.8450 C.3   315  HIS315      0.0745
    109  CG        39.3510   21.8740   36.6480 C.ar  315  HIS315      0.0817
    110  ND1       38.0780   21.9890   36.1410 N.ar  315  HIS315     -0.2268
    111  CD2       40.1530   22.5810   35.8110 C.ar  315  HIS315      0.1154
    112  CE1       38.1020   22.7600   35.0650 C.ar  315  HIS315      0.1986
    113  NE2       39.3540   23.1310   34.8450 N.ar  315  HIS315     -0.2212
    114  N         39.2170   19.3100   27.8330 N.3   351  HIS351     -0.1226
    115  CA        37.9950   19.9640   27.3580 C.3   351  HIS351      0.1752
    116  C         38.1890   21.3380   26.7020 C.2   351  HIS351      0.2596
    117  O         37.2110   22.0470   26.4810 O.2   351  HIS351     -0.2718
    118  CB        37.0240   20.1680   28.5200 C.3   351  HIS351      0.0759
    119  CG        36.5840   18.9190   29.1980 C.ar  351  HIS351      0.0818
    120  ND1       35.3670   18.3310   28.9500 N.ar  351  HIS351     -0.2268
    121  CD2       37.1670   18.1830   30.1760 C.ar  351  HIS351      0.1154
    122  CE1       35.2210   17.2780   29.7340 C.ar  351  HIS351      0.1986
    123  NE2       36.3050   17.1640   30.4830 N.ar  351  HIS351     -0.2212
    124  N         39.4070   21.7440   26.4170 N.am  352  THR352     -0.1953
    125  CA        39.6210   23.0640   25.8480 C.3   352  THR352      0.1897
    126  C         41.0210   23.1700   25.2990 C.2   352  THR352      0.2313
    127  O         41.9460   22.5900   25.8630 O.2   352  THR352     -0.2863
    128  CB        39.3670   24.2200   26.8610 C.3   352  THR352      0.1794
    129  OG1       39.4140   25.4810   26.1740 O.3   352  THR352     -0.2208
    130  CG2       40.3750   24.1820   28.0210 C.3   352  THR352      0.0378
    131  N         42.5700   29.2190   29.3090 N.3   357  ALA357     -0.1245
    132  CA        41.8200   28.2580   30.1170 C.3   357  ALA357      0.1562
    133  C         42.7220   27.1880   30.7620 C.2   357  ALA357      0.2260
    134  O         42.2930   26.5000   31.7040 O.2   357  ALA357     -0.2867
    135  CB        40.7320   27.6020   29.2670 C.3   357  ALA357      0.0290
    136  N         37.0440   15.4550   23.2590 N.3   429  VAL429     -0.1245
    137  CA        35.6010   15.3710   23.5200 C.3   429  VAL429      0.1561
    138  C         34.7530   15.4850   22.2620 C.2   429  VAL429      0.2260
    139  O         33.5310   15.4720   22.3320 O.2   429  VAL429     -0.2867
    140  CB        35.1700   16.3680   24.6230 C.3   429  VAL429      0.0252
    141  CG1       35.7470   15.9190   25.9750 C.3   429  VAL429      0.0019
    142  CG2       35.5780   17.8070   24.3120 C.3   429  VAL429      0.0019
    143  N         31.3710   13.6740   23.0610 N.3   458  ASN458     -0.1240
    144  CA        30.4090   13.9670   24.1120 C.3   458  ASN458      0.1653
    145  C         28.9820   13.5180   23.7450 C.2   458  ASN458      0.2266
    146  O         28.6870   13.1750   22.6090 O.2   458  ASN458     -0.2867
    147  CB        30.4430   15.4650   24.4450 C.3   458  ASN458      0.1155
    148  CG        31.5960   15.8370   25.3870 C.2   458  ASN458      0.2627
    149  OD1       32.2700   14.9680   25.9670 O.2   458  ASN458     -0.2716
    150  ND2       31.7960   17.1290   25.5700 N.am  458  ASN458     -0.0877
    151  N         34.6150   33.7070   22.1970 N.3   547  TYR547     -0.1227
    152  CA        34.7650   32.6160   21.2340 C.3   547  TYR547      0.1736
    153  C         33.4370   32.0400   20.7370 C.2   547  TYR547      0.2595
    154  O         33.3990   31.5060   19.6210 O.2   547  TYR547     -0.2718
    155  CB        35.7200   31.5170   21.7180 C.3   547  TYR547      0.0548
    156  CG        35.1260   30.4120   22.5250 C.ar  547  TYR547     -0.0200
    157  CD1       34.5470   29.3130   21.9300 C.ar  547  TYR547     -0.0009
    158  CD2       35.1820   30.4420   23.9050 C.ar  547  TYR547     -0.0009
    159  CE1       34.0220   28.2810   22.6760 C.ar  547  TYR547      0.0417
    160  CE2       34.6530   29.4180   24.6730 C.ar  547  TYR547      0.0417
    161  CZ        34.0820   28.3280   24.0710 C.ar  547  TYR547      0.1957
    162  OH        33.5540   27.3090   24.8570 O.3   547  TYR547     -0.2866
    163  N         32.3780   32.1550   21.5430 N.am  548  LYS548     -0.1980
    164  CA        31.0560   31.6620   21.1620 C.3   548  LYS548      0.1596
    165  C         30.2960   32.5940   20.2050 C.2   548  LYS548      0.2287
    166  O         29.2820   32.1930   19.6060 O.2   548  LYS548     -0.2864
    167  CB        30.2420   31.3670   22.4060 C.3   548  LYS548      0.0298
    168  CG        30.8140   30.1740   23.1950 C.3   548  LYS548      0.0038
    169  CD        30.0670   29.9770   24.5000 C.3   548  LYS548      0.0206
    170  CE        30.6550   28.9270   25.4320 C.3   548  LYS548      0.1093
    171  NZ        30.3450   27.5300   24.9870 N.3   548  LYS548     -0.1314
    172  N         37.5140   26.3230   18.2200 N.3   645  THR645     -0.1203
    173  CA        37.4320   26.8760   19.5840 C.3   645  THR645      0.1994
    174  C         36.4880   26.1510   20.5250 C.2   645  THR645      0.2618
    175  O         36.7720   26.0830   21.7130 O.2   645  THR645     -0.2717
    176  CB        37.1020   28.3880   19.5720 C.3   645  THR645      0.1784
    177  OG1       35.8190   28.6290   18.9790 O.3   645  THR645     -0.2211
    178  CG2       38.1400   29.1340   18.7950 C.3   645  THR645      0.0376
    179  N         35.3440   25.6610   20.0330 N.am  646  GLU646     -0.1965
    180  CA        34.3940   24.9420   20.8850 C.3   646  GLU646      0.1733
    181  C         34.7980   23.4780   20.8780 C.2   646  GLU646      0.2616
    182  O         34.6010   22.8020   19.8750 O.2   646  GLU646     -0.2715
    183  CB        32.9440   25.1390   20.4040 C.3   646  GLU646      0.0429
    184  CG        31.8580   24.6410   21.3700 C.3   646  GLU646      0.1163
    185  CD        31.7400   25.5360   22.5860 C.2   646  GLU646      0.3649
    186  OE1       32.4480   25.2960   23.6070 O.co2 646  GLU646     -0.2457
    187  OE2       31.0160   26.5480   22.4950 O.co2 646  GLU646     -0.2457
    188  N         35.3660   22.9660   21.9850 N.am  647  ALA647     -0.1963
    189  CA        35.9190   21.6140   21.9630 C.3   647  ALA647      0.1728
    190  C         34.8880   20.5990   21.4830 C.2   647  ALA647      0.2617
    191  O         35.1930   19.7710   20.6500 O.2   647  ALA647     -0.2715
    192  CB        36.5080   21.1950   23.3100 C.3   647  ALA647      0.0334
    193  N         33.6580   20.7060   21.9790 N.am  648  SER648     -0.1936
    194  CA        32.5630   19.8810   21.5280 C.3   648  SER648      0.2055
    195  C         31.2870   20.6840   21.4110 C.2   648  SER648      0.2644
    196  O         30.6920   20.7550   20.3140 O.2   648  SER648     -0.2714
    197  CB        32.3350   18.7120   22.5030 C.3   648  SER648      0.2130
    198  OG        31.1680   17.9910   22.1570 O.3   648  SER648     -0.2179
    199  N         30.8560   21.2800   22.5300 N.am  649  GLY649     -0.1939
    200  CA        29.4890   21.7240   22.6610 C.3   649  GLY649      0.2014
    201  C         28.6040   20.5470   23.0660 C.2   649  GLY649      0.2639
    202  O         28.8260   19.3960   22.6580 O.2   649  GLY649     -0.2714
    203  N         27.6110   20.8300   23.8910 N.am  650  THR650     -0.1950
    204  CA        26.5460   19.8900   24.2090 C.3   650  THR650      0.1897
    205  C         25.1430   20.4870   24.0830 C.2   650  THR650      0.2313
    206  O         24.1870   19.7520   23.8170 O.2   650  THR650     -0.2863
    207  CB        26.7060   19.3110   25.6270 C.3   650  THR650      0.1794
    208  OG1       26.8050   20.3940   26.5430 O.3   650  THR650     -0.2208
    209  CG2       27.9400   18.4800   25.6960 C.3   650  THR650      0.0378
@<TRIPOS>BOND
     1   172   173    1
     2   178   176    1
     3   177   176    1
     4   176   173    1
     5   173   174    1
     6   166   165    2
     7   154   153    2
     8   182   181    2
     9   179   174   am
    10   179   180    1
    11   165   164    1
    12   196   195    2
    13   183   180    1
    14   183   184    1
    15   174   175    2
    16   191   190    2
    17   153   152    1
    18   153   163   am
    19   181   180    1
    20   181   188   am
    21   164   163    1
    22   164   167    1
    23   152   155    1
    24   152   151    1
    25   184   185    1
    26   195   194    1
    27   195   199   am
    28   190   189    1
    29   190   193   am
    30   194   193    1
    31   194   197    1
    32   155   156    1
    33   157   156   ar
    34   157   159   ar
    35   189   188    1
    36   189   192    1
    37   198   197    1
    38   138   139    2
    39   138   137    1
    40   167   168    1
    41   187   185   ar
    42   156   158   ar
    43   199   200    1
    44   185   186   ar
    45   146   145    2
    46   202   201    2
    47   200   201    1
    48   159   161   ar
    49   143   144    1
    50   201   203   am
    51   168   169    1
    52   136   137    1
    53   137   140    1
    54   145   144    1
    55   206   205    2
    56   203   204    1
    57   158   160   ar
    58   161   160   ar
    59   161   162    1
    60   205   204    1
    61   144   147    1
    62   204   207    1
    63   142   140    1
    64   147   148    1
    65   169   170    1
    66   140   141    1
    67   171   170    1
    68   126   125    1
    69   126   127    2
    70   148   150   am
    71   148   149    2
    72   207   209    1
    73   207   208    1
    74   125   124    1
    75   125   128    1
    76   129   128    1
    77   124   116   am
    78   117   116    2
    79   116   115    1
    80   128   130    1
    81    72    71    2
    82   115   114    1
    83   115   118    1
    84    71    73   am
    85    71    70    1
    86    36    35    1
    87   118   119    1
    88    70    67    1
    89   120   119   ar
    90   120   122   ar
    91   119   121   ar
    92   135   132    1
    93    37    35    1
    94   131   132    1
    95    69    68    2
    96    64    63   ar
    97    35    34    1
    98    19    18    1
    99    19    20    1
   100   122   123   ar
   101    67    68    1
   102    67    66    1
   103   132   133    1
   104   121   123   ar
   105    68    74   am
   106    34    31    1
   107    21    20    2
   108    20    22   am
   109   102   101   ar
   110    63    65   ar
   111    63    62    1
   112    61    60    2
   113   133   134    2
   114    66    60   am
   115    22    23    1
   116    31    30    1
   117    31    32    1
   118    60    59    1
   119    80    82   ar
   120    80    79   ar
   121    62    59    1
   122    74    75    1
   123    23    26    1
   124    23    24    1
   125   101   103   ar
   126   101   100    1
   127    82    84   ar
   128    75    78    1
   129    75    76    1
   130    26    27    1
   131    78    79    1
   132    33    32    2
   133    59    58    1
   134    28    27    1
   135    79    81   ar
   136   100    97    1
   137    27    29    1
   138    24    25    2
   139    97    96    1
   140    97    98    1
   141    84    83   ar
   142    58    52   am
   143    76    77    2
   144    13    12    2
   145    81    83   ar
   146    12    11    1
   147    98    99    2
   148    52    53    2
   149    52    51    1
   150    14    11    1
   151    14    15    1
   152   113   112   ar
   153   113   111   ar
   154   112   110   ar
   155    11    10    1
   156    51    54    1
   157    51    50    1
   158    54    55    1
   159   111   109   ar
   160    15    16    2
   161    15    17   am
   162     8     7   ar
   163    56    55    2
   164   110   109   ar
   165    55    57   am
   166   104   105    1
   167   109   108    1
   168     9     7   ar
   169     7     6    1
   170     5     6    1
   171     5     2    1
   172   105   108    1
   173   105   106    1
   174     4     3    2
   175    95    93    1
   176     3     2    1
   177     2     1    1
   178    41    40    2
   179   106   107    2
   180    40    39    1
   181    93    94    1
   182    93    92    2
   183    92    91    1
   184    42    39    1
   185    42    43    1
   186    39    38    1
   187    45    43   ar
   188    45    47   ar
   189    91    90    1
   190    90    89    1
   191    43    44   ar
   192    47    48   ar
   193    89    86    1
   194    44    46   ar
   195    48    46   ar
   196    48    49    1
   197    88    87    2
   198    86    87    1
   199    86    85    1
