@<TRIPOS>MOLECULE
tmp/5ox4A00.pdb
 220 211 0 0 0
SMALL
GASTEIGER

@<TRIPOS>ATOM
      1  N         32.9920   20.2320   39.2760 N.3    77  GLU77      -0.1245
      2  CA        31.6660   20.7010   38.9200 C.3    77  GLU77       0.1567
      3  C         30.7190   19.5640   38.6000 C.2    77  GLU77       0.2260
      4  O         31.0820   18.6270   37.8690 O.2    77  GLU77      -0.2867
      5  CB        31.7350   21.6740   37.7140 C.3    77  GLU77       0.0388
      6  CG        32.6720   22.8460   37.8940 C.3    77  GLU77       0.1160
      7  CD        32.5580   23.9030   36.8120 C.2    77  GLU77       0.3649
      8  OE1       31.6000   23.8640   36.0210 O.co2  77  GLU77      -0.2457
      9  OE2       33.4460   24.7690   36.7670 O.co2  77  GLU77      -0.2457
     10  N         29.3340   25.6000   35.9720 N.3   122  ASN122     -0.1240
     11  CA        29.3060   26.8200   35.1700 C.3   122  ASN122      0.1653
     12  C         28.5320   26.6600   33.8630 C.2   122  ASN122      0.2266
     13  O         27.9170   27.5930   33.4060 O.2   122  ASN122     -0.2867
     14  CB        30.7210   27.2140   34.8490 C.3   122  ASN122      0.1155
     15  CG        31.3470   28.0310   35.9460 C.2   122  ASN122      0.2627
     16  OD1       31.0010   29.1910   36.1180 O.2   122  ASN122     -0.2716
     17  ND2       32.2130   27.4150   36.7320 N.am  122  ASN122     -0.0877
     18  N         28.8720   23.7230   30.3270 N.3   124  GLY124     -0.1210
     19  CA        28.9450   22.4430   29.6430 C.3   124  GLY124      0.1956
     20  C         29.7380   21.3480   30.3450 C.2   124  GLY124      0.2611
     21  O         29.3550   20.1860   30.3440 O.2   124  GLY124     -0.2717
     22  N         30.8470   21.7350   30.9450 N.am  125  LEU125     -0.1979
     23  CA        31.7200   20.7830   31.6250 C.3   125  LEU125      0.1596
     24  C         30.9990   20.2020   32.8340 C.2   125  LEU125      0.2287
     25  O         31.0010   18.9730   33.0180 O.2   125  LEU125     -0.2864
     26  CB        33.0410   21.4350   31.9940 C.3   125  LEU125      0.0297
     27  CG        34.0250   20.5460   32.7770 C.3   125  LEU125      0.0022
     28  CD1       35.4700   20.8320   32.4090 C.3   125  LEU125      0.0001
     29  CD2       33.8610   20.7650   34.2510 C.3   125  LEU125      0.0001
     30  N         28.0320   18.0160   31.6510 N.3   128  LEU128     -0.1245
     31  CA        28.5090   16.7440   31.1110 C.3   128  LEU128      0.1561
     32  C         28.7150   15.7360   32.2280 C.2   128  LEU128      0.2260
     33  O         28.3210   14.5780   32.1250 O.2   128  LEU128     -0.2867
     34  CB        29.8270   16.9320   30.3670 C.3   128  LEU128      0.0270
     35  CG        30.3120   15.6860   29.6040 C.3   128  LEU128      0.0019
     36  CD1       29.5100   15.4770   28.3310 C.3   128  LEU128      0.0001
     37  CD2       31.7910   15.7910   29.2760 C.3   128  LEU128      0.0001
     38  N         33.8770   28.8690   41.8720 N.3   263  TYR263     -0.1241
     39  CA        34.4510   29.8690   40.9770 C.3   263  TYR263      0.1605
     40  C         33.6240   29.9290   39.6720 C.2   263  TYR263      0.2264
     41  O         33.3960   28.8890   39.0470 O.2   263  TYR263     -0.2867
     42  CB        35.9200   29.5640   40.6510 C.3   263  TYR263      0.0534
     43  CG        36.8380   30.1180   41.6950 C.ar  263  TYR263     -0.0201
     44  CD1       37.0080   29.4680   42.9240 C.ar  263  TYR263     -0.0009
     45  CD2       37.5090   31.3170   41.4940 C.ar  263  TYR263     -0.0009
     46  CE1       37.8460   29.9840   43.9030 C.ar  263  TYR263      0.0417
     47  CE2       38.3260   31.8470   42.4750 C.ar  263  TYR263      0.0417
     48  CZ        38.4890   31.1650   43.6720 C.ar  263  TYR263      0.1957
     49  OH        39.3120   31.6850   44.6240 O.3   263  TYR263     -0.2866
     50  N         33.9060   30.9520   36.5580 N.3   265  ASN265     -0.1225
     51  CA        34.5660   31.1000   35.2550 C.3   265  ASN265      0.1785
     52  C         34.3110   29.9020   34.3760 C.2   265  ASN265      0.2597
     53  O         34.3390   28.7570   34.8300 O.2   265  ASN265     -0.2718
     54  CB        36.0790   31.2420   35.4330 C.3   265  ASN265      0.1169
     55  CG        36.4390   32.4460   36.2420 C.2   265  ASN265      0.2627
     56  OD1       35.9520   33.5310   35.9610 O.2   265  ASN265     -0.2716
     57  ND2       37.2480   32.2640   37.2820 N.am  265  ASN265     -0.0877
     58  N         34.0340   30.1760   33.1100 N.am  266  ASP266     -0.1960
     59  CA        33.8820   29.1490   32.1190 C.3   266  ASP266      0.1840
     60  C         34.9940   29.3430   31.1000 C.2   266  ASP266      0.2622
     61  O         35.1250   30.4180   30.5390 O.2   266  ASP266     -0.2715
     62  CB        32.5080   29.2850   31.4600 C.3   266  ASP266      0.1450
     63  CG        32.2100   28.1420   30.5250 C.2   266  ASP266      0.3671
     64  OD1       32.8180   28.0900   29.4340 O.co2 266  ASP266     -0.2456
     65  OD2       31.3650   27.2970   30.8870 O.co2 266  ASP266     -0.2456
     66  N         35.7820   28.3030   30.8450 N.am  267  ASN267     -0.1958
     67  CA        36.9020   28.3990   29.8850 C.3   267  ASN267      0.1819
     68  C         37.8780   29.5160   30.2030 C.2   267  ASN267      0.2621
     69  O         38.2870   30.2750   29.3310 O.2   267  ASN267     -0.2715
     70  CB        36.3790   28.5720   28.4430 C.3   267  ASN267      0.1195
     71  CG        36.1110   27.2610   27.7780 C.2   267  ASN267      0.2630
     72  OD1       36.9110   26.7880   26.9730 O.2   267  ASN267     -0.2716
     73  ND2       34.9940   26.6650   28.1040 N.am  267  ASN267     -0.0877
     74  N         38.2620   29.6380   31.4730 N.am  268  PHE268     -0.1960
     75  CA        39.2080   30.6590   31.9000 C.3   268  PHE268      0.1771
     76  C         39.8620   30.1360   33.1780 C.2   268  PHE268      0.2619
     77  O         39.1850   29.5430   34.0340 O.2   268  PHE268     -0.2715
     78  CB        38.5000   32.0000   32.1620 C.3   268  PHE268      0.0574
     79  CG        39.4350   33.1200   32.5080 C.ar  268  PHE268     -0.0200
     80  CD1       40.2340   33.6990   31.5300 C.ar  268  PHE268     -0.0042
     81  CD2       39.5610   33.5760   33.8220 C.ar  268  PHE268     -0.0042
     82  CE1       41.1290   34.7150   31.8450 C.ar  268  PHE268     -0.0003
     83  CE2       40.4580   34.5950   34.1390 C.ar  268  PHE268     -0.0003
     84  CZ        41.2460   35.1610   33.1520 C.ar  268  PHE268     -0.0000
     85  N         41.1670   30.3090   33.2700 N.am  269  PHE269     -0.1974
     86  CA        41.9360   29.9280   34.4530 C.3   269  PHE269      0.1639
     87  C         42.2110   31.1660   35.3010 C.2   269  PHE269      0.2290
     88  O         42.8240   32.1370   34.8300 O.2   269  PHE269     -0.2864
     89  CB        43.2590   29.3090   34.0200 C.3   269  PHE269      0.0560
     90  CG        44.2290   29.0790   35.1530 C.ar  269  PHE269     -0.0200
     91  CD1       43.8810   28.2660   36.2230 C.ar  269  PHE269     -0.0042
     92  CD2       45.4890   29.6670   35.1430 C.ar  269  PHE269     -0.0042
     93  CE1       44.7770   28.0330   37.2580 C.ar  269  PHE269     -0.0003
     94  CE2       46.3770   29.4460   36.1850 C.ar  269  PHE269     -0.0003
     95  CZ        46.0210   28.6210   37.2250 C.ar  269  PHE269     -0.0000
     96  N         41.2260   28.6010   45.0260 N.3   275  ARG275     -0.1245
     97  CA        40.9460   27.5810   44.0100 C.3   275  ARG275      0.1563
     98  C         41.8700   26.3710   44.1040 C.2   275  ARG275      0.2260
     99  O         41.4200   25.2350   43.9940 O.2   275  ARG275     -0.2867
    100  CB        40.9860   28.2070   42.6250 C.3   275  ARG275      0.0307
    101  CG        40.8430   27.2340   41.4780 C.3   275  ARG275      0.0489
    102  CD        39.4970   26.5460   41.4340 C.3   275  ARG275      0.2205
    103  NE        39.4190   25.8220   40.1750 N.pl3 275  ARG275     -0.0865
    104  CZ        38.3150   25.4750   39.5390 C.cat 275  ARG275      0.5346
    105  NH1       37.1130   25.7480   40.0490 N.pl3 275  ARG275      0.1354
    106  NH2       38.4290   24.8760   38.3480 N.pl3 275  ARG275      0.1354
    107  N         39.0100   17.1430   33.1660 N.3   313  ASP313     -0.1239
    108  CA        40.0000   18.1710   32.8940 C.3   313  ASP313      0.1674
    109  C         41.1260   18.1240   33.9370 C.2   313  ASP313      0.2266
    110  O         41.2450   17.1290   34.6400 O.2   313  ASP313     -0.2867
    111  CB        39.3820   19.5680   32.7080 C.3   313  ASP313      0.1410
    112  CG        40.1600   20.3900   31.6760 C.2   313  ASP313      0.3668
    113  OD1       39.9490   20.2690   30.4550 O.co2 313  ASP313     -0.2456
    114  OD2       41.0950   21.0750   32.1050 O.co2 313  ASP313     -0.2456
    115  N         41.4700   19.9590   36.5350 N.3   315  HIS315     -0.1241
    116  CA        41.0850   20.5380   37.8370 C.3   315  HIS315      0.1621
    117  C         41.3970   19.5940   39.0120 C.2   315  HIS315      0.2264
    118  O         41.8420   20.0770   40.0600 O.2   315  HIS315     -0.2867
    119  CB        39.6290   21.0530   37.8510 C.3   315  HIS315      0.0745
    120  CG        39.2790   21.8710   36.6380 C.ar  315  HIS315      0.0817
    121  ND1       37.9930   21.9910   36.1610 N.ar  315  HIS315     -0.2268
    122  CD2       40.0600   22.5870   35.7910 C.ar  315  HIS315      0.1154
    123  CE1       37.9930   22.7640   35.0910 C.ar  315  HIS315      0.1986
    124  NE2       39.2380   23.1230   34.8350 N.ar  315  HIS315     -0.2212
    125  N         39.1590   19.2900   27.7790 N.3   351  HIS351     -0.1226
    126  CA        37.9500   19.9390   27.3080 C.3   351  HIS351      0.1752
    127  C         38.1460   21.2990   26.6490 C.2   351  HIS351      0.2596
    128  O         37.1650   21.9870   26.4150 O.2   351  HIS351     -0.2718
    129  CB        36.9580   20.1550   28.4710 C.3   351  HIS351      0.0759
    130  CG        36.5340   18.9070   29.1800 C.ar  351  HIS351      0.0818
    131  ND1       35.3310   18.2890   28.9430 N.ar  351  HIS351     -0.2268
    132  CD2       37.1510   18.1790   30.1480 C.ar  351  HIS351      0.1154
    133  CE1       35.2150   17.2390   29.7380 C.ar  351  HIS351      0.1986
    134  NE2       36.3130   17.1500   30.4720 N.ar  351  HIS351     -0.2212
    135  N         39.3730   21.7140   26.3820 N.am  352  THR352     -0.1953
    136  CA        39.6050   23.0240   25.8060 C.3   352  THR352      0.1897
    137  C         41.0310   23.1260   25.3060 C.2   352  THR352      0.2313
    138  O         41.9360   22.5530   25.8940 O.2   352  THR352     -0.2863
    139  CB        39.3240   24.1900   26.7960 C.3   352  THR352      0.1794
    140  OG1       39.3660   25.4340   26.0870 O.3   352  THR352     -0.2208
    141  CG2       40.3040   24.1820   27.9840 C.3   352  THR352      0.0378
    142  N         42.5510   29.2020   29.2840 N.3   357  ALA357     -0.1245
    143  CA        41.8190   28.2410   30.1150 C.3   357  ALA357      0.1562
    144  C         42.7170   27.1630   30.7310 C.2   357  ALA357      0.2260
    145  O         42.3010   26.4800   31.6720 O.2   357  ALA357     -0.2867
    146  CB        40.7100   27.5970   29.2990 C.3   357  ALA357      0.0290
    147  N         37.0080   15.4660   23.2500 N.3   429  VAL429     -0.1245
    148  CA        35.5750   15.3300   23.5090 C.3   429  VAL429      0.1561
    149  C         34.7240   15.4510   22.2460 C.2   429  VAL429      0.2260
    150  O         33.5150   15.4680   22.3210 O.2   429  VAL429     -0.2867
    151  CB        35.1240   16.2990   24.6150 C.3   429  VAL429      0.0252
    152  CG1       35.7070   15.8730   25.9720 C.3   429  VAL429      0.0019
    153  CG2       35.4800   17.7430   24.2850 C.3   429  VAL429      0.0019
    154  N         31.3200   13.6430   23.0360 N.3   458  ASN458     -0.1240
    155  CA        30.3570   13.9270   24.0960 C.3   458  ASN458      0.1653
    156  C         28.9350   13.4940   23.7140 C.2   458  ASN458      0.2266
    157  O         28.6260   13.1890   22.5620 O.2   458  ASN458     -0.2867
    158  CB        30.3710   15.4330   24.4490 C.3   458  ASN458      0.1155
    159  CG        31.5410   15.8280   25.3630 C.2   458  ASN458      0.2627
    160  OD1       32.2100   14.9810   25.9540 O.2   458  ASN458     -0.2716
    161  ND2       31.7480   17.1270   25.5130 N.am  458  ASN458     -0.0877
    162  N         34.6420   33.6640   22.1910 N.3   547  TYR547     -0.1227
    163  CA        34.7860   32.5580   21.2340 C.3   547  TYR547      0.1736
    164  C         33.4580   32.0160   20.7360 C.2   547  TYR547      0.2595
    165  O         33.4040   31.5010   19.6200 O.2   547  TYR547     -0.2718
    166  CB        35.7000   31.4320   21.7320 C.3   547  TYR547      0.0548
    167  CG        35.0760   30.3410   22.5480 C.ar  547  TYR547     -0.0200
    168  CD1       34.4960   29.2200   21.9440 C.ar  547  TYR547     -0.0009
    169  CD2       35.1220   30.3700   23.9340 C.ar  547  TYR547     -0.0009
    170  CE1       33.9670   28.1930   22.6980 C.ar  547  TYR547      0.0417
    171  CE2       34.5780   29.3530   24.6960 C.ar  547  TYR547      0.0417
    172  CZ        34.0160   28.2540   24.1000 C.ar  547  TYR547      0.1957
    173  OH        33.4730   27.2380   24.8770 O.3   547  TYR547     -0.2866
    174  N         32.4050   32.1410   21.5450 N.am  548  LYS548     -0.1980
    175  CA        31.0770   31.6600   21.1610 C.3   548  LYS548      0.1596
    176  C         30.3340   32.6270   20.2150 C.2   548  LYS548      0.2287
    177  O         29.3040   32.2550   19.6260 O.2   548  LYS548     -0.2864
    178  CB        30.2470   31.3680   22.4120 C.3   548  LYS548      0.0298
    179  CG        30.7860   30.1490   23.2030 C.3   548  LYS548      0.0038
    180  CD        30.0350   29.9640   24.5140 C.3   548  LYS548      0.0206
    181  CE        30.5890   28.8810   25.4420 C.3   548  LYS548      0.1093
    182  NZ        30.2830   27.4890   25.0040 N.3   548  LYS548     -0.1314
    183  N         37.4940   26.2690   18.2240 N.3   645  THR645     -0.1203
    184  CA        37.4240   26.8290   19.5860 C.3   645  THR645      0.1994
    185  C         36.4670   26.1240   20.5380 C.2   645  THR645      0.2618
    186  O         36.7470   26.0780   21.7260 O.2   645  THR645     -0.2717
    187  CB        37.0920   28.3420   19.5640 C.3   645  THR645      0.1784
    188  OG1       35.7860   28.5580   19.0050 O.3   645  THR645     -0.2211
    189  CG2       38.1170   29.0860   18.7490 C.3   645  THR645      0.0376
    190  N         35.3060   25.6450   20.0490 N.am  646  GLU646     -0.1965
    191  CA        34.3540   24.9250   20.8800 C.3   646  GLU646      0.1733
    192  C         34.7550   23.4550   20.8540 C.2   646  GLU646      0.2616
    193  O         34.5520   22.8020   19.8700 O.2   646  GLU646     -0.2715
    194  CB        32.9150   25.1230   20.3720 C.3   646  GLU646      0.0429
    195  CG        31.8140   24.6220   21.3060 C.3   646  GLU646      0.1163
    196  CD        31.6660   25.5190   22.5220 C.2   646  GLU646      0.3649
    197  OE1       32.3870   25.2670   23.5300 O.co2 646  GLU646     -0.2457
    198  OE2       30.9120   26.5200   22.4590 O.co2 646  GLU646     -0.2457
    199  N         35.3130   22.9210   21.9500 N.am  647  ALA647     -0.1963
    200  CA        35.8560   21.5450   21.9120 C.3   647  ALA647      0.1728
    201  C         34.8200   20.5450   21.4520 C.2   647  ALA647      0.2617
    202  O         35.1130   19.7100   20.5960 O.2   647  ALA647     -0.2715
    203  CB        36.4470   21.1260   23.2570 C.3   647  ALA647      0.0334
    204  N         33.5970   20.6640   21.9790 N.am  648  SER648     -0.1936
    205  CA        32.4990   19.8500   21.5150 C.3   648  SER648      0.2055
    206  C         31.2270   20.6410   21.3850 C.2   648  SER648      0.2644
    207  O         30.6250   20.6900   20.3010 O.2   648  SER648     -0.2714
    208  CB        32.2720   18.6600   22.4690 C.3   648  SER648      0.2130
    209  OG        31.1230   17.9300   22.1280 O.3   648  SER648     -0.2179
    210  N         30.7960   21.2250   22.5000 N.am  649  GLY649     -0.1939
    211  CA        29.4380   21.6810   22.6360 C.3   649  GLY649      0.2014
    212  C         28.5740   20.5310   23.0610 C.2   649  GLY649      0.2639
    213  O         28.8240   19.3690   22.6870 O.2   649  GLY649     -0.2714
    214  N         27.5710   20.8330   23.8840 N.am  650  THR650     -0.1950
    215  CA        26.5120   19.8830   24.2100 C.3   650  THR650      0.1897
    216  C         25.1140   20.4760   24.0880 C.2   650  THR650      0.2313
    217  O         24.1650   19.7480   23.8210 O.2   650  THR650     -0.2863
    218  CB        26.6850   19.3100   25.6270 C.3   650  THR650      0.1794
    219  OG1       26.7930   20.4010   26.5460 O.3   650  THR650     -0.2208
    220  CG2       27.9040   18.4550   25.6620 C.3   650  THR650      0.0378
@<TRIPOS>BOND
     1   183   184    1
     2   189   187    1
     3   188   187    1
     4   187   184    1
     5   184   185    1
     6   165   164    2
     7   177   176    2
     8   193   192    2
     9   190   185   am
    10   190   191    1
    11   176   175    1
    12   207   206    2
    13   194   191    1
    14   194   195    1
    15   185   186    2
    16   202   201    2
    17   164   163    1
    18   164   174   am
    19   192   191    1
    20   192   199   am
    21   175   174    1
    22   175   178    1
    23   163   166    1
    24   163   162    1
    25   195   196    1
    26   206   205    1
    27   206   210   am
    28   201   200    1
    29   201   204   am
    30   205   204    1
    31   205   208    1
    32   166   167    1
    33   200   199    1
    34   200   203    1
    35   168   167   ar
    36   168   170   ar
    37   209   208    1
    38   149   150    2
    39   149   148    1
    40   178   179    1
    41   198   196   ar
    42   210   211    1
    43   196   197   ar
    44   167   169   ar
    45   157   156    2
    46   211   212    1
    47   213   212    2
    48   170   172   ar
    49   154   155    1
    50   212   214   am
    51   179   180    1
    52   147   148    1
    53   148   151    1
    54   156   155    1
    55   217   216    2
    56   214   215    1
    57   169   171   ar
    58   216   215    1
    59   155   158    1
    60   172   171   ar
    61   172   173    1
    62   215   218    1
    63   153   151    1
    64   158   159    1
    65   180   181    1
    66   151   152    1
    67   182   181    1
    68   137   136    1
    69   137   138    2
    70   159   161   am
    71   159   160    2
    72   218   220    1
    73   218   219    1
    74   136   135    1
    75   136   139    1
    76   140   139    1
    77   135   127   am
    78   128   127    2
    79   127   126    1
    80   139   141    1
    81    72    71    2
    82   126   125    1
    83   126   129    1
    84    71    73   am
    85    71    70    1
    86    36    35    1
    87    70    67    1
    88   129   130    1
    89   131   130   ar
    90   131   133   ar
    91   130   132   ar
    92    37    35    1
    93   142   143    1
    94   146   143    1
    95    69    68    2
    96    64    63   ar
    97    35    34    1
    98    19    18    1
    99    19    20    1
   100   133   134   ar
   101    67    68    1
   102    67    66    1
   103   143   144    1
   104   132   134   ar
   105    68    74   am
   106    21    20    2
   107    20    22   am
   108    34    31    1
   109   113   112   ar
   110    63    65   ar
   111    63    62    1
   112    61    60    2
   113   144   145    2
   114    66    60   am
   115    22    23    1
   116    60    59    1
   117    31    30    1
   118    31    32    1
   119    62    59    1
   120    74    75    1
   121    80    82   ar
   122    80    79   ar
   123    23    26    1
   124    23    24    1
   125   112   114   ar
   126   112   111    1
   127    82    84   ar
   128    75    78    1
   129    75    76    1
   130    26    27    1
   131    59    58    1
   132    33    32    2
   133    78    79    1
   134    28    27    1
   135    79    81   ar
   136   111   108    1
   137    27    29    1
   138    24    25    2
   139   108   107    1
   140   108   109    1
   141    58    52   am
   142    84    83   ar
   143    76    85   am
   144    76    77    2
   145    85    86    1
   146    13    12    2
   147    81    83   ar
   148    12    11    1
   149   109   110    2
   150    89    86    1
   151    89    90    1
   152    52    53    2
   153    52    51    1
   154    86    87    1
   155    88    87    2
   156   124   123   ar
   157   124   122   ar
   158    14    11    1
   159    14    15    1
   160   123   121   ar
   161    92    90   ar
   162    92    94   ar
   163    90    91   ar
   164    11    10    1
   165    51    54    1
   166    51    50    1
   167    54    55    1
   168   122   120   ar
   169    15    16    2
   170    15    17   am
   171    56    55    2
   172     8     7   ar
   173   121   120   ar
   174    94    95   ar
   175    91    93   ar
   176    55    57   am
   177   115   116    1
   178   120   119    1
   179     9     7   ar
   180     7     6    1
   181    95    93   ar
   182     5     6    1
   183     5     2    1
   184   116   119    1
   185   116   117    1
   186     4     3    2
   187   106   104    1
   188     3     2    1
   189     2     1    1
   190   117   118    2
   191    41    40    2
   192   104   105    1
   193   104   103    2
   194    40    39    1
   195   103   102    1
   196    42    39    1
   197    42    43    1
   198    39    38    1
   199   102   101    1
   200   101   100    1
   201    45    43   ar
   202    45    47   ar
   203    43    44   ar
   204    47    48   ar
   205   100    97    1
   206    44    46   ar
   207    48    46   ar
   208    48    49    1
   209    99    98    2
   210    97    98    1
   211    97    96    1
