@<TRIPOS>MOLECULE
tmp/5ox5A00.pdb
 164 153 0 0 0
SMALL
GASTEIGER

@<TRIPOS>ATOM
      1  N         86.9120  -61.9650    0.2670 N.3    67  ASP67      -0.1239
      2  CA        87.0310  -62.8160    1.4440 C.3    67  ASP67       0.1674
      3  C         87.6580  -62.0640    2.6100 C.2    67  ASP67       0.2266
      4  O         88.6490  -61.3450    2.4510 O.2    67  ASP67      -0.2867
      5  CB        87.8720  -64.0500    1.1260 C.3    67  ASP67       0.1410
      6  CG        89.2970  -63.6990    0.7510 C.2    67  ASP67       0.3668
      7  OD1       89.5240  -63.2630   -0.3980 O.co2  67  ASP67      -0.2456
      8  OD2       90.1890  -63.8390    1.6130 O.co2  67  ASP67      -0.2456
      9  N         89.3480  -62.5590    6.5520 N.3    69  ILE69      -0.1245
     10  CA        90.1190  -63.5800    7.2470 C.3    69  ILE69       0.1561
     11  C         90.4530  -63.1240    8.6590 C.2    69  ILE69       0.2260
     12  O         90.4080  -61.9370    8.9900 O.2    69  ILE69      -0.2867
     13  CB        91.4210  -63.9500    6.4990 C.3    69  ILE69       0.0252
     14  CG1       92.3210  -62.7230    6.3250 C.3    69  ILE69       0.0019
     15  CG2       91.0880  -64.5780    5.1510 C.3    69  ILE69       0.0019
     16  CD1       93.7130  -63.0550    5.8360 C.3    69  ILE69       0.0001
     17  N         93.5980  -70.3210    9.6630 N.3   112  MET112     -0.1245
     18  CA        93.0500  -69.2070    8.8970 C.3   112  MET112      0.1570
     19  C         91.5450  -69.4080    8.7900 C.2   112  MET112      0.2261
     20  O         91.0780  -70.3070    8.0810 O.2   112  MET112     -0.2867
     21  CB        93.6850  -69.1090    7.5120 C.3   112  MET112      0.0387
     22  CG        93.1560  -67.9360    6.6880 C.3   112  MET112      0.0595
     23  SD        93.7750  -67.8770    4.9960 S.3   112  MET112     -0.1393
     24  CE        92.8440  -69.2150    4.2500 C.3   112  MET112      0.0692
     25  N         88.2180  -68.0420    7.3250 N.3   114  ALA114     -0.1245
     26  CA        87.8510  -67.2390    6.1690 C.3   114  ALA114      0.1562
     27  C         86.3370  -67.1750    6.0260 C.2   114  ALA114      0.2260
     28  O         85.6330  -68.1710    6.2390 O.2   114  ALA114     -0.2867
     29  CB        88.4650  -67.8050    4.8870 C.3   114  ALA114      0.0290
     30  N         83.7410  -65.6610    3.1230 N.3   116  TYR116     -0.1241
     31  CA        83.3170  -64.9850    1.9100 C.3   116  TYR116      0.1605
     32  C         81.9690  -64.3280    2.1840 C.2   116  TYR116      0.2264
     33  O         81.0320  -65.0180    2.6080 O.2   116  TYR116     -0.2867
     34  CB        83.2290  -65.9660    0.7490 C.3   116  TYR116      0.0534
     35  CG        84.5830  -66.4790    0.3020 C.ar  116  TYR116     -0.0201
     36  CD1       85.2610  -67.4470    1.0350 C.ar  116  TYR116     -0.0009
     37  CD2       85.1880  -65.9850   -0.8440 C.ar  116  TYR116     -0.0009
     38  CE1       86.5000  -67.9090    0.6340 C.ar  116  TYR116      0.0417
     39  CE2       86.4240  -66.4430   -1.2530 C.ar  116  TYR116      0.0417
     40  CZ        87.0760  -67.4020   -0.5120 C.ar  116  TYR116      0.1957
     41  OH        88.3100  -67.8590   -0.9150 O.3   116  TYR116     -0.2866
     42  N         87.6340  -66.6520   -5.2230 N.3   123  TYR123     -0.1241
     43  CA        89.0850  -66.6270   -5.0770 C.3   123  TYR123      0.1605
     44  C         89.7140  -67.1860   -6.3430 C.2   123  TYR123      0.2264
     45  O         89.3960  -68.3070   -6.7530 O.2   123  TYR123     -0.2867
     46  CB        89.5330  -67.4270   -3.8500 C.3   123  TYR123      0.0534
     47  CG        90.9010  -67.0320   -3.3460 C.ar  123  TYR123     -0.0201
     48  CD1       92.0500  -67.4530   -3.9990 C.ar  123  TYR123     -0.0009
     49  CD2       91.0430  -66.2340   -2.2190 C.ar  123  TYR123     -0.0009
     50  CE1       93.3030  -67.0900   -3.5450 C.ar  123  TYR123      0.0417
     51  CE2       92.2910  -65.8660   -1.7570 C.ar  123  TYR123      0.0417
     52  CZ        93.4180  -66.2970   -2.4240 C.ar  123  TYR123      0.1957
     53  OH        94.6650  -65.9340   -1.9660 O.3   123  TYR123     -0.2866
     54  N         94.8110  -70.6640   -8.1410 N.3   126  HIS126     -0.1241
     55  CA        96.1290  -70.4830   -7.5460 C.3   126  HIS126      0.1621
     56  C         96.6410  -71.8200   -7.0310 C.2   126  HIS126      0.2264
     57  O         95.9010  -72.8040   -6.9350 O.2   126  HIS126     -0.2867
     58  CB        96.0880  -69.4610   -6.4080 C.3   126  HIS126      0.0745
     59  CG        95.3170  -69.9270   -5.2140 C.ar  126  HIS126      0.0817
     60  ND1       93.9410  -69.9580   -5.1830 N.ar  126  HIS126     -0.2268
     61  CD2       95.7330  -70.3890   -4.0110 C.ar  126  HIS126      0.1154
     62  CE1       93.5390  -70.4170   -4.0090 C.ar  126  HIS126      0.1986
     63  NE2       94.6070  -70.6820   -3.2790 N.ar  126  HIS126     -0.2212
     64  N         98.6970  -73.1230   -3.5480 N.3   128  ASP128     -0.1239
     65  CA        98.9890  -72.6540   -2.1980 C.3   128  ASP128      0.1674
     66  C        100.4890  -72.4400   -2.0070 C.2   128  ASP128      0.2266
     67  O        100.9340  -71.3420   -1.6540 O.2   128  ASP128     -0.2867
     68  CB        98.4510  -73.6540   -1.1690 C.3   128  ASP128      0.1410
     69  CG        96.9650  -73.4790   -0.8870 C.2   128  ASP128      0.3668
     70  OD1       96.3380  -72.5490   -1.4360 O.co2 128  ASP128     -0.2456
     71  OD2       96.4270  -74.2820   -0.0970 O.co2 128  ASP128     -0.2456
     72  N        105.1130  -75.9560    3.1980 N.3   135  ARG135     -0.1245
     73  CA       103.7840  -76.5120    3.4020 C.3   135  ARG135      0.1563
     74  C        103.5200  -77.6330    2.4060 C.2   135  ARG135      0.2260
     75  O        103.6710  -77.4460    1.1940 O.2   135  ARG135     -0.2867
     76  CB       102.7300  -75.4200    3.2590 C.3   135  ARG135      0.0307
     77  CG       102.8450  -74.3170    4.2960 C.3   135  ARG135      0.0489
     78  CD       101.8550  -73.2080    4.0100 C.3   135  ARG135      0.2205
     79  NE       102.1850  -72.4860    2.7860 N.pl3 135  ARG135     -0.0865
     80  CZ       101.3300  -71.7400    2.0940 C.cat 135  ARG135      0.5346
     81  NH1      100.0680  -71.6180    2.4860 N.pl3 135  ARG135      0.1354
     82  NH2      101.7370  -71.1220    0.9950 N.pl3 135  ARG135      0.1354
     83  N         91.2440  -78.1480    5.1950 N.3   140  ILE140     -0.1245
     84  CA        90.1700  -77.1620    5.2730 C.3   140  ILE140      0.1561
     85  C         88.9530  -77.8010    5.9300 C.2   140  ILE140      0.2260
     86  O         88.6030  -78.9440    5.6240 O.2   140  ILE140     -0.2867
     87  CB        89.8050  -76.6180    3.8750 C.3   140  ILE140      0.0252
     88  CG1       91.0300  -75.9720    3.2230 C.3   140  ILE140      0.0019
     89  CG2       88.6520  -75.6240    3.9740 C.3   140  ILE140      0.0019
     90  CD1       90.7900  -75.4490    1.8190 C.3   140  ILE140      0.0001
     91  N         84.8420  -77.0060    6.6400 N.3   142  TYR142     -0.1241
     92  CA        83.7280  -76.1650    6.2200 C.3   142  TYR142      0.1605
     93  C         82.5880  -76.2170    7.2340 C.2   142  TYR142      0.2264
     94  O         82.4260  -77.1880    7.9760 O.2   142  TYR142     -0.2867
     95  CB        83.2220  -76.5960    4.8410 C.3   142  TYR142      0.0534
     96  CG        84.2640  -76.5060    3.7470 C.ar  142  TYR142     -0.0201
     97  CD1       84.5860  -75.2880    3.1580 C.ar  142  TYR142     -0.0009
     98  CD2       84.9210  -77.6420    3.2990 C.ar  142  TYR142     -0.0009
     99  CE1       85.5380  -75.2080    2.1550 C.ar  142  TYR142      0.0417
    100  CE2       85.8700  -77.5720    2.2990 C.ar  142  TYR142      0.0417
    101  CZ        86.1760  -76.3560    1.7300 C.ar  142  TYR142      0.1957
    102  OH        87.1240  -76.2930    0.7360 O.3   142  TYR142     -0.2866
    103  N         84.5290  -75.1040   -4.3210 N.3   156  LEU156     -0.1245
    104  CA        85.9710  -75.2200   -4.4990 C.3   156  LEU156      0.1561
    105  C         86.2410  -76.1110   -5.7020 C.2   156  LEU156      0.2260
    106  O         85.8350  -77.2750   -5.7180 O.2   156  LEU156     -0.2867
    107  CB        86.6340  -75.8040   -3.2530 C.3   156  LEU156      0.0270
    108  CG        88.1250  -76.1320   -3.4070 C.3   156  LEU156      0.0019
    109  CD1       88.9240  -74.8570   -3.5990 C.3   156  LEU156      0.0001
    110  CD2       88.6540  -76.9220   -2.2210 C.3   156  LEU156      0.0001
    111  N         93.8200  -74.5190   -7.6620 N.3   187  HIS187     -0.1241
    112  CA        92.4210  -74.5080   -7.2620 C.3   187  HIS187      0.1621
    113  C         91.9150  -73.0790   -7.1800 C.2   187  HIS187      0.2264
    114  O         92.6900  -72.1250   -7.0770 O.2   187  HIS187     -0.2867
    115  CB        92.2200  -75.2290   -5.9230 C.3   187  HIS187      0.0745
    116  CG        93.0500  -74.6780   -4.8040 C.ar  187  HIS187      0.0817
    117  ND1       94.3820  -74.9930   -4.6390 N.ar  187  HIS187     -0.2268
    118  CD2       92.7320  -73.8430   -3.7860 C.ar  187  HIS187      0.1154
    119  CE1       94.8510  -74.3710   -3.5710 C.ar  187  HIS187      0.1986
    120  NE2       93.8700  -73.6670   -3.0360 N.ar  187  HIS187     -0.2212
    121  N         88.1540  -70.7650   -5.7520 N.3   189  VAL189     -0.1245
    122  CA        86.8460  -70.7240   -5.1130 C.3   189  VAL189      0.1561
    123  C         85.9110  -69.9650   -6.0410 C.2   189  VAL189      0.2260
    124  O         86.1390  -68.7860   -6.3380 O.2   189  VAL189     -0.2867
    125  CB        86.9120  -70.0660   -3.7270 C.3   189  VAL189      0.0252
    126  CG1       85.5220  -69.9940   -3.1060 C.3   189  VAL189      0.0019
    127  CG2       87.8540  -70.8410   -2.8220 C.3   189  VAL189      0.0019
    128  N         79.9540  -67.6950    3.3140 N.3   196  ARG196     -0.1245
    129  CA        80.6560  -68.9720    3.2120 C.3   196  ARG196      0.1563
    130  C         81.8270  -68.9750    4.1840 C.2   196  ARG196      0.2260
    131  O         82.7630  -68.1860    4.0320 O.2   196  ARG196     -0.2867
    132  CB        81.1350  -69.1990    1.7730 C.3   196  ARG196      0.0307
    133  CG        81.9230  -70.4750    1.4970 C.3   196  ARG196      0.0489
    134  CD        82.6210  -70.3270    0.1490 C.3   196  ARG196      0.2205
    135  NE        83.2220  -71.5530   -0.3700 N.pl3 196  ARG196     -0.0865
    136  CZ        84.4440  -71.9870   -0.0690 C.cat 196  ARG196      0.5346
    137  NH1       85.2090  -71.3170    0.7820 N.pl3 196  ARG196      0.1354
    138  NH2       84.9010  -73.1040   -0.6190 N.pl3 196  ARG196      0.1354
    139  N         84.9620  -71.0510    6.2930 N.3   198  ALA198     -0.1245
    140  CA        85.8760  -72.1850    6.2270 C.3   198  ALA198      0.1562
    141  C         87.0550  -71.9340    7.1580 C.2   198  ALA198      0.2260
    142  O         87.3940  -70.7860    7.4520 O.2   198  ALA198     -0.2867
    143  CB        86.3770  -72.4300    4.7980 C.3   198  ALA198      0.0290
    144  N         91.0760  -73.1670    7.5740 N.3   200  THR200     -0.1218
    145  CA        92.1840  -73.8320    6.9050 C.3   200  THR200      0.1862
    146  C         93.3940  -73.9100    7.8230 C.2   200  THR200      0.2287
    147  O         93.7080  -72.9570    8.5400 O.2   200  THR200     -0.2866
    148  CB        92.5740  -73.1000    5.6140 C.3   200  THR200      0.1770
    149  OG1       91.4430  -73.0280    4.7370 O.3   200  THR200     -0.2211
    150  CG2       93.7130  -73.8270    4.9060 C.3   200  THR200      0.0375
    151  N         97.5560  -75.3850    7.4230 N.3   202  TRP202     -0.1241
    152  CA        98.6060  -75.9150    6.5640 C.3   202  TRP202      0.1605
    153  C         99.6470  -76.6340    7.4110 C.2   202  TRP202      0.2264
    154  O        100.0920  -76.1120    8.4370 O.2   202  TRP202     -0.2867
    155  CB        99.2810  -74.7990    5.7590 C.3   202  TRP202      0.0550
    156  CG        98.4550  -74.2630    4.6340 C.ar  202  TRP202      0.0003
    157  CD1       98.3400  -74.7920    3.3840 C.ar  202  TRP202      0.0946
    158  CD2       97.6460  -73.0820    4.6470 C.ar  202  TRP202      0.0152
    159  NE1       97.5040  -74.0190    2.6170 N.ar  202  TRP202     -0.2442
    160  CE2       97.0630  -72.9620    3.3700 C.ar  202  TRP202      0.0810
    161  CE3       97.3540  -72.1150    5.6160 C.ar  202  TRP202      0.0012
    162  CZ2       96.2040  -71.9170    3.0350 C.ar  202  TRP202      0.0191
    163  CZ3       96.5000  -71.0780    5.2810 C.ar  202  TRP202      0.0001
    164  CH2       95.9350  -70.9870    4.0020 C.ar  202  TRP202      0.0015
@<TRIPOS>BOND
     1    54    55    1
     2   111   112    1
     3    55    56    1
     4    55    58    1
     5   112   113    1
     6   112   115    1
     7   113   114    2
     8    56    57    2
     9    45    44    2
    10    58    59    1
    11    44    43    1
    12   124   123    2
    13   123   122    1
    14   115   116    1
    15   121   122    1
    16   106   105    2
    17   105   104    1
    18    42    43    1
    19    59    60   ar
    20    59    61   ar
    21    60    62   ar
    22   122   125    1
    23    43    46    1
    24   116   117   ar
    25   116   118   ar
    26   117   119   ar
    27   104   103    1
    28   104   107    1
    29    61    63   ar
    30    62    63   ar
    31    48    50   ar
    32    48    47   ar
    33    46    47    1
    34   118   120   ar
    35   125   126    1
    36   125   127    1
    37   109   108    1
    38   119   120   ar
    39    64    65    1
    40    50    52   ar
    41   108   107    1
    42   108   110    1
    43    47    49   ar
    44    52    53    1
    45    52    51   ar
    46    49    51   ar
    47    65    66    1
    48    65    68    1
    49    66    67    2
    50    70    69   ar
    51    39    37   ar
    52    39    40   ar
    53    68    69    1
    54    41    40    1
    55    69    71   ar
    56    37    35   ar
    57   138   136    1
    58    40    38   ar
    59     7     6   ar
    60   135   136    2
    61   135   134    1
    62   136   137    1
    63   134   133    1
    64     1     2    1
    65    35    34    1
    66    35    36   ar
    67    38    36   ar
    68   102   101    1
    69    34    31    1
    70     6     5    1
    71     6     8   ar
    72    82    80    1
    73     5     2    1
    74    75    74    2
    75     2     3    1
    76   133   132    1
    77   101    99   ar
    78   101   100   ar
    79   132   129    1
    80    90    88    1
    81    31    32    1
    82    31    30    1
    83    80    81    1
    84    80    79    2
    85    99    97   ar
    86    32    33    2
    87   100    98   ar
    88    74    73    1
    89     4     3    2
    90   159   160   ar
    91   159   157   ar
    92    79    78    1
    93   162   160   ar
    94   162   164   ar
    95    97    96   ar
    96    72    73    1
    97   129   128    1
    98   129   130    1
    99    88    87    1
   100    76    73    1
   101    76    77    1
   102    98    96   ar
   103   160   158   ar
   104   157   156   ar
   105    96    95    1
   106    87    89    1
   107    87    84    1
   108   164   163   ar
   109    78    77    1
   110   131   130    2
   111    24    23    1
   112   156   158   ar
   113   156   155    1
   114   158   161   ar
   115   149   148    1
   116   143   140    1
   117    95    92    1
   118    29    26    1
   119   150   148    1
   120    23    22    1
   121    15    13    1
   122    83    84    1
   123    84    85    1
   124   163   161   ar
   125   148   145    1
   126    86    85    2
   127   155   152    1
   128    16    14    1
   129    27    26    1
   130    27    28    2
   131    26    25    1
   132    92    91    1
   133    92    93    1
   134   140   139    1
   135   140   141    1
   136    14    13    1
   137    13    10    1
   138     9    10    1
   139   152   153    1
   140   152   151    1
   141    22    21    1
   142   145   144    1
   143   145   146    1
   144   141   142    2
   145    93    94    2
   146    10    11    1
   147   153   154    2
   148    21    18    1
   149   146   147    2
   150    20    19    2
   151    11    12    2
   152    19    18    1
   153    18    17    1
