@<TRIPOS>MOLECULE
tmp/5ox6A00.pdb
 178 168 0 0 0
SMALL
GASTEIGER

@<TRIPOS>ATOM
      1  N         10.6350  107.7090   -5.9680 N.3    67  ASP67      -0.1239
      2  CA        11.2240  108.2970   -4.7750 C.3    67  ASP67       0.1674
      3  C         10.2040  108.4500   -3.6640 C.2    67  ASP67       0.2266
      4  O          9.0960  108.9300   -3.8860 O.2    67  ASP67      -0.2867
      5  CB        11.8570  109.6450   -5.0890 C.3    67  ASP67       0.1410
      6  CG        10.8820  110.6800   -5.4750 C.2    67  ASP67       0.3668
      7  OD1       10.2450  110.5330   -6.5360 O.co2  67  ASP67      -0.2456
      8  OD2       10.7520  111.6680   -4.7010 O.co2  67  ASP67      -0.2456
      9  N          9.7560  109.9700    0.3710 N.3    69  ILE69      -0.1245
     10  CA        10.3110  111.0770    1.1360 C.3    69  ILE69       0.1561
     11  C          9.7720  111.1060    2.5550 C.2    69  ILE69       0.2260
     12  O          8.7260  110.5460    2.8760 O.2    69  ILE69      -0.2867
     13  CB        10.0300  112.4300    0.4600 C.3    69  ILE69       0.0252
     14  CG1        8.5280  112.6370    0.3250 C.3    69  ILE69       0.0019
     15  CG2       10.6540  112.4600   -0.9200 C.3    69  ILE69       0.0019
     16  CD1        8.1490  114.0220   -0.1990 C.3    69  ILE69       0.0001
     17  N          9.8880  114.3640    5.7140 N.3    71  TRP71      -0.1241
     18  CA        10.3930  115.6560    6.1790 C.3    71  TRP71       0.1605
     19  C         10.8990  115.5410    7.6130 C.2    71  TRP71       0.2264
     20  O         10.1980  115.0390    8.4970 O.2    71  TRP71      -0.2867
     21  CB         9.3170  116.7240    6.0960 C.3    71  TRP71       0.0550
     22  CG         8.9580  117.0570    4.6960 C.ar   71  TRP71       0.0003
     23  CD1        7.8790  116.6030    4.0260 C.ar   71  TRP71       0.0946
     24  CD2        9.6430  117.9460    3.8060 C.ar   71  TRP71       0.0152
     25  NE1        7.8380  117.1480    2.7810 N.ar   71  TRP71      -0.2442
     26  CE2        8.9160  117.9690    2.6140 C.ar   71  TRP71       0.0810
     27  CE3       10.7990  118.7280    3.9090 C.ar   71  TRP71       0.0012
     28  CZ2        9.3030  118.7130    1.5240 C.ar   71  TRP71       0.0191
     29  CZ3       11.1910  119.4480    2.8260 C.ar   71  TRP71       0.0001
     30  CH2       10.4480  119.4460    1.6450 C.ar   71  TRP71       0.0015
     31  N         14.4630  117.2810    3.5520 N.3   112  MET112     -0.1245
     32  CA        13.7260  116.2940    2.7850 C.3   112  MET112      0.1570
     33  C         14.6520  115.1040    2.6250 C.2   112  MET112      0.2261
     34  O         15.6410  115.1650    1.8890 O.2   112  MET112     -0.2867
     35  CB        13.3040  116.8110    1.4210 C.3   112  MET112      0.0387
     36  CG        12.5160  115.7360    0.6520 C.3   112  MET112      0.0595
     37  SD        12.3920  116.0610   -1.0490 S.3   112  MET112     -0.1393
     38  CE        14.0790  115.7420   -1.6170 C.3   112  MET112      0.0692
     39  N         15.1550  111.5570    1.0820 N.3   114  ALA114     -0.1245
     40  CA        14.6650  110.8200   -0.0640 C.3   114  ALA114      0.1562
     41  C         15.2730  109.4240   -0.0970 C.2   114  ALA114      0.2260
     42  O         16.4640  109.2270    0.2090 O.2   114  ALA114     -0.2867
     43  CB        15.0060  111.5370   -1.3750 C.3   114  ALA114      0.0290
     44  N         15.1710  106.4060   -2.9660 N.3   116  TYR116     -0.1241
     45  CA        14.8590  105.7480   -4.2110 C.3   116  TYR116      0.1605
     46  C         14.9710  104.2570   -3.9730 C.2   116  TYR116      0.2264
     47  O         16.0610  103.7820   -3.6080 O.2   116  TYR116     -0.2867
     48  CB        15.8250  106.1660   -5.3080 C.3   116  TYR116      0.0534
     49  CG        15.6840  107.6040   -5.6790 C.ar  116  TYR116     -0.0201
     50  CD1       16.1800  108.6040   -4.8700 C.ar  116  TYR116     -0.0009
     51  CD2       15.0270  107.9600   -6.8280 C.ar  116  TYR116     -0.0009
     52  CE1       16.0200  109.9440   -5.2040 C.ar  116  TYR116      0.0417
     53  CE2       14.8520  109.2730   -7.1760 C.ar  116  TYR116      0.0417
     54  CZ        15.3670  110.2700   -6.3800 C.ar  116  TYR116      0.1957
     55  OH        15.2120  111.5800   -6.7490 O.3   116  TYR116     -0.2866
     56  N         14.2620  110.3030  -11.2600 N.3   123  TYR123     -0.1241
     57  CA        13.4860  111.5160  -11.0520 C.3   123  TYR123      0.1605
     58  C         13.5960  112.3170  -12.3380 C.2   123  TYR123      0.2264
     59  O         14.7080  112.5700  -12.8100 O.2   123  TYR123     -0.2867
     60  CB        13.9940  112.3030   -9.8220 C.3   123  TYR123      0.0534
     61  CG        12.9850  113.3000   -9.3150 C.ar  123  TYR123     -0.0201
     62  CD1       12.7400  114.4790  -10.0120 C.ar  123  TYR123     -0.0009
     63  CD2       12.2750  113.0710   -8.1400 C.ar  123  TYR123     -0.0009
     64  CE1       11.8100  115.3850   -9.5750 C.ar  123  TYR123      0.0417
     65  CE2       11.3380  113.9780   -7.6860 C.ar  123  TYR123      0.0417
     66  CZ        11.0970  115.1290   -8.4140 C.ar  123  TYR123      0.1957
     67  OH        10.1800  116.0700   -7.9940 O.3   123  TYR123     -0.2866
     68  N         13.7840  118.4250  -14.0890 N.3   126  HIS126     -0.1241
     69  CA        12.9950  119.4420  -13.4140 C.3   126  HIS126      0.1621
     70  C         13.9280  120.5670  -12.9950 C.2   126  HIS126      0.2264
     71  O         15.1560  120.4290  -12.9900 O.2   126  HIS126     -0.2867
     72  CB        12.2510  118.8700  -12.2060 C.3   126  HIS126      0.0745
     73  CG        13.1740  118.3920  -11.1340 C.ar  126  HIS126      0.0817
     74  ND1       13.9590  117.2750  -11.2910 N.ar  126  HIS126     -0.2268
     75  CD2       13.5070  118.9230   -9.9330 C.ar  126  HIS126      0.1154
     76  CE1       14.7320  117.1320  -10.2260 C.ar  126  HIS126      0.1986
     77  NE2       14.4680  118.1200   -9.3900 N.ar  126  HIS126     -0.2212
     78  N         14.1300  122.9460   -9.5160 N.3   128  ASP128     -0.1239
     79  CA        13.5760  122.9310   -8.1670 C.3   128  ASP128      0.1674
     80  C         12.6490  124.1210   -7.9500 C.2   128  ASP128      0.2266
     81  O         11.5070  123.9530   -7.5170 O.2   128  ASP128     -0.2867
     82  CB        14.7000  122.9100   -7.1080 C.3   128  ASP128      0.1410
     83  CG        15.3460  121.5530   -6.9200 C.2   128  ASP128      0.3668
     84  OD1       14.9020  120.5130   -7.4640 O.co2 128  ASP128     -0.2456
     85  OD2       16.3280  121.5540   -6.1790 O.co2 128  ASP128     -0.2456
     86  N         13.2510  129.9190   -2.8380 N.3   135  ARG135     -0.1245
     87  CA        14.4160  129.0620   -2.6470 C.3   135  ARG135      0.1563
     88  C         15.5000  129.4330   -3.6440 C.2   135  ARG135      0.2260
     89  O         15.2800  129.3740   -4.8510 O.2   135  ARG135     -0.2867
     90  CB        14.0100  127.6090   -2.8060 C.3   135  ARG135      0.0307
     91  CG        13.0060  127.2070   -1.7370 C.3   135  ARG135      0.0489
     92  CD        12.5940  125.7930   -1.9810 C.3   135  ARG135      0.2205
     93  NE        11.6790  125.7390   -3.1070 N.pl3 135  ARG135     -0.0865
     94  CZ        11.4600  124.6580   -3.8310 C.cat 135  ARG135      0.5346
     95  NH1       12.1060  123.5450   -3.5570 N.pl3 135  ARG135      0.1354
     96  NH2       10.6050  124.6950   -4.8410 N.pl3 135  ARG135      0.1354
     97  N         22.3260  119.2090   -1.0390 N.3   140  ILE140     -0.1245
     98  CA        22.0460  117.7660   -0.9720 C.3   140  ILE140      0.1561
     99  C         23.2280  117.0350   -0.3500 C.2   140  ILE140      0.2260
    100  O         24.3810  117.2510   -0.7340 O.2   140  ILE140     -0.2867
    101  CB        21.7460  117.1410   -2.3540 C.3   140  ILE140      0.0252
    102  CG1       20.7030  117.9610   -3.1020 C.3   140  ILE140      0.0019
    103  CG2       21.2480  115.7270   -2.1640 C.3   140  ILE140      0.0019
    104  CD1       20.2280  117.2630   -4.4370 C.3   140  ILE140      0.0001
    105  N         24.6200  113.1160    0.3250 N.3   142  TYR142     -0.1241
    106  CA        24.4950  111.7390   -0.1040 C.3   142  TYR142      0.1605
    107  C         25.2420  110.8340    0.8660 C.2   142  TYR142      0.2264
    108  O         26.3350  111.1870    1.3440 O.2   142  TYR142     -0.2867
    109  CB        25.0680  111.5540   -1.5150 C.3   142  TYR142      0.0534
    110  CG        24.3220  112.3330   -2.5790 C.ar  142  TYR142     -0.0201
    111  CD1       23.0900  111.9080   -3.0280 C.ar  142  TYR142     -0.0009
    112  CD2       24.8820  113.4690   -3.1540 C.ar  142  TYR142     -0.0009
    113  CE1       22.4180  112.5840   -4.0110 C.ar  142  TYR142      0.0417
    114  CE2       24.2100  114.1640   -4.1480 C.ar  142  TYR142      0.0417
    115  CZ        22.9930  113.7200   -4.5800 C.ar  142  TYR142      0.1957
    116  OH        22.3350  114.4350   -5.5580 O.3   142  TYR142     -0.2866
    117  N         23.0000  111.8510  -10.5510 N.3   156  LEU156     -0.1245
    118  CA        22.3610  113.1490  -10.6770 C.3   156  LEU156      0.1561
    119  C         22.9860  113.8710  -11.8610 C.2   156  LEU156      0.2260
    120  O         24.1900  114.0850  -11.8900 O.2   156  LEU156     -0.2867
    121  CB        22.5460  113.9780   -9.4170 C.3   156  LEU156      0.0270
    122  CG        22.0310  115.4080   -9.5810 C.3   156  LEU156      0.0019
    123  CD1       20.5010  115.4350   -9.5280 C.3   156  LEU156      0.0001
    124  CD2       22.6290  116.3010   -8.5450 C.3   156  LEU156      0.0001
    125  N         17.7700  119.5590  -13.6960 N.3   187  HIS187     -0.1241
    126  CA        18.4910  118.3500  -13.3110 C.3   187  HIS187      0.1621
    127  C         17.5330  117.1790  -13.2420 C.2   187  HIS187      0.2264
    128  O         16.3140  117.3490  -13.1870 O.2   187  HIS187     -0.2867
    129  CB        19.2170  118.5290  -11.9680 C.3   187  HIS187      0.0745
    130  CG        18.3460  119.0040  -10.8370 C.ar  187  HIS187      0.0817
    131  ND1       17.8600  120.2940  -10.7390 N.ar  187  HIS187     -0.2268
    132  CD2       17.9330  118.3660   -9.7100 C.ar  187  HIS187      0.1154
    133  CE1       17.1590  120.4140   -9.6220 C.ar  187  HIS187      0.1986
    134  NE2       17.1940  119.2630   -8.9740 N.ar  187  HIS187     -0.2212
    135  N         17.4970  112.6610  -11.9720 N.3   189  VAL189     -0.1245
    136  CA        18.1510  111.4690  -11.4450 C.3   189  VAL189      0.1561
    137  C         17.8880  110.3340  -12.4070 C.2   189  VAL189      0.2260
    138  O         16.7320  109.9840  -12.6620 O.2   189  VAL189     -0.2867
    139  CB        17.6480  111.1040  -10.0460 C.3   189  VAL189      0.0252
    140  CG1       18.4010  109.8650   -9.5250 C.3   189  VAL189      0.0019
    141  CG2       17.8200  112.2680   -9.1030 C.3   189  VAL189      0.0019
    142  N         18.8990  104.1180   -2.8100 N.3   196  ARG196     -0.1245
    143  CA        19.6750  105.3520   -2.9140 C.3   196  ARG196      0.1563
    144  C         19.0650  106.3940   -1.9830 C.2   196  ARG196      0.2260
    145  O         17.8920  106.7430   -2.1270 O.2   196  ARG196     -0.2867
    146  CB        19.6550  105.8420   -4.3570 C.3   196  ARG196      0.0307
    147  CG        20.4070  107.1330   -4.7110 C.3   196  ARG196      0.0489
    148  CD        19.9830  107.6000   -6.1150 C.3   196  ARG196      0.2205
    149  NE        20.6810  108.7630   -6.6800 N.pl3 196  ARG196     -0.0865
    150  CZ        20.3770  110.0300   -6.3980 C.cat 196  ARG196      0.5346
    151  NH1       19.4580  110.3310   -5.4880 N.pl3 196  ARG196      0.1354
    152  NH2       21.0060  111.0050   -7.0170 N.pl3 196  ARG196      0.1354
    153  N         19.3120  110.2660   -0.0680 N.3   198  ALA198     -0.1245
    154  CA        19.8210  111.6300   -0.0900 C.3   198  ALA198      0.1562
    155  C         19.0570  112.4680    0.9270 C.2   198  ALA198      0.2260
    156  O         17.8950  112.1920    1.2020 O.2   198  ALA198     -0.2867
    157  CB        19.6530  112.2940   -1.4700 C.3   198  ALA198      0.0290
    158  N         18.1350  116.5620    1.4680 N.3   200  THR200     -0.1218
    159  CA        18.1410  117.8860    0.8470 C.3   200  THR200      0.1862
    160  C         17.5630  118.9510    1.7680 C.2   200  THR200      0.2287
    161  O         16.5650  118.7380    2.4480 O.2   200  THR200     -0.2866
    162  CB        17.3030  117.8990   -0.4430 C.3   200  THR200      0.1770
    163  OG1       17.7990  116.9470   -1.3950 O.3   200  THR200     -0.2211
    164  CG2       17.3120  119.2800   -1.0910 C.3   200  THR200      0.0375
    165  N         16.7200  123.2950    1.2880 N.3   202  TRP202     -0.1241
    166  CA        16.7220  124.4570    0.3930 C.3   202  TRP202      0.1605
    167  C         16.7880  125.7280    1.2300 C.2   202  TRP202      0.2264
    168  O         16.0320  125.8650    2.2000 O.2   202  TRP202     -0.2867
    169  CB        15.4750  124.5250   -0.4910 C.3   202  TRP202      0.0550
    170  CG        15.3880  123.5320   -1.5560 C.ar  202  TRP202      0.0003
    171  CD1       15.8570  123.6310   -2.8230 C.ar  202  TRP202      0.0946
    172  CD2       14.7120  122.2830   -1.4690 C.ar  202  TRP202      0.0152
    173  NE1       15.5430  122.4910   -3.5380 N.ar  202  TRP202     -0.2442
    174  CE2       14.8310  121.6520   -2.7190 C.ar  202  TRP202      0.0810
    175  CE3       14.0280  121.6250   -0.4460 C.ar  202  TRP202      0.0012
    176  CZ2       14.3170  120.3960   -2.9650 C.ar  202  TRP202      0.0191
    177  CZ3       13.5020  120.3630   -0.7000 C.ar  202  TRP202      0.0001
    178  CH2       13.6390  119.7730   -1.9470 C.ar  202  TRP202      0.0015
@<TRIPOS>BOND
     1    68    69    1
     2   125   126    1
     3    69    70    1
     4    69    72    1
     5   126   127    1
     6   126   129    1
     7   127   128    2
     8    70    71    2
     9    59    58    2
    10   138   137    2
    11   137   136    1
    12    58    57    1
    13    72    73    1
    14   135   136    1
    15   129   130    1
    16   120   119    2
    17   119   118    1
    18   136   139    1
    19    74    73   ar
    20    74    76   ar
    21    56    57    1
    22    73    75   ar
    23    57    60    1
    24   130   131   ar
    25   130   132   ar
    26   131   133   ar
    27   118   117    1
    28   118   121    1
    29    76    77   ar
    30   139   140    1
    31   139   141    1
    32    62    64   ar
    33    62    61   ar
    34    75    77   ar
    35    60    61    1
    36   132   134   ar
    37   133   134   ar
    38   122   123    1
    39   122   121    1
    40   122   124    1
    41    64    66   ar
    42    78    79    1
    43    61    63   ar
    44    66    67    1
    45    66    65   ar
    46    79    80    1
    47    79    82    1
    48    63    65   ar
    49    80    81    2
    50    84    83   ar
    51    53    51   ar
    52    53    54   ar
    53    82    83    1
    54   152   150    1
    55    83    85   ar
    56    51    49   ar
    57    55    54    1
    58   149   150    2
    59   149   148    1
    60     7     6   ar
    61   150   151    1
    62    54    52   ar
    63   148   147    1
    64     1     2    1
    65    49    48    1
    66    49    50   ar
    67   116   115    1
    68     6     5    1
    69     6     8   ar
    70    48    45    1
    71    52    50   ar
    72     5     2    1
    73    89    88    2
    74    96    94    1
    75     2     3    1
    76   147   146    1
    77   115   114   ar
    78   115   113   ar
    79   104   102    1
    80   146   143    1
    81    45    46    1
    82    45    44    1
    83   114   112   ar
    84   113   111   ar
    85    46    47    2
    86     4     3    2
    87    94    95    1
    88    94    93    2
    89    88    87    1
    90   173   171   ar
    91   173   174   ar
    92   112   110   ar
    93    93    92    1
    94   102   101    1
    95   111   110   ar
    96   176   174   ar
    97   176   178   ar
    98   143   142    1
    99   143   144    1
   100    86    87    1
   101   171   170   ar
   102    90    87    1
   103    90    91    1
   104   174   172   ar
   105   110   109    1
   106   101   103    1
   107   101    98    1
   108   145   144    2
   109    92    91    1
   110   178   177   ar
   111    38    37    1
   112   170   172   ar
   113   170   169    1
   114   109   106    1
   115   157   154    1
   116   172   175   ar
   117   163   162    1
   118    43    40    1
   119   164   162    1
   120    37    36    1
   121    97    98    1
   122    98    99    1
   123    15    13    1
   124   100    99    2
   125   177   175   ar
   126   169   166    1
   127   162   159    1
   128    16    14    1
   129   106   105    1
   130   106   107    1
   131    41    40    1
   132    41    42    2
   133   154   153    1
   134   154   155    1
   135    40    39    1
   136    14    13    1
   137     9    10    1
   138   166   167    1
   139   166   165    1
   140    13    10    1
   141    36    35    1
   142   159   158    1
   143   159   160    1
   144   107   108    2
   145   155   156    2
   146    10    11    1
   147   167   168    2
   148    35    32    1
   149    28    30   ar
   150    28    26   ar
   151    30    29   ar
   152   160   161    2
   153    34    33    2
   154    11    12    2
   155    26    25   ar
   156    26    24   ar
   157    33    32    1
   158    25    23   ar
   159    32    31    1
   160    29    27   ar
   161    24    27   ar
   162    24    22   ar
   163    23    22   ar
   164    22    21    1
   165    17    18    1
   166    21    18    1
   167    18    19    1
   168    19    20    2
