@<TRIPOS>MOLECULE
tmp/5oxfA00.pdb
 126 120 0 0 0
SMALL
GASTEIGER

@<TRIPOS>ATOM
      1  N         -6.1950   72.7460  -57.6240 N.3   169  MET169     -0.1230
      2  CA        -5.6630   74.0720  -57.3450 C.3   169  MET169      0.1702
      3  C         -5.9260   74.5090  -55.9110 C.2   169  MET169      0.2592
      4  O         -5.0080   74.9480  -55.2090 O.2   169  MET169     -0.2718
      5  CB        -6.2670   75.0430  -58.3450 C.3   169  MET169      0.0401
      6  CG        -6.3180   74.3770  -59.6920 C.3   169  MET169      0.0596
      7  SD        -6.2910   75.5650  -61.0030 S.3   169  MET169     -0.1393
      8  CE        -4.7570   76.3710  -60.5670 C.3   169  MET169      0.0692
      9  N         -7.1800   74.4120  -55.4630 N.am  170  ASN170     -0.1974
     10  CA        -7.5080   74.8360  -54.1070 C.3   170  ASN170      0.1688
     11  C         -6.7830   73.9910  -53.0700 C.2   170  ASN170      0.2292
     12  O         -6.4840   74.4800  -51.9740 O.2   170  ASN170     -0.2864
     13  CB        -9.0190   74.7750  -53.8780 C.3   170  ASN170      0.1181
     14  CG        -9.5940   73.3950  -54.1360 C.2   170  ASN170      0.2629
     15  OD1       -9.1010   72.6440  -54.9800 O.2   170  ASN170     -0.2716
     16  ND2      -10.6300   73.0430  -53.3850 N.am  170  ASN170     -0.0877
     17  N         -3.7350   73.0810  -53.0050 N.3   172  GLY172     -0.1210
     18  CA        -2.5840   73.8980  -52.6710 C.3   172  GLY172      0.1956
     19  C         -1.2370   73.2190  -52.8050 C.2   172  GLY172      0.2612
     20  O         -0.8670   72.3790  -51.9780 O.2   172  GLY172     -0.2717
     21  N         -0.4840   73.5970  -53.8350 N.am  173  LYS173     -0.1965
     22  CA         0.8420   73.0480  -54.0900 C.3   173  LYS173      0.1728
     23  C          1.9560   74.0720  -53.9470 C.2   173  LYS173      0.2617
     24  O          3.0420   73.7280  -53.4760 O.2   173  LYS173     -0.2715
     25  CB         0.8920   72.4380  -55.4950 C.3   173  LYS173      0.0311
     26  CG         0.5170   73.4150  -56.5890 C.3   173  LYS173      0.0038
     27  CD        -0.2830   72.7590  -57.6890 C.3   173  LYS173      0.0206
     28  CE        -0.8630   73.8160  -58.6040 C.3   173  LYS173      0.1093
     29  NZ        -2.0510   74.4530  -57.9870 N.3   173  LYS173     -0.1314
     30  N          1.7120   75.3260  -54.3450 N.am  174  SER174     -0.1936
     31  CA         2.7380   76.3610  -54.2440 C.3   174  SER174      0.2055
     32  C          3.1540   76.5830  -52.7950 C.2   174  SER174      0.2643
     33  O          4.3450   76.7440  -52.4970 O.2   174  SER174     -0.2714
     34  CB         2.2240   77.6650  -54.8570 C.3   174  SER174      0.2130
     35  OG         1.5960   77.4410  -56.1110 O.3   174  SER174     -0.2179
     36  N          2.1830   76.5880  -51.8800 N.am  175  SER175     -0.1949
     37  CA         2.4860   76.7920  -50.4670 C.3   175  SER175      0.1924
     38  C          3.2940   75.6340  -49.8940 C.2   175  SER175      0.2314
     39  O          4.1800   75.8440  -49.0580 O.2   175  SER175     -0.2863
     40  CB         1.1910   76.9690  -49.6870 C.3   175  SER175      0.2116
     41  OG         0.3930   75.8040  -49.8040 O.3   175  SER175     -0.2180
     42  N          3.7390   82.6640  -55.4700 N.3   187  GLY187     -0.1210
     43  CA         2.3570   82.4000  -55.1260 C.3   187  GLY187      0.1956
     44  C          2.1220   81.7630  -53.7700 C.2   187  GLY187      0.2612
     45  O          2.6010   80.6620  -53.4950 O.2   187  GLY187     -0.2717
     46  N          1.3660   82.4500  -52.9110 N.am  188  VAL188     -0.1965
     47  CA         0.8310   81.8510  -51.6950 C.3   188  VAL188      0.1727
     48  C         -0.6440   82.1810  -51.5070 C.2   188  VAL188      0.2617
     49  O         -1.2370   81.7660  -50.5100 O.2   188  VAL188     -0.2715
     50  CB         1.6370   82.2760  -50.4470 C.3   188  VAL188      0.0290
     51  CG1        1.3270   83.7180  -50.0400 C.3   188  VAL188      0.0023
     52  CG2        1.4460   81.2920  -49.2930 C.3   188  VAL188      0.0023
     53  N         -1.2550   82.8900  -52.4430 N.am  189  SER189     -0.1936
     54  CA        -2.6190   83.3710  -52.2850 C.3   189  SER189      0.2055
     55  C         -3.5280   82.6380  -53.2650 C.2   189  SER189      0.2643
     56  O         -3.2790   82.6510  -54.4750 O.2   189  SER189     -0.2714
     57  CB        -2.6810   84.8830  -52.5090 C.3   189  SER189      0.2130
     58  OG        -2.2360   85.6030  -51.3700 O.3   189  SER189     -0.2179
     59  N         -4.5850   82.0170  -52.7450 N.am  190  ASN190     -0.1957
     60  CA        -5.5030   81.2680  -53.5960 C.3   190  ASN190      0.1819
     61  C         -6.2320   82.1940  -54.5690 C.2   190  ASN190      0.2621
     62  O         -6.7440   83.2520  -54.1890 O.2   190  ASN190     -0.2715
     63  CB        -6.5020   80.4830  -52.7380 C.3   190  ASN190      0.1195
     64  CG        -7.5900   81.3550  -52.1520 C.2   190  ASN190      0.2630
     65  OD1       -8.7440   81.3170  -52.5820 O.2   190  ASN190     -0.2716
     66  ND2       -7.2200   82.1610  -51.1680 N.am  190  ASN190     -0.0877
     67  N         -6.2620   81.7930  -55.8360 N.am  191  ILE191     -0.1977
     68  CA        -6.9060   82.5740  -56.8910 C.3   191  ILE191      0.1596
     69  C         -7.6330   81.6060  -57.8220 C.2   191  ILE191      0.2287
     70  O         -7.0910   80.5420  -58.1580 O.2   191  ILE191     -0.2864
     71  CB        -5.8810   83.4730  -57.6170 C.3   191  ILE191      0.0276
     72  CG1       -6.5570   84.6300  -58.3720 C.3   191  ILE191      0.0022
     73  CG2       -4.9290   82.6730  -58.4960 C.3   191  ILE191      0.0022
     74  CD1       -6.9590   85.7940  -57.4890 C.3   191  ILE191      0.0001
     75  N         -2.0810   67.2950  -48.0100 N.3   350  THR350     -0.1203
     76  CA        -1.6400   68.6100  -47.5770 C.3   350  THR350      0.1994
     77  C         -2.6420   69.2160  -46.6000 C.2   350  THR350      0.2617
     78  O         -3.8060   68.8130  -46.5310 O.2   350  THR350     -0.2717
     79  CB        -1.4300   69.5420  -48.7740 C.3   350  THR350      0.1784
     80  OG1       -0.8260   70.7640  -48.3310 O.3   350  THR350     -0.2211
     81  CG2       -2.7450   69.8500  -49.4700 C.3   350  THR350      0.0376
     82  N         -2.1610   70.1940  -45.8280 N.am  351  LYS351     -0.1979
     83  CA        -2.9080   70.7650  -44.7110 C.3   351  LYS351      0.1596
     84  C         -3.2610   69.7000  -43.6780 C.2   351  LYS351      0.2287
     85  O         -4.4400   69.4240  -43.4420 O.2   351  LYS351     -0.2864
     86  CB        -4.1770   71.4810  -45.1940 C.3   351  LYS351      0.0298
     87  CG        -3.9520   72.4910  -46.3130 C.3   351  LYS351      0.0038
     88  CD        -5.0880   73.4950  -46.3870 C.3   351  LYS351      0.0206
     89  CE        -5.3260   73.9150  -47.8170 C.3   351  LYS351      0.1093
     90  NZ        -6.3580   74.9740  -47.9150 N.3   351  LYS351     -0.1314
     91  N         -2.9790   69.9290  -40.5230 N.3   353  ASP353     -0.1225
     92  CA        -3.8140   70.5890  -39.5350 C.3   353  ASP353      0.1805
     93  C         -5.2510   70.6420  -40.0520 C.2   353  ASP353      0.2597
     94  O         -5.5910   70.0590  -41.0850 O.2   353  ASP353     -0.2718
     95  CB        -3.2690   71.9800  -39.2160 C.3   353  ASP353      0.1424
     96  CG        -2.9740   72.7890  -40.4560 C.2   353  ASP353      0.3668
     97  OD1       -3.3240   72.3360  -41.5640 O.co2 353  ASP353     -0.2456
     98  OD2       -2.4120   73.8950  -40.3100 O.co2 353  ASP353     -0.2456
     99  N         -6.1230   71.3040  -39.2950 N.am  354  LEU354     -0.1979
    100  CA        -7.5300   71.4790  -39.6430 C.3   354  LEU354      0.1596
    101  C         -8.2860   70.1610  -39.6320 C.2   354  LEU354      0.2287
    102  O         -9.4030   70.0850  -40.1640 O.2   354  LEU354     -0.2864
    103  CB        -7.6940   72.1450  -41.0150 C.3   354  LEU354      0.0297
    104  CG        -7.0660   73.5180  -41.2490 C.3   354  LEU354      0.0022
    105  CD1       -7.1450   73.8380  -42.7270 C.3   354  LEU354      0.0001
    106  CD2       -7.7640   74.5830  -40.4340 C.3   354  LEU354      0.0001
    107  N          1.5780   69.3000  -43.0900 N.3   392  SER392     -0.1202
    108  CA         0.9610   70.6240  -43.0690 C.3   392  SER392      0.2020
    109  C          2.0480   71.6680  -43.2790 C.2   392  SER392      0.2619
    110  O          2.9740   71.7710  -42.4670 O.2   392  SER392     -0.2717
    111  CB         0.2290   70.8790  -41.7500 C.3   392  SER392      0.2103
    112  OG        -0.2880   72.1980  -41.7050 O.3   392  SER392     -0.2182
    113  N          1.9300   72.4460  -44.3590 N.am  393  ALA393     -0.1965
    114  CA         2.9880   73.3860  -44.7200 C.3   393  ALA393      0.1728
    115  C          2.9590   74.6470  -43.8630 C.2   393  ALA393      0.2616
    116  O          4.0040   75.2840  -43.6730 O.2   393  ALA393     -0.2715
    117  CB         2.8840   73.7540  -46.2000 C.3   393  ALA393      0.0334
    118  N          1.7830   75.0280  -43.3500 N.am  394  LYS394     -0.1977
    119  CA         1.6700   76.2800  -42.6040 C.3   394  LYS394      0.1596
    120  C          2.5020   76.2470  -41.3300 C.2   394  LYS394      0.2287
    121  O          3.1840   77.2230  -41.0070 O.2   394  LYS394     -0.2864
    122  CB         0.2090   76.5850  -42.2630 C.3   394  LYS394      0.0298
    123  CG         0.0370   77.8500  -41.4200 C.3   394  LYS394      0.0038
    124  CD        -1.3500   78.4600  -41.5480 C.3   394  LYS394      0.0206
    125  CE        -1.3280   79.9190  -41.1160 C.3   394  LYS394      0.1093
    126  NZ        -0.9920   80.0790  -39.6750 N.3   394  LYS394     -0.1314
@<TRIPOS>BOND
     1     7     8    1
     2     7     6    1
     3     6     5    1
     4    28    29    1
     5    28    27    1
     6    73    71    1
     7    72    71    1
     8    72    74    1
     9     5     2    1
    10    70    69    2
    11    69    68    1
    12    27    26    1
    13     1     2    1
    14    71    68    1
    15     2     3    1
    16    68    67    1
    17    26    25    1
    18    35    34    1
    19     3     9   am
    20     3     4    2
    21    67    61   am
    22    25    22    1
    23    42    43    1
    24     9    10    1
    25    43    44    1
    26    15    14    2
    27    34    31    1
    28    61    62    2
    29    61    60    1
    30    56    55    2
    31    30    31    1
    32    30    23   am
    33    31    32    1
    34    14    13    1
    35    14    16   am
    36    10    13    1
    37    10    11    1
    38    22    23    1
    39    22    21    1
    40    23    24    2
    41    21    19   am
    42    44    45    2
    43    44    46   am
    44    60    59    1
    45    60    63    1
    46    55    59   am
    47    55    54    1
    48    11    12    2
    49    17    18    1
    50    46    47    1
    51    19    18    1
    52    19    20    2
    53    32    33    2
    54    32    36   am
    55    63    64    1
    56    65    64    2
    57    57    54    1
    58    57    58    1
    59    53    54    1
    60    53    48   am
    61    64    66   am
    62    36    37    1
    63    47    48    1
    64    47    50    1
    65    48    49    2
    66    37    38    1
    67    37    40    1
    68    50    51    1
    69    50    52    1
    70    38    39    2
    71    41    40    1
    72    81    79    1
    73    79    80    1
    74    79    76    1
    75    75    76    1
    76    90    89    1
    77    89    88    1
    78    76    77    1
    79    77    78    2
    80    77    82   am
    81    88    87    1
    82    87    86    1
    83   117   114    1
    84    82    83    1
    85    86    83    1
    86   114   113    1
    87   114   115    1
    88    83    84    1
    89   113   109   am
    90   115   116    2
    91   115   118   am
    92    84    85    2
    93   118   119    1
    94   109   108    1
    95   109   110    2
    96   107   108    1
    97   108   111    1
    98   105   104    1
    99   119   122    1
   100   119   120    1
   101   122   123    1
   102   111   112    1
   103    97    96   ar
   104   124   123    1
   105   124   125    1
   106   120   121    2
   107   104   103    1
   108   104   106    1
   109   125   126    1
   110    94    93    2
   111   103   100    1
   112    91    92    1
   113    96    98   ar
   114    96    95    1
   115   102   101    2
   116    93    92    1
   117    93    99   am
   118   100   101    1
   119   100    99    1
   120    92    95    1
