@<TRIPOS>MOLECULE
tmp/5oxfC00.pdb
 123 120 0 0 0
SMALL
GASTEIGER

@<TRIPOS>ATOM
      1  N          7.4790   32.2970  -90.3720 N.3    72  GLN72      -0.1231
      2  CA         7.5220   33.6180  -89.7640 C.3    72  GLN72       0.1698
      3  C          6.1080   34.1290  -89.4920 C.2    72  GLN72       0.2592
      4  O          5.1350   33.3680  -89.5220 O.2    72  GLN72      -0.2718
      5  CB         8.2980   34.5820  -90.6650 C.3    72  GLN72       0.0381
      6  CG         9.1490   35.5890  -89.9110 C.3    72  GLN72       0.0905
      7  CD        10.2620   34.9380  -89.1200 C.2    72  GLN72       0.2608
      8  OE1       10.7520   33.8660  -89.4760 O.2    72  GLN72      -0.2717
      9  NE2       10.6690   35.5870  -88.0370 N.am   72  GLN72      -0.0878
     10  N          6.0030   35.4260  -89.1640 N.am   73  PHE73      -0.1962
     11  CA         4.7100   36.0390  -88.8600 C.3    73  PHE73       0.1771
     12  C          3.6520   35.6550  -89.8890 C.2    73  PHE73       0.2620
     13  O          2.5480   35.2390  -89.5290 O.2    73  PHE73      -0.2715
     14  CB         4.8620   37.5650  -88.7910 C.3    73  PHE73       0.0574
     15  CG         5.6510   38.0590  -87.5990 C.ar   73  PHE73      -0.0200
     16  CD1        7.0260   38.2540  -87.6930 C.ar   73  PHE73      -0.0042
     17  CD2        5.0230   38.3380  -86.3970 C.ar   73  PHE73      -0.0042
     18  CE1        7.7470   38.7110  -86.6090 C.ar   73  PHE73      -0.0003
     19  CE2        5.7430   38.7950  -85.3090 C.ar   73  PHE73      -0.0003
     20  CZ         7.1070   38.9800  -85.4190 C.ar   73  PHE73      -0.0000
     21  N          3.9700   35.7810  -91.1740 N.am   74  SER74      -0.1936
     22  CA         3.2330   35.0700  -92.2210 C.3    74  SER74       0.2055
     23  C          4.1570   35.0510  -93.4330 C.2    74  SER74       0.2644
     24  O          4.1370   35.9740  -94.2570 O.2    74  SER74      -0.2714
     25  CB         1.9020   35.7250  -92.5330 C.3    74  SER74       0.2130
     26  OG         1.5620   35.5610  -93.9060 O.3    74  SER74      -0.2179
     27  N          4.9730   34.0020  -93.5380 N.am   75  SER75      -0.1935
     28  CA         5.9630   33.8820  -94.5960 C.3    75  SER75       0.2055
     29  C          5.5340   32.9360  -95.7170 C.2    75  SER75       0.2644
     30  O          6.3730   32.5360  -96.5270 O.2    75  SER75      -0.2714
     31  CB         7.3030   33.4360  -94.0060 C.3    75  SER75       0.2130
     32  OG         7.2550   32.0810  -93.5910 O.3    75  SER75      -0.2179
     33  N          4.2550   32.5800  -95.7950 N.am   76  GLY76      -0.1939
     34  CA         3.8080   31.7010  -96.8610 C.3    76  GLY76       0.2014
     35  C          4.1300   30.2290  -96.6980 C.2    76  GLY76       0.2639
     36  O          4.2660   29.5200  -97.7030 O.2    76  GLY76      -0.2714
     37  N          4.2690   29.7400  -95.4610 N.am   77  LYS77      -0.1963
     38  CA         4.5720   28.3240  -95.2710 C.3    77  LYS77       0.1728
     39  C          3.3920   27.4360  -95.6470 C.2    77  LYS77       0.2617
     40  O          3.5940   26.3150  -96.1310 O.2    77  LYS77      -0.2715
     41  CB         5.0180   28.0580  -93.8280 C.3    77  LYS77       0.0311
     42  CG         3.8990   27.9160  -92.8040 C.3    77  LYS77       0.0038
     43  CD         4.4620   27.6750  -91.4090 C.3    77  LYS77       0.0206
     44  CE         3.4260   27.9500  -90.3310 C.3    77  LYS77       0.1093
     45  NZ         3.1440   29.4010  -90.1860 N.3    77  LYS77      -0.1314
     46  N          2.1610   27.9040  -95.4200 N.am   78  SER78      -0.1936
     47  CA         0.9990   27.0730  -95.7180 C.3    78  SER78       0.2055
     48  C          0.8720   26.8170  -97.2130 C.2    78  SER78       0.2643
     49  O          0.5390   25.7040  -97.6270 O.2    78  SER78      -0.2714
     50  CB        -0.2780   27.7150  -95.1750 C.3    78  SER78       0.2130
     51  OG        -0.1350   28.0460  -93.8040 O.3    78  SER78      -0.2179
     52  N          1.1310   27.8330  -98.0390 N.am   79  SER79      -0.1949
     53  CA         1.0810   27.6380  -99.4840 C.3    79  SER79       0.1924
     54  C          2.1910   26.7050  -99.9570 C.2    79  SER79       0.2314
     55  O          1.9910   25.9180 -100.8880 O.2    79  SER79      -0.2863
     56  CB         1.1690   28.9860 -100.1950 C.3    79  SER79       0.2116
     57  OG         2.2390   29.7590  -99.6760 O.3    79  SER79      -0.2180
     58  N         -4.6650   28.8910  -96.9110 N.3    91  PRO91      -0.2116
     59  CA        -3.9460   30.1540  -96.7160 C.3    91  PRO91       0.1372
     60  C         -4.9050   31.3000  -96.3900 C.2    91  PRO91       0.2244
     61  O         -4.5180   32.4670  -96.4380 O.2    91  PRO91      -0.2868
     62  CB        -3.2860   30.3810  -98.0720 C.3    91  PRO91       0.0268
     63  CG        -4.2790   29.8090  -99.0380 C.3    91  PRO91       0.0207
     64  CD        -4.9390   28.6350  -98.3360 C.3    91  PRO91       0.0892
     65  N         -4.6130   34.3860  -90.4950 N.3    93  PRO93      -0.2116
     66  CA        -4.1380   33.4930  -89.4280 C.3    93  PRO93       0.1372
     67  C         -4.7690   33.7070  -88.0620 C.2    93  PRO93       0.2244
     68  O         -4.5260   34.6810  -87.3440 O.2    93  PRO93      -0.2868
     69  CB        -2.6240   33.7540  -89.3840 C.3    93  PRO93       0.0268
     70  CG        -2.3760   34.9860  -90.1500 C.3    93  PRO93       0.0207
     71  CD        -3.5340   35.2100  -91.0700 C.3    93  PRO93       0.0892
     72  N         11.5910   33.6260  -99.3400 N.3   216  ASN216     -0.1225
     73  CA        10.4070   33.4730 -100.1680 C.3   216  ASN216      0.1785
     74  C         10.2880   34.6160 -101.1850 C.2   216  ASN216      0.2597
     75  O         11.1160   35.5320 -101.2420 O.2   216  ASN216     -0.2718
     76  CB         9.1700   33.3760  -99.2710 C.3   216  ASN216      0.1169
     77  CG         8.0900   32.4900  -99.8520 C.2   216  ASN216      0.2627
     78  OD1        8.0070   32.2990 -101.0650 O.2   216  ASN216     -0.2716
     79  ND2        7.2580   31.9320  -98.9810 N.am  216  ASN216     -0.0877
     80  N          9.2390   34.5360 -102.0100 N.am  217  GLN217     -0.1979
     81  CA         8.6040   35.6790 -102.6870 C.3   217  GLN217      0.1601
     82  C          9.5730   36.5270 -103.5190 C.2   217  GLN217      0.2287
     83  O          9.6720   37.7470 -103.3590 O.2   217  GLN217     -0.2864
     84  CB         7.8220   36.5500 -101.6900 C.3   217  GLN217      0.0394
     85  CG         8.6080   37.2360 -100.5740 C.3   217  GLN217      0.0908
     86  CD         7.7090   37.8320  -99.5130 C.2   217  GLN217      0.2608
     87  OE1        7.9870   38.9030  -98.9730 O.2   217  GLN217     -0.2717
     88  NE2        6.6320   37.1250  -99.1910 N.am  217  GLN217     -0.0878
     89  N          9.0210   37.0990 -106.5650 N.3   219  ASP219     -0.1225
     90  CA         8.2550   37.6620 -107.6770 C.3   219  ASP219      0.1805
     91  C          7.9030   39.1390 -107.5330 C.2   219  ASP219      0.2597
     92  O          7.6790   39.7970 -108.5540 O.2   219  ASP219     -0.2718
     93  CB         6.9670   36.8570 -107.8880 C.3   219  ASP219      0.1424
     94  CG         6.0590   36.8680 -106.6720 C.2   219  ASP219      0.3668
     95  OD1        5.0310   37.5740 -106.7040 O.co2 219  ASP219     -0.2456
     96  OD2        6.3760   36.1720 -105.6830 O.co2 219  ASP219     -0.2456
     97  N          7.8420   39.6890 -106.3210 N.am  220  LYS220     -0.1979
     98  CA         7.3960   41.0760 -106.2140 C.3   220  LYS220      0.1596
     99  C          8.4760   42.0890 -106.5750 C.2   220  LYS220      0.2287
    100  O          8.1470   43.2470 -106.8520 O.2   220  LYS220     -0.2864
    101  CB         6.8590   41.3550 -104.8090 C.3   220  LYS220      0.0298
    102  CG         5.4710   40.7850 -104.5750 C.3   220  LYS220      0.0038
    103  CD         4.4180   41.6110 -105.3060 C.3   220  LYS220      0.0206
    104  CE         3.3940   40.7380 -106.0160 C.3   220  LYS220      0.1093
    105  NZ         3.9470   40.1010 -107.2430 N.3   220  LYS220     -0.1314
    106  N          9.1360   31.6630 -104.7580 N.3   247  LYS247     -0.1231
    107  CA         7.9890   30.7480 -104.9000 C.3   247  LYS247      0.1693
    108  C          6.8770   31.2080 -105.8590 C.2   247  LYS247      0.2591
    109  O          6.1850   32.1850 -105.5510 O.2   247  LYS247     -0.2718
    110  CB         7.4190   30.4430 -103.5170 C.3   247  LYS247      0.0285
    111  CG         6.2900   29.4920 -103.4610 C.3   247  LYS247      0.0035
    112  CD         6.0160   29.2040 -101.9970 C.3   247  LYS247      0.0206
    113  CE         4.8540   30.0020 -101.4690 C.3   247  LYS247      0.1093
    114  NZ         3.6140   29.7460 -102.2430 N.3   247  LYS247     -0.1314
    115  N          6.6500   30.5050 -106.9840 N.am  248  GLU248     -0.1979
    116  CA         5.3920   30.5840 -107.7400 C.3   248  GLU248      0.1602
    117  C          5.1680   29.3210 -108.5750 C.2   248  GLU248      0.2287
    118  O          6.0810   28.8650 -109.2660 O.2   248  GLU248     -0.2864
    119  CB         5.3220   31.7760 -108.7140 C.3   248  GLU248      0.0415
    120  CG         6.0650   33.0430 -108.3650 C.3   248  GLU248      0.1163
    121  CD         7.5250   32.9920 -108.7630 C.2   248  GLU248      0.3649
    122  OE1        8.0130   31.9030 -109.1330 O.co2 248  GLU248     -0.2457
    123  OE2        8.1840   34.0510 -108.7170 O.co2 248  GLU248     -0.2457
@<TRIPOS>BOND
     1   118   117    2
     2   122   121   ar
     3   121   123   ar
     4   121   120    1
     5   119   120    1
     6   119   116    1
     7   117   116    1
     8    92    91    2
     9    93    90    1
    10    93    94    1
    11   116   115    1
    12    90    91    1
    13    90    89    1
    14    91    97   am
    15   105   104    1
    16   115   108   am
    17   100    99    2
    18    95    94   ar
    19    94    96   ar
    20    99    98    1
    21    97    98    1
    22    98   101    1
    23   104   103    1
    24   108   109    2
    25   108   107    1
    26   103   102    1
    27   107   106    1
    28   107   110    1
    29   101   102    1
    30    82    83    2
    31    82    81    1
    32   110   111    1
    33   111   112    1
    34    81    80    1
    35    81    84    1
    36   114   113    1
    37    80    74   am
    38   112   113    1
    39    84    85    1
    40    75    74    2
    41    74    73    1
    42    78    77    2
    43    55    54    2
    44    85    86    1
    45    56    57    1
    46    56    53    1
    47    73    72    1
    48    73    76    1
    49    54    53    1
    50    77    76    1
    51    77    79   am
    52    86    88   am
    53    86    87    2
    54    53    52    1
    55    63    64    1
    56    63    62    1
    57    64    58    1
    58    62    59    1
    59    52    48   am
    60    36    35    2
    61    49    48    2
    62    48    47    1
    63    58    59    1
    64    34    35    1
    65    34    33    1
    66    59    60    1
    67    35    37   am
    68    30    29    2
    69    61    60    2
    70    40    39    2
    71    33    29   am
    72    47    46    1
    73    47    50    1
    74    29    28    1
    75    39    46   am
    76    39    38    1
    77    37    38    1
    78    38    41    1
    79    50    51    1
    80    28    31    1
    81    28    27    1
    82    24    23    2
    83    31    32    1
    84    26    25    1
    85    41    42    1
    86    27    23   am
    87    23    22    1
    88    42    43    1
    89    25    22    1
    90    22    21    1
    91    43    44    1
    92    21    12   am
    93    71    65    1
    94    71    70    1
    95     5     6    1
    96     5     2    1
    97    65    66    1
    98     1     2    1
    99    44    45    1
   100    70    69    1
   101     6     7    1
   102    12    13    2
   103    12    11    1
   104     2     3    1
   105     4     3    2
   106     3    10   am
   107     8     7    2
   108    66    69    1
   109    66    67    1
   110    10    11    1
   111     7     9   am
   112    11    14    1
   113    14    15    1
   114    67    68    2
   115    16    15   ar
   116    16    18   ar
   117    15    17   ar
   118    18    20   ar
   119    17    19   ar
   120    20    19   ar
