@<TRIPOS>MOLECULE
tmp/5oxgC00.pdb
 181 172 0 0 0
SMALL
GASTEIGER

@<TRIPOS>ATOM
      1  N        142.4920  -63.4210   76.8300 N.3    16  VAL16      -0.1231
      2  CA       142.7880  -64.5290   75.9170 C.3    16  VAL16       0.1692
      3  C        144.2270  -64.5650   75.3990 C.2    16  VAL16       0.2592
      4  O        144.5850  -65.4900   74.6790 O.2    16  VAL16      -0.2718
      5  CB       141.7960  -64.5760   74.7310 C.3    16  VAL16       0.0266
      6  CG1      140.3850  -64.7950   75.2580 C.3    16  VAL16       0.0020
      7  CG2      141.8730  -63.3260   73.8550 C.3    16  VAL16       0.0020
      8  N        145.0330  -63.5630   75.7530 N.am   17  GLY17      -0.1957
      9  CA       146.4660  -63.5250   75.4430 C.3    17  GLY17       0.1869
     10  C        147.1970  -62.5960   76.4020 C.2    17  GLY17       0.2309
     11  O        146.7040  -61.5050   76.6970 O.2    17  GLY17      -0.2863
     12  N        154.3260  -57.4250   74.9440 N.3    21  TYR21      -0.1241
     13  CA       153.4720  -56.4430   74.2260 C.3    21  TYR21       0.1605
     14  C        152.3300  -55.8130   75.0630 C.2    21  TYR21       0.2264
     15  O        152.0760  -54.6030   74.9620 O.2    21  TYR21      -0.2867
     16  CB       152.8790  -57.0960   72.9560 C.3    21  TYR21       0.0534
     17  CG       152.0320  -58.3590   73.1910 C.ar   21  TYR21      -0.0201
     18  CD1      150.6580  -58.2710   73.4790 C.ar   21  TYR21      -0.0009
     19  CD2      152.6010  -59.6390   73.1170 C.ar   21  TYR21      -0.0009
     20  CE1      149.8890  -59.4100   73.6970 C.ar   21  TYR21       0.0417
     21  CE2      151.8360  -60.7820   73.3350 C.ar   21  TYR21       0.0417
     22  CZ       150.4840  -60.6630   73.6230 C.ar   21  TYR21       0.1957
     23  OH       149.7270  -61.7910   73.8400 O.3    21  TYR21      -0.2866
     24  N        145.4900  -59.2350   75.3640 N.3    24  VAL24      -0.1245
     25  CA       144.3020  -59.2100   74.5270 C.3    24  VAL24       0.1561
     26  C        143.1290  -59.8070   75.2950 C.2    24  VAL24       0.2260
     27  O        143.2340  -60.8990   75.8540 O.2    24  VAL24      -0.2867
     28  CB       144.5050  -59.9540   73.1930 C.3    24  VAL24       0.0252
     29  CG1      143.2480  -59.8650   72.3260 C.3    24  VAL24       0.0019
     30  CG2      145.7150  -59.3910   72.4540 C.3    24  VAL24       0.0019
     31  N        137.5380  -57.7660   70.3590 N.3    35  ALA35      -0.1245
     32  CA       138.8570  -57.9750   70.9600 C.3    35  ALA35       0.1562
     33  C        139.4250  -56.6190   71.3310 C.2    35  ALA35       0.2260
     34  O        139.2880  -55.6560   70.5720 O.2    35  ALA35      -0.2867
     35  CB       139.7840  -58.6750   69.9920 C.3    35  ALA35       0.0290
     36  N        143.0210  -55.1120   72.4920 N.3    37  LYS37      -0.1245
     37  CA       144.4310  -55.2220   72.8090 C.3    37  LYS37       0.1561
     38  C        144.7900  -54.0260   73.6700 C.2    37  LYS37       0.2260
     39  O        144.6130  -52.8810   73.2480 O.2    37  LYS37      -0.2867
     40  CB       145.3170  -55.2620   71.5730 C.3    37  LYS37       0.0271
     41  CG       146.7660  -55.5310   71.9570 C.3    37  LYS37       0.0035
     42  CD       147.6500  -55.9000   70.7820 C.3    37  LYS37       0.0206
     43  CE       149.1060  -55.8240   71.1830 C.3    37  LYS37       0.1093
     44  NZ       150.0150  -56.3320   70.1250 N.3    37  LYS37      -0.1314
     45  N        149.7080  -48.8490   64.4630 N.3    50  GLU50      -0.1245
     46  CA       148.4880  -49.5780   64.0690 C.3    50  GLU50       0.1567
     47  C        147.3250  -48.6400   63.8820 C.2    50  GLU50       0.2260
     48  O        146.5750  -48.7640   62.8990 O.2    50  GLU50      -0.2867
     49  CB       148.0960  -50.6300   65.0900 C.3    50  GLU50       0.0388
     50  CG       149.1520  -51.7080   65.2670 C.3    50  GLU50       0.1160
     51  CD       148.5560  -53.0360   65.6410 C.2    50  GLU50       0.3649
     52  OE1      148.7680  -53.4880   66.7800 O.co2  50  GLU50      -0.2457
     53  OE2      147.8810  -53.6310   64.7610 O.co2  50  GLU50      -0.2457
     54  N        143.1170  -58.2560   59.9690 N.3    65  LEU65      -0.1245
     55  CA       142.2790  -58.0910   61.1430 C.3    65  LEU65       0.1561
     56  C        141.4960  -56.7810   61.0640 C.2    65  LEU65       0.2260
     57  O        142.0730  -55.7170   60.8230 O.2    65  LEU65      -0.2867
     58  CB       143.1120  -58.1240   62.4190 C.3    65  LEU65       0.0270
     59  CG       142.3270  -57.9550   63.7290 C.3    65  LEU65       0.0019
     60  CD1      141.3110  -59.0870   63.8900 C.3    65  LEU65       0.0001
     61  CD2      143.2850  -57.8910   64.9160 C.3    65  LEU65       0.0001
     62  N        143.4840  -50.9330   71.4810 N.3    83  LEU83      -0.1245
     63  CA       143.1140  -51.1820   70.0880 C.3    83  LEU83       0.1561
     64  C        141.9640  -52.1950   70.0980 C.2    83  LEU83       0.2260
     65  O        142.0790  -53.2650   70.7000 O.2    83  LEU83      -0.2867
     66  CB       144.2990  -51.7170   69.2960 C.3    83  LEU83       0.0270
     67  CG       144.0680  -52.0110   67.8070 C.3    83  LEU83       0.0019
     68  CD1      143.7690  -50.7470   67.0270 C.3    83  LEU83       0.0001
     69  CD2      145.2630  -52.7450   67.1960 C.3    83  LEU83       0.0001
     70  N        139.2140  -54.4120   67.9380 N.3    85  THR85      -0.1203
     71  CA       139.1090  -55.0710   66.6380 C.3    85  THR85       0.1994
     72  C        138.0420  -56.1520   66.6790 C.2    85  THR85       0.2618
     73  O        137.5300  -56.4730   67.7550 O.2    85  THR85      -0.2717
     74  CB       140.4310  -55.7820   66.2620 C.3    85  THR85       0.1784
     75  OG1      140.6080  -56.9580   67.0580 O.3    85  THR85      -0.2211
     76  CG2      141.6180  -54.8730   66.4490 C.3    85  THR85       0.0376
     77  N        137.7630  -56.7540   65.5230 N.am   86  HIS86      -0.1961
     78  CA       136.9180  -57.9540   65.4780 C.3    86  HIS86       0.1787
     79  C        137.5790  -59.0380   66.3250 C.2    86  HIS86       0.2620
     80  O        138.8100  -59.0680   66.4810 O.2    86  HIS86      -0.2715
     81  CB       136.6820  -58.4730   64.0530 C.3    86  HIS86       0.0785
     82  CG       136.0260  -57.4880   63.1320 C.ar   86  HIS86       0.0821
     83  ND1      136.2620  -57.4790   61.7710 N.ar   86  HIS86      -0.2267
     84  CD2      135.1480  -56.4830   63.3680 C.ar   86  HIS86       0.1154
     85  CE1      135.5620  -56.5060   61.2100 C.ar   86  HIS86       0.1986
     86  NE2      134.8770  -55.8870   62.1570 N.ar   86  HIS86      -0.2212
     87  N        136.7430  -59.8850   66.9140 N.am   87  TYR87      -0.1960
     88  CA       137.1880  -60.9560   67.7720 C.3    87  TYR87       0.1771
     89  C        137.0400  -62.2630   67.0110 C.2    87  TYR87       0.2620
     90  O        136.0030  -62.5000   66.4030 O.2    87  TYR87      -0.2715
     91  CB       136.3410  -61.0060   69.0490 C.3    87  TYR87       0.0574
     92  CG       136.7250  -62.1440   69.9580 C.ar   87  TYR87      -0.0198
     93  CD1      137.8910  -62.0910   70.7010 C.ar   87  TYR87      -0.0009
     94  CD2      135.9330  -63.2920   70.0620 C.ar   87  TYR87      -0.0009
     95  CE1      138.2680  -63.1350   71.5190 C.ar   87  TYR87       0.0417
     96  CE2      136.3020  -64.3380   70.8980 C.ar   87  TYR87       0.0417
     97  CZ       137.4680  -64.2450   71.6170 C.ar   87  TYR87       0.1957
     98  OH       137.8550  -65.2700   72.4410 O.3    87  TYR87      -0.2866
     99  N        138.0670  -63.1100   67.0770 N.am   88  HIS88      -0.1959
    100  CA       138.0890  -64.3970   66.3960 C.3    88  HIS88       0.1787
    101  C        138.2690  -65.4860   67.4210 C.2    88  HIS88       0.2620
    102  O        139.3690  -65.6850   67.9480 O.2    88  HIS88      -0.2715
    103  CB       139.1670  -64.4110   65.3250 C.3    88  HIS88       0.0785
    104  CG       138.8680  -63.4620   64.2110 C.ar   88  HIS88       0.0821
    105  ND1      137.7720  -63.6130   63.3920 N.ar   88  HIS88      -0.2267
    106  CD2      139.4690  -62.3110   63.8330 C.ar   88  HIS88       0.1154
    107  CE1      137.7350  -62.6180   62.5230 C.ar   88  HIS88       0.1986
    108  NE2      138.7540  -61.8120   62.7690 N.ar   88  HIS88      -0.2212
    109  N        137.1510  -66.1580   67.7280 N.am   89  GLU89      -0.1963
    110  CA       137.0840  -67.1430   68.8140 C.3    89  GLU89       0.1733
    111  C        137.9810  -68.3620   68.6710 C.2    89  GLU89       0.2616
    112  O        138.3630  -68.9610   69.6750 O.2    89  GLU89      -0.2715
    113  CB       135.6350  -67.5940   69.0370 C.3    89  GLU89       0.0429
    114  CG       135.0420  -68.3800   67.8800 C.3    89  GLU89       0.1163
    115  CD       133.5410  -68.6490   68.0440 C.2    89  GLU89       0.3649
    116  OE1      132.9940  -68.5090   69.1630 O.co2  89  GLU89      -0.2457
    117  OE2      132.9050  -69.0170   67.0390 O.co2  89  GLU89      -0.2457
    118  N        138.3290  -68.7260   67.4350 N.am   90  MET90      -0.1963
    119  CA       139.2650  -69.8460   67.1990 C.3    90  MET90       0.1736
    120  C        140.6890  -69.5130   67.6500 C.2    90  MET90       0.2617
    121  O        141.5170  -70.4130   67.8020 O.2    90  MET90      -0.2715
    122  CB       139.2790  -70.2380   65.7220 C.3    90  MET90       0.0427
    123  CG       137.9540  -70.7400   65.1450 C.3    90  MET90       0.0599
    124  SD       137.5460  -72.3800   65.7740 S.3    90  MET90      -0.1393
    125  CE       136.4570  -72.0030   67.1450 C.3    90  MET90       0.0692
    126  N        140.9850  -68.2250   67.8360 N.am   91  GLY91      -0.1940
    127  CA       142.3030  -67.7950   68.2980 C.3    91  GLY91       0.2014
    128  C        143.3100  -67.6320   67.1640 C.2    91  GLY91       0.2639
    129  O        142.9380  -67.5470   65.9650 O.2    91  GLY91      -0.2714
    130  N        144.5830  -67.5750   67.5420 N.am   92  SER92      -0.1949
    131  CA       145.6500  -67.4250   66.5690 C.3    92  SER92       0.1924
    132  C        145.9090  -68.7580   65.8850 C.2    92  SER92       0.2314
    133  O        145.5490  -69.8140   66.4080 O.2    92  SER92      -0.2863
    134  CB       146.9450  -66.9350   67.2170 C.3    92  SER92       0.2116
    135  OG       147.5610  -67.9480   67.9920 O.3    92  SER92      -0.2180
    136  N        147.6090  -71.0230   68.1950 N.3    95  ASP95      -0.1239
    137  CA       146.6960  -71.7210   69.1250 C.3    95  ASP95       0.1674
    138  C        145.9470  -72.8590   68.3990 C.2    95  ASP95       0.2266
    139  O        145.8930  -73.9840   68.8820 O.2    95  ASP95      -0.2867
    140  CB       145.6720  -70.7560   69.7370 C.3    95  ASP95       0.1410
    141  CG       146.3160  -69.5920   70.4790 C.2    95  ASP95       0.3668
    142  OD1      147.1250  -69.8400   71.3900 O.co2  95  ASP95      -0.2456
    143  OD2      146.0140  -68.4280   70.1390 O.co2  95  ASP95      -0.2456
    144  N        151.4750  -66.6110   65.7240 N.3   142  LYS142     -0.1231
    145  CA       150.7340  -65.8660   66.7640 C.3   142  LYS142      0.1693
    146  C        150.0870  -64.5720   66.2840 C.2   142  LYS142      0.2592
    147  O        149.1810  -64.0760   66.9480 O.2   142  LYS142     -0.2718
    148  CB       151.6140  -65.5660   67.9810 C.3   142  LYS142      0.0285
    149  CG       151.9350  -66.7870   68.7960 C.3   142  LYS142      0.0035
    150  CD       152.9010  -66.4960   69.9120 C.3   142  LYS142      0.0206
    151  CE       153.0870  -67.7460   70.7770 C.3   142  LYS142      0.1093
    152  NZ       154.0490  -67.4980   71.8730 N.3   142  LYS142     -0.1314
    153  N        150.5420  -64.0250   65.1510 N.am  143  ASN143     -0.1974
    154  CA       150.0030  -62.7810   64.5870 C.3   143  ASN143      0.1688
    155  C        149.0330  -63.0200   63.4450 C.2   143  ASN143      0.2292
    156  O        148.7160  -62.1030   62.6890 O.2   143  ASN143     -0.2864
    157  CB       151.1530  -61.8690   64.1340 C.3   143  ASN143      0.1181
    158  CG       151.7470  -61.0640   65.2770 C.2   143  ASN143      0.2629
    159  OD1      151.1160  -60.8920   66.3100 O.2   143  ASN143     -0.2716
    160  ND2      152.9550  -60.5510   65.0860 N.am  143  ASN143     -0.0877
    161  N        145.1860  -64.8020   62.7970 N.3   145  LEU145     -0.1245
    162  CA       143.9730  -65.3390   63.4210 C.3   145  LEU145      0.1561
    163  C        143.2090  -66.2250   62.4490 C.2   145  LEU145      0.2260
    164  O        143.1870  -65.9420   61.2650 O.2   145  LEU145     -0.2867
    165  CB       143.0900  -64.1860   63.9000 C.3   145  LEU145      0.0270
    166  CG       143.8480  -63.4260   64.9840 C.3   145  LEU145      0.0019
    167  CD1      143.6560  -61.9360   64.8410 C.3   145  LEU145      0.0001
    168  CD2      143.4590  -63.9370   66.3430 C.3   145  LEU145      0.0001
    169  N        147.2520  -59.9600   61.6910 N.3   155  ALA155     -0.1231
    170  CA       147.1780  -58.9060   62.7050 C.3   155  ALA155      0.1694
    171  C        148.5670  -58.3160   63.0030 C.2   155  ALA155      0.2592
    172  O        149.5990  -58.8040   62.5150 O.2   155  ALA155     -0.2718
    173  CB       146.5700  -59.4690   63.9800 C.3   155  ALA155      0.0304
    174  N        148.5550  -57.2790   63.8270 N.am  156  ASP156     -0.1974
    175  CA       149.7410  -56.6380   64.3910 C.3   156  ASP156      0.1709
    176  C        150.5740  -55.9000   63.3690 C.2   156  ASP156      0.2293
    177  O        151.5910  -56.4030   62.8970 O.2   156  ASP156     -0.2864
    178  CB       150.6050  -57.5970   65.2080 C.3   156  ASP156      0.1436
    179  CG       151.7100  -56.8750   66.0050 C.2   156  ASP156      0.3671
    180  OD1      151.8660  -55.6560   65.8850 O.co2 156  ASP156     -0.2456
    181  OD2      152.4310  -57.5460   66.7650 O.co2 156  ASP156     -0.2456
@<TRIPOS>BOND
     1    54    55    1
     2    57    56    2
     3    56    55    1
     4    55    58    1
     5    85    83   ar
     6    85    86   ar
     7   164   163    2
     8   169   170    1
     9    83    82   ar
    10    86    84   ar
    11    58    59    1
    12   163   162    1
    13   172   171    2
    14   107   108   ar
    15   107   105   ar
    16   156   155    2
    17   170   171    1
    18   170   173    1
    19   108   106   ar
    20   161   162    1
    21   177   176    2
    22    48    47    2
    23   171   174   am
    24    82    84   ar
    25    82    81    1
    26   176   175    1
    27   105   104   ar
    28   162   165    1
    29   155   154    1
    30    59    60    1
    31    59    61    1
    32   174   175    1
    33   106   104   ar
    34    47    46    1
    35   165   166    1
    36    81    78    1
    37    46    45    1
    38    46    49    1
    39   157   154    1
    40   157   158    1
    41   104   103    1
    42   175   178    1
    43   154   153    1
    44    53    51   ar
    45   167   166    1
    46   166   168    1
    47   160   158   am
    48    49    50    1
    49   123   122    1
    50   123   124    1
    51   153   146   am
    52   178   179    1
    53    50    51    1
    54   158   159    2
    55   103   100    1
    56    78    77    1
    57    78    79    1
    58    77    72   am
    59    51    52   ar
    60   122   119    1
    61   144   145    1
    62   124   125    1
    63   180   179   ar
    64   132   133    2
    65   132   131    1
    66   129   128    2
    67   179   181   ar
    68    74    76    1
    69    74    71    1
    70    74    75    1
    71   146   145    1
    72   146   147    2
    73    79    80    2
    74    79    87   am
    75   100    99    1
    76   100   101    1
    77    90    89    2
    78   131   134    1
    79   131   130    1
    80    71    72    1
    81    71    70    1
    82    72    73    2
    83   145   148    1
    84    87    88    1
    85    89    99   am
    86    89    88    1
    87    68    67    1
    88   117   115   ar
    89   128   130   am
    90   128   127    1
    91    69    67    1
    92   119   118    1
    93   119   120    1
    94   134   135    1
    95   101   109   am
    96   101   102    2
    97   118   111   am
    98   120   121    2
    99   120   126   am
   100   109   110    1
   101    88    91    1
   102    67    66    1
   103   126   127    1
   104   114   115    1
   105   114   113    1
   106   148   149    1
   107   115   116   ar
   108   136   137    1
   109   138   139    2
   110   138   137    1
   111   111   110    1
   112   111   112    2
   113   149   150    1
   114   110   113    1
   115    91    92    1
   116   137   140    1
   117    66    63    1
   118   140   141    1
   119   150   151    1
   120    92    94   ar
   121    92    93   ar
   122    35    32    1
   123    94    96   ar
   124    63    64    1
   125    63    62    1
   126    64    65    2
   127    44    43    1
   128   143   141   ar
   129    31    32    1
   130   141   142   ar
   131    34    33    2
   132    93    95   ar
   133   151   152    1
   134    42    43    1
   135    42    41    1
   136    96    97   ar
   137    32    33    1
   138    95    97   ar
   139    40    41    1
   140    40    37    1
   141    97    98    1
   142    29    28    1
   143    30    28    1
   144    36    37    1
   145    37    38    1
   146    16    17    1
   147    16    13    1
   148    19    17   ar
   149    19    21   ar
   150    17    18   ar
   151    28    25    1
   152    39    38    2
   153    21    22   ar
   154    18    20   ar
   155    22    20   ar
   156    22    23    1
   157     7     5    1
   158    13    12    1
   159    13    14    1
   160    25    26    1
   161    25    24    1
   162     4     3    2
   163     5     6    1
   164     5     2    1
   165    15    14    2
   166    26    27    2
   167     3     8   am
   168     3     2    1
   169     9     8    1
   170     9    10    1
   171     2     1    1
   172    10    11    2
