@<TRIPOS>MOLECULE
tmp/5oxjA00.pdb
 203 194 0 0 0
SMALL
GASTEIGER

@<TRIPOS>ATOM
      1  N         24.2450  -30.1750  -11.0700 N.3   281  ARG281     -0.1245
      2  CA        24.9850  -28.9810  -11.4330 C.3   281  ARG281      0.1563
      3  C         26.4510  -29.3220  -11.6530 C.2   281  ARG281      0.2260
      4  O         26.9650  -30.3200  -11.1240 O.2   281  ARG281     -0.2867
      5  CB        24.8580  -27.9210  -10.3490 C.3   281  ARG281      0.0307
      6  CG        23.5570  -27.1490  -10.3260 C.3   281  ARG281      0.0489
      7  CD        23.7870  -25.8930   -9.4890 C.3   281  ARG281      0.2205
      8  NE        22.6850  -24.9440   -9.5500 N.pl3 281  ARG281     -0.0865
      9  CZ        22.6860  -23.7770   -8.9130 C.cat 281  ARG281      0.5346
     10  NH1       23.7310  -23.4270   -8.1580 N.pl3 281  ARG281      0.1354
     11  NH2       21.6340  -22.9720   -9.0120 N.pl3 281  ARG281      0.1354
     12  N         27.4610   -8.5160   -6.9440 N.3   295  ARG295     -0.1245
     13  CA        26.2630   -7.9440   -6.3410 C.3   295  ARG295      0.1563
     14  C         26.4890   -6.5610   -5.7430 C.2   295  ARG295      0.2260
     15  O         25.5310   -5.7940   -5.6330 O.2   295  ARG295     -0.2867
     16  CB        25.6990   -8.9120   -5.2930 C.3   295  ARG295      0.0307
     17  CG        25.1690  -10.2130   -5.9320 C.3   295  ARG295      0.0489
     18  CD        24.9220  -11.3270   -4.9120 C.3   295  ARG295      0.2205
     19  NE        24.4130  -12.5530   -5.5330 N.pl3 295  ARG295     -0.0865
     20  CZ        23.9810  -13.6170   -4.8520 C.cat 295  ARG295      0.5346
     21  NH1       23.9850  -13.6170   -3.5180 N.pl3 295  ARG295      0.1354
     22  NH2       23.5350  -14.6860   -5.5000 N.pl3 295  ARG295      0.1354
     23  N         21.8550  -15.7520  -20.2610 N.3   318  ASP318     -0.1225
     24  CA        21.4030  -16.0440  -18.9100 C.3   318  ASP318      0.1805
     25  C         19.9020  -16.3050  -18.9430 C.2   318  ASP318      0.2598
     26  O         19.1400  -15.4270  -19.3620 O.2   318  ASP318     -0.2718
     27  CB        21.7570  -14.8620  -18.0110 C.3   318  ASP318      0.1424
     28  CG        21.2530  -15.0260  -16.6140 C.2   318  ASP318      0.3668
     29  OD1       20.0270  -14.9230  -16.4160 O.co2 318  ASP318     -0.2456
     30  OD2       22.0920  -15.2730  -15.7230 O.co2 318  ASP318     -0.2456
     31  N         19.4790  -17.5130  -18.5520 N.am  319  TYR319     -0.1962
     32  CA        18.0550  -17.8480  -18.5510 C.3   319  TYR319      0.1771
     33  C         17.3240  -17.0300  -17.4950 C.2   319  TYR319      0.2620
     34  O         17.8340  -16.8140  -16.3980 O.2   319  TYR319     -0.2715
     35  CB        17.8250  -19.3290  -18.2550 C.3   319  TYR319      0.0574
     36  CG        18.1810  -20.3360  -19.3310 C.ar  319  TYR319     -0.0198
     37  CD1       17.3090  -20.6050  -20.3750 C.ar  319  TYR319     -0.0009
     38  CD2       19.3540  -21.0750  -19.2540 C.ar  319  TYR319     -0.0009
     39  CE1       17.6180  -21.5460  -21.3410 C.ar  319  TYR319      0.0417
     40  CE2       19.6610  -22.0150  -20.1910 C.ar  319  TYR319      0.0417
     41  CZ        18.7870  -22.2450  -21.2410 C.ar  319  TYR319      0.1957
     42  OH        19.0890  -23.1730  -22.1890 O.3   319  TYR319     -0.2866
     43  N         16.1110  -16.5880  -17.8130 N.am  320  SER320     -0.1936
     44  CA        15.3380  -15.7880  -16.8720 C.3   320  SER320      0.2055
     45  C         14.5380  -16.7010  -15.9530 C.2   320  SER320      0.2643
     46  O         13.9030  -17.6540  -16.4210 O.2   320  SER320     -0.2714
     47  CB        14.4110  -14.8180  -17.6050 C.3   320  SER320      0.2130
     48  OG        13.4250  -15.5050  -18.3550 O.3   320  SER320     -0.2179
     49  N         14.5950  -16.4240  -14.6440 N.am  321  GLN321     -0.1963
     50  CA        13.7700  -17.1140  -13.6530 C.3   321  GLN321      0.1733
     51  C         13.7050  -18.6040  -13.9490 C.2   321  GLN321      0.2616
     52  O         12.6350  -19.2170  -14.0050 O.2   321  GLN321     -0.2715
     53  CB        12.3730  -16.5100  -13.6030 C.3   321  GLN321      0.0408
     54  CG        12.3370  -15.0470  -14.0460 C.3   321  GLN321      0.0908
     55  CD        10.9280  -14.5290  -14.2740 C.2   321  GLN321      0.2608
     56  OE1       10.5260  -14.2580  -15.4110 O.2   321  GLN321     -0.2717
     57  NE2       10.1690  -14.3860  -13.1920 N.am  321  GLN321     -0.0878
     58  N         14.8830  -19.1920  -14.1500 N.am  322  ILE322     -0.1963
     59  CA        14.9380  -20.5130  -14.7630 C.3   322  ILE322      0.1727
     60  C         14.2440  -21.5500  -13.8890 C.2   322  ILE322      0.2616
     61  O         13.3350  -22.2530  -14.3440 O.2   322  ILE322     -0.2715
     62  CB        16.3890  -20.8990  -15.0700 C.3   322  ILE322      0.0290
     63  CG1       16.4500  -22.3740  -15.4640 C.3   322  ILE322      0.0022
     64  CG2       17.3060  -20.5190  -13.8990 C.3   322  ILE322      0.0023
     65  CD1       15.9820  -22.6200  -16.8750 C.3   322  ILE322      0.0001
     66  N         14.6450  -21.6500  -12.6130 N.am  323  GLU323     -0.1977
     67  CA        14.0400  -22.6540  -11.7370 C.3   323  GLU323      0.1602
     68  C         12.5560  -22.4020  -11.5150 C.2   323  GLU323      0.2287
     69  O         11.7980  -23.3570  -11.3210 O.2   323  GLU323     -0.2864
     70  CB        14.8010  -22.7250  -10.3950 C.3   323  GLU323      0.0415
     71  CG        16.2860  -23.0280  -10.6050 C.3   323  GLU323      0.1163
     72  CD        17.0190  -23.5550   -9.3720 C.2   323  GLU323      0.3649
     73  OE1       16.4700  -23.4870   -8.2460 O.co2 323  GLU323     -0.2457
     74  OE2       18.1650  -24.0330   -9.5550 O.co2 323  GLU323     -0.2457
     75  N         10.0860  -11.7520  -10.0690 N.3   347  HIS347     -0.1241
     76  CA        11.2430  -11.2470   -9.3340 C.3   347  HIS347      0.1621
     77  C         11.2070   -9.7350   -9.2350 C.2   347  HIS347      0.2264
     78  O         11.7260   -9.1630   -8.2730 O.2   347  HIS347     -0.2867
     79  CB        12.5490  -11.6690  -10.0060 C.3   347  HIS347      0.0745
     80  CG        12.9100  -13.0990   -9.7770 C.ar  347  HIS347      0.0817
     81  ND1       12.0800  -13.9770   -9.1160 N.ar  347  HIS347     -0.2268
     82  CD2       14.0120  -13.8050  -10.1200 C.ar  347  HIS347      0.1154
     83  CE1       12.6550  -15.1650   -9.0610 C.ar  347  HIS347      0.1986
     84  NE2       13.8290  -15.0870   -9.6640 N.ar  347  HIS347     -0.2212
     85  N         16.2310   -5.9780   -7.3700 N.3   359  ARG359     -0.1231
     86  CA        15.7870   -7.2300   -7.9720 C.3   359  ARG359      0.1694
     87  C         16.6060   -8.4120   -7.4650 C.2   359  ARG359      0.2591
     88  O         16.0720   -9.5150   -7.3020 O.2   359  ARG359     -0.2718
     89  CB        15.8570   -7.1440   -9.4950 C.3   359  ARG359      0.0321
     90  CG        15.1690   -8.2940  -10.2030 C.3   359  ARG359      0.0489
     91  CD        15.1860   -8.1040  -11.7130 C.3   359  ARG359      0.2205
     92  NE        14.5410   -9.2260  -12.3800 N.pl3 359  ARG359     -0.0865
     93  CZ        15.1740  -10.3340  -12.7420 C.cat 359  ARG359      0.5346
     94  NH1       14.5090  -11.3140  -13.3360 N.pl3 359  ARG359      0.1354
     95  NH2       16.4740  -10.4630  -12.5080 N.pl3 359  ARG359      0.1354
     96  N         17.9040   -8.2060   -7.2180 N.am  360  ARG360     -0.1980
     97  CA        18.7120   -9.2610   -6.6120 C.3   360  ARG360      0.1597
     98  C         18.1790   -9.6500   -5.2360 C.2   360  ARG360      0.2287
     99  O         18.3020  -10.8100   -4.8260 O.2   360  ARG360     -0.2864
    100  CB        20.1760   -8.8190   -6.5120 C.3   360  ARG360      0.0334
    101  CG        20.9110   -8.7310   -7.8500 C.3   360  ARG360      0.0492
    102  CD        22.4120   -8.4960   -7.6560 C.3   360  ARG360      0.2205
    103  NE        22.7500   -7.1020   -7.3590 N.pl3 360  ARG360     -0.0865
    104  CZ        23.4400   -6.3090   -8.1770 C.cat 360  ARG360      0.5346
    105  NH1       23.7040   -5.0540   -7.8270 N.pl3 360  ARG360      0.1354
    106  NH2       23.8760   -6.7760   -9.3420 N.pl3 360  ARG360      0.1354
    107  N         15.2800  -11.8250   -5.5010 N.3   363  LYS363     -0.1231
    108  CA        15.7640  -13.1410   -5.9050 C.3   363  LYS363      0.1693
    109  C         16.1710  -13.9800   -4.6940 C.2   363  LYS363      0.2592
    110  O         15.8090  -15.1590   -4.6040 O.2   363  LYS363     -0.2718
    111  CB        16.9200  -12.9950   -6.8990 C.3   363  LYS363      0.0285
    112  CG        16.5090  -12.2740   -8.2040 C.3   363  LYS363      0.0035
    113  CD        17.3270  -12.7230   -9.4220 C.3   363  LYS363      0.0206
    114  CE        18.7010  -12.0910   -9.4450 C.3   363  LYS363      0.1093
    115  NZ        19.4200  -12.4050  -10.7020 N.3   363  LYS363     -0.1314
    116  N         16.9010  -13.3910   -3.7400 N.am  364  THR364     -0.1953
    117  CA        17.1330  -14.0880   -2.4810 C.3   364  THR364      0.1897
    118  C         15.8250  -14.3310   -1.7340 C.2   364  THR364      0.2313
    119  O         15.7000  -15.3270   -1.0100 O.2   364  THR364     -0.2863
    120  CB        18.1180  -13.2940   -1.6140 C.3   364  THR364      0.1794
    121  OG1       19.4330  -13.3940   -2.1790 O.3   364  THR364     -0.2208
    122  CG2       18.1410  -13.8220   -0.1730 C.3   364  THR364      0.0378
    123  N         13.3330  -17.0340   -3.7330 N.3   367  PHE367     -0.1241
    124  CA        13.9390  -18.3610   -3.7090 C.3   367  PHE367      0.1605
    125  C         14.0350  -18.9010   -2.2860 C.2   367  PHE367      0.2264
    126  O         13.6770  -20.0560   -2.0300 O.2   367  PHE367     -0.2867
    127  CB        15.3070  -18.3300   -4.3920 C.3   367  PHE367      0.0534
    128  CG        15.2160  -18.2450   -5.8890 C.ar  367  PHE367     -0.0203
    129  CD1       14.3630  -19.0880   -6.5870 C.ar  367  PHE367     -0.0042
    130  CD2       15.9470  -17.3060   -6.5940 C.ar  367  PHE367     -0.0042
    131  CE1       14.2560  -19.0100   -7.9690 C.ar  367  PHE367     -0.0003
    132  CE2       15.8450  -17.2220   -7.9790 C.ar  367  PHE367     -0.0003
    133  CZ        14.9980  -18.0780   -8.6630 C.ar  367  PHE367     -0.0000
    134  N         11.8790  -22.4870   -1.1500 N.3   371  TYR371     -0.1241
    135  CA        12.5260  -23.7340   -0.7410 C.3   371  TYR371      0.1605
    136  C         12.4720  -23.9670    0.7600 C.2   371  TYR371      0.2264
    137  O         13.4100  -24.5200    1.3380 O.2   371  TYR371     -0.2867
    138  CB        13.9680  -23.7610   -1.2280 C.3   371  TYR371      0.0534
    139  CG        14.0340  -23.9430   -2.7110 C.ar  371  TYR371     -0.0201
    140  CD1       13.8090  -25.1850   -3.2780 C.ar  371  TYR371     -0.0009
    141  CD2       14.2850  -22.8720   -3.5480 C.ar  371  TYR371     -0.0009
    142  CE1       13.8470  -25.3610   -4.6350 C.ar  371  TYR371      0.0417
    143  CE2       14.3290  -23.0350   -4.9090 C.ar  371  TYR371      0.0417
    144  CZ        14.1090  -24.2860   -5.4530 C.ar  371  TYR371      0.1957
    145  OH        14.1580  -24.4700   -6.8210 O.3   371  TYR371     -0.2866
    146  N         14.0150  -29.7840   -3.6300 N.3   450  ASN450     -0.1240
    147  CA        14.8060  -28.8170   -4.3820 C.3   450  ASN450      0.1653
    148  C         15.5060  -29.4810   -5.5670 C.2   450  ASN450      0.2266
    149  O         15.6000  -28.8880   -6.6520 O.2   450  ASN450     -0.2867
    150  CB        15.8330  -28.1340   -3.4970 C.3   450  ASN450      0.1155
    151  CG        16.9390  -27.4670   -4.3200 C.2   450  ASN450      0.2627
    152  OD1       17.8940  -28.1250   -4.7370 O.2   450  ASN450     -0.2716
    153  ND2       16.8090  -26.1670   -4.5650 N.am  450  ASN450     -0.0877
    154  N         16.3880  -27.7990   -9.2040 N.3   454  GLN454     -0.1245
    155  CA        17.7290  -27.3370   -9.5410 C.3   454  GLN454      0.1566
    156  C         18.3870  -28.2840  -10.5360 C.2   454  GLN454      0.2260
    157  O         19.1100  -27.8460  -11.4480 O.2   454  GLN454     -0.2867
    158  CB        18.5690  -27.2100   -8.2740 C.3   454  GLN454      0.0367
    159  CG        20.0200  -26.8890   -8.5290 C.3   454  GLN454      0.0905
    160  CD        20.8390  -26.9390   -7.2510 C.2   454  GLN454      0.2608
    161  OE1       21.8450  -27.6340   -7.1800 O.2   454  GLN454     -0.2717
    162  NE2       20.4140  -26.1830   -6.2370 N.am  454  GLN454     -0.0878
    163  N         16.9560  -27.7530  -14.1730 N.3   457  ALA457     -0.1245
    164  CA        17.5990  -26.5910  -14.7740 C.3   457  ALA457      0.1562
    165  C         19.0270  -26.9040  -15.2060 C.2   457  ALA457      0.2260
    166  O         19.5040  -26.3690  -16.2160 O.2   457  ALA457     -0.2867
    167  CB        17.5760  -25.4170  -13.7950 C.3   457  ALA457      0.0290
    168  N         25.8420  -22.0020  -14.0380 N.3   484  HIS484     -0.1226
    169  CA        24.5950  -22.6490  -13.6570 C.3   484  HIS484      0.1752
    170  C         23.4230  -22.3440  -14.5660 C.2   484  HIS484      0.2596
    171  O         22.7930  -23.2750  -15.0800 O.2   484  HIS484     -0.2718
    172  CB        24.2580  -22.2800  -12.2070 C.3   484  HIS484      0.0759
    173  CG        25.4170  -22.4820  -11.3000 C.ar  484  HIS484      0.0818
    174  ND1       26.0480  -23.7020  -11.1860 N.ar  484  HIS484     -0.2268
    175  CD2       26.1300  -21.6120  -10.5470 C.ar  484  HIS484      0.1154
    176  CE1       27.0820  -23.5830  -10.3730 C.ar  484  HIS484      0.1986
    177  NE2       27.1480  -22.3260   -9.9650 N.ar  484  HIS484     -0.2212
    178  N         23.0790  -21.0740  -14.7490 N.am  485  ASP485     -0.1974
    179  CA        22.0160  -20.7870  -15.6950 C.3   485  ASP485      0.1709
    180  C         22.4750  -19.7470  -16.7020 C.2   485  ASP485      0.2293
    181  O         21.6650  -18.9970  -17.2480 O.2   485  ASP485     -0.2864
    182  CB        20.7610  -20.3310  -14.9710 C.3   485  ASP485      0.1436
    183  CG        20.8170  -18.8680  -14.5760 C.2   485  ASP485      0.3671
    184  OD1       21.9160  -18.3440  -14.2620 O.co2 485  ASP485     -0.2456
    185  OD2       19.7440  -18.2310  -14.5940 O.co2 485  ASP485     -0.2456
    186  N         18.1680  -13.7950  -21.5540 N.3   520  GLU520     -0.1245
    187  CA        18.7280  -12.4570  -21.7080 C.3   520  GLU520      0.1567
    188  C         20.1340  -12.5810  -22.2760 C.2   520  GLU520      0.2260
    189  O         20.9070  -13.4400  -21.8500 O.2   520  GLU520     -0.2867
    190  CB        18.7950  -11.7300  -20.3630 C.3   520  GLU520      0.0388
    191  CG        17.4660  -11.3230  -19.7710 C.3   520  GLU520      0.1160
    192  CD        16.9310  -10.0540  -20.3900 C.2   520  GLU520      0.3649
    193  OE1       17.4020   -9.6810  -21.4870 O.co2 520  GLU520     -0.2457
    194  OE2       16.0470   -9.4230  -19.7740 O.co2 520  GLU520     -0.2457
    195  N         26.4190   -7.9070  -19.4950 N.3   531  LYS531     -0.1245
    196  CA        25.1740   -8.1710  -18.7760 C.3   531  LYS531      0.1561
    197  C         24.3630   -6.9020  -18.5280 C.2   531  LYS531      0.2260
    198  O         23.5760   -6.8360  -17.5810 O.2   531  LYS531     -0.2867
    199  CB        25.4440   -8.8840  -17.4510 C.3   531  LYS531      0.0271
    200  CG        26.1730  -10.1990  -17.5950 C.3   531  LYS531      0.0035
    201  CD        25.7970  -11.1780  -16.5060 C.3   531  LYS531      0.0206
    202  CE        24.4610  -11.8320  -16.7940 C.3   531  LYS531      0.1093
    203  NZ        24.1730  -12.8520  -15.7490 N.3   531  LYS531     -0.1314
@<TRIPOS>BOND
     1   188   189    2
     2   188   187    1
     3    42    41    1
     4   187   186    1
     5   187   190    1
     6   193   192   ar
     7    39    41   ar
     8    39    37   ar
     9    41    40   ar
    10   192   194   ar
    11   192   191    1
    12    37    36   ar
    13   190   191    1
    14    23    24    1
    15    40    38   ar
    16   195   196    1
    17    26    25    2
    18    36    38   ar
    19    36    35    1
    20    25    24    1
    21    25    31   am
    22    24    27    1
    23   196   197    1
    24   196   199    1
    25    31    32    1
    26    32    35    1
    27    32    33    1
    28   197   198    2
    29    48    47    1
    30    27    28    1
    31    43    33   am
    32    43    44    1
    33    47    44    1
    34   200   199    1
    35   200   201    1
    36    33    34    2
    37   181   180    2
    38    65    63    1
    39    44    45    1
    40   202   201    1
    41   202   203    1
    42   180   179    1
    43    28    29   ar
    44    28    30   ar
    45    46    45    2
    46   166   165    2
    47    45    49   am
    48   179   182    1
    49   179   178    1
    50    63    62    1
    51    56    55    2
    52   165   164    1
    53   171   170    2
    54    62    59    1
    55    62    64    1
    56   182   183    1
    57   164   163    1
    58   164   167    1
    59    59    58    1
    60    59    60    1
    61   178   170   am
    62    49    50    1
    63   185   183   ar
    64   183   184   ar
    65   170   169    1
    66    61    60    2
    67    55    54    1
    68    55    57   am
    69    58    51   am
    70    54    53    1
    71   168   169    1
    72    52    51    2
    73    51    50    1
    74    60    66   am
    75   169   172    1
    76    50    53    1
    77    94    93    1
    78    93    95    1
    79    93    92    2
    80    66    67    1
    81    92    91    1
    82   172   173    1
    83    67    68    1
    84    67    70    1
    85    91    90    1
    86     3     2    1
    87     3     4    2
    88    68    69    2
    89   157   156    2
    90     2     1    1
    91     2     5    1
    92   173   174   ar
    93   173   175   ar
    94   174   176   ar
    95   115   114    1
    96    71    70    1
    97    71    72    1
    98   175   177   ar
    99   156   155    1
   100   176   177   ar
   101     5     6    1
   102     6     7    1
   103    90    89    1
   104    82    80   ar
   105    82    84   ar
   106    75    76    1
   107    79    80    1
   108    79    76    1
   109    80    81   ar
   110    84    83   ar
   111    74    72   ar
   112     8     7    1
   113     8     9    2
   114   155   154    1
   115   155   158    1
   116    89    86    1
   117   114   113    1
   118   113   112    1
   119    72    73   ar
   120   106   104    1
   121    76    77    1
   122    77    78    2
   123    81    83   ar
   124    11     9    1
   125     9    10    1
   126   133   132   ar
   127   133   131   ar
   128   159   158    1
   129   159   160    1
   130   112   111    1
   131   104   105    1
   132   104   103    2
   133   132   130   ar
   134    86    87    1
   135    86    85    1
   136   131   129   ar
   137   101   102    1
   138   101   100    1
   139   102   103    1
   140    87    88    2
   141    87    96   am
   142   160   161    2
   143   160   162   am
   144    96    97    1
   145    12    13    1
   146   111   108    1
   147   145   144    1
   148   149   148    2
   149    97   100    1
   150    97    98    1
   151   130   128   ar
   152   129   128   ar
   153    13    14    1
   154    13    16    1
   155    17    16    1
   156    17    18    1
   157   108   107    1
   158   108   109    1
   159   128   127    1
   160    14    15    2
   161   148   147    1
   162    19    18    1
   163    19    20    2
   164    22    20    1
   165   144   143   ar
   166   144   142   ar
   167    98    99    2
   168   143   141   ar
   169    20    21    1
   170   152   151    2
   171   109   110    2
   172   109   116   am
   173   142   140   ar
   174   153   151   am
   175   127   124    1
   176   147   146    1
   177   147   150    1
   178   151   150    1
   179   116   117    1
   180   123   124    1
   181   124   125    1
   182   141   139   ar
   183   140   139   ar
   184   139   138    1
   185   117   118    1
   186   117   120    1
   187   125   126    2
   188   121   120    1
   189   118   119    2
   190   120   122    1
   191   138   135    1
   192   134   135    1
   193   135   136    1
   194   136   137    2
