@<TRIPOS>MOLECULE
tmp/5oxlA03.pdb
 132 126 0 0 0
SMALL
GASTEIGER

@<TRIPOS>ATOM
      1  N         23.2550    0.6150  -20.1740 N.3     4  PHE4       -0.1227
      2  CA        23.1200    0.7810  -18.7340 C.3     4  PHE4        0.1736
      3  C         21.8400    1.5530  -18.4500 C.2     4  PHE4        0.2595
      4  O         21.8310    2.7840  -18.4720 O.2     4  PHE4       -0.2718
      5  CB        24.3280    1.4970  -18.1300 C.3     4  PHE4        0.0547
      6  CG        24.2450    1.6630  -16.6380 C.ar    4  PHE4       -0.0202
      7  CD1       24.3020    0.5580  -15.8010 C.ar    4  PHE4       -0.0042
      8  CD2       24.1050    2.9210  -16.0730 C.ar    4  PHE4       -0.0042
      9  CE1       24.2220    0.7050  -14.4270 C.ar    4  PHE4       -0.0003
     10  CE2       24.0270    3.0760  -14.6990 C.ar    4  PHE4       -0.0003
     11  CZ        24.0840    1.9670  -13.8750 C.ar    4  PHE4       -0.0000
     12  N         20.7640    0.8120  -18.1950 N.am    5  PHE5       -0.1976
     13  CA        19.4350    1.3830  -18.0010 C.3     5  PHE5        0.1639
     14  C         19.0150    2.2150  -19.2120 C.2     5  PHE5        0.2290
     15  O         18.4530    3.3010  -19.0700 O.2     5  PHE5       -0.2864
     16  CB        19.3870    2.2250  -16.7200 C.3     5  PHE5        0.0560
     17  CG        19.4800    1.4130  -15.4590 C.ar    5  PHE5       -0.0200
     18  CD1       20.7110    1.0150  -14.9620 C.ar    5  PHE5       -0.0042
     19  CD2       18.3340    1.0420  -14.7730 C.ar    5  PHE5       -0.0042
     20  CE1       20.7970    0.2630  -13.8040 C.ar    5  PHE5       -0.0003
     21  CE2       18.4150    0.2910  -13.6140 C.ar    5  PHE5       -0.0003
     22  CZ        19.6470   -0.0990  -13.1290 C.ar    5  PHE5       -0.0000
     23  N         28.9560    6.8150  -13.5250 N.3    15  PHE15      -0.1227
     24  CA        28.0230    6.5570  -12.4330 C.3    15  PHE15       0.1736
     25  C         28.7740    6.1470  -11.1710 C.2    15  PHE15       0.2595
     26  O         28.7000    6.8220  -10.1440 O.2    15  PHE15      -0.2718
     27  CB        27.0310    5.4650  -12.8440 C.3    15  PHE15       0.0547
     28  CG        25.9330    5.2120  -11.8490 C.ar   15  PHE15      -0.0202
     29  CD1       26.1190    4.3270  -10.7980 C.ar   15  PHE15      -0.0042
     30  CD2       24.6990    5.8270  -11.9900 C.ar   15  PHE15      -0.0042
     31  CE1       25.1030    4.0810   -9.8940 C.ar   15  PHE15      -0.0003
     32  CE2       23.6800    5.5810  -11.0900 C.ar   15  PHE15      -0.0003
     33  CZ        23.8820    4.7060  -10.0420 C.ar   15  PHE15      -0.0000
     34  N         29.5030    5.0390  -11.2650 N.am   16  MET16      -0.1979
     35  CA        30.2380    4.4930  -10.1290 C.3    16  MET16       0.1605
     36  C         31.3180    5.4480   -9.6310 C.2    16  MET16       0.2287
     37  O         31.5550    5.5510   -8.4270 O.2    16  MET16      -0.2864
     38  CB        30.8660    3.1490  -10.5000 C.3    16  MET16       0.0413
     39  CG        29.8570    2.0800  -10.8670 C.3    16  MET16       0.0598
     40  SD        30.6460    0.4920  -11.1640 S.3    16  MET16      -0.1393
     41  CE        31.3820    0.1980   -9.5570 C.3    16  MET16       0.0692
     42  N         29.5750    8.1630   -7.7880 N.3    19  MET19      -0.1245
     43  CA        28.9220    7.5480   -6.6360 C.3    19  MET19       0.1570
     44  C         29.9150    7.3490   -5.5000 C.2    19  MET19       0.2261
     45  O         29.5870    7.5560   -4.3320 O.2    19  MET19      -0.2867
     46  CB        28.2880    6.2040   -7.0030 C.3    19  MET19       0.0387
     47  CG        27.4120    5.6320   -5.8940 C.3    19  MET19       0.0595
     48  SD        26.9830    3.8950   -6.0980 S.3    19  MET19      -0.1393
     49  CE        28.4660    3.0980   -5.4870 C.3    19  MET19       0.0692
     50  N         17.5690   11.5730  -19.4640 N.3   142  ALA142     -0.1245
     51  CA        17.4590   10.3880  -18.6260 C.3   142  ALA142      0.1562
     52  C         18.8120   10.0230  -18.0280 C.2   142  ALA142      0.2260
     53  O         18.8980    9.6000  -16.8750 O.2   142  ALA142     -0.2867
     54  CB        16.9000    9.2240  -19.4250 C.3   142  ALA142      0.0290
     55  N         19.6420   12.0630  -14.9190 N.3   145  SER145     -0.1202
     56  CA        18.8330   11.6410  -13.7820 C.3   145  SER145      0.2020
     57  C         19.4260   10.4070  -13.1210 C.2   145  SER145      0.2618
     58  O         19.5140   10.3300  -11.8950 O.2   145  SER145     -0.2717
     59  CB        17.4000   11.3630  -14.2180 C.3   145  SER145      0.2103
     60  OG        16.7710   12.5540  -14.6390 O.3   145  SER145     -0.2182
     61  N         19.8290    9.4430  -13.9440 N.am  146  ILE146     -0.1979
     62  CA        20.5130    8.2550  -13.4510 C.3   146  ILE146      0.1595
     63  C         21.7980    8.6640  -12.7490 C.2   146  ILE146      0.2287
     64  O         22.1290    8.1480  -11.6830 O.2   146  ILE146     -0.2864
     65  CB        20.8400    7.2650  -14.5910 C.3   146  ILE146      0.0276
     66  CG1       19.5630    6.8640  -15.3270 C.3   146  ILE146      0.0022
     67  CG2       21.5520    6.0340  -14.0490 C.3   146  ILE146      0.0022
     68  CD1       19.7680    5.8050  -16.3730 C.3   146  ILE146      0.0001
     69  N         21.0230   10.1070   -9.5540 N.3   149  PHE149     -0.1241
     70  CA        20.5610    9.0010   -8.7210 C.3   149  PHE149      0.1605
     71  C         21.7580    8.3050   -8.0780 C.2   149  PHE149      0.2264
     72  O         21.6920    7.8650   -6.9300 O.2   149  PHE149     -0.2867
     73  CB        19.7400    8.0030   -9.5430 C.3   149  PHE149      0.0534
     74  CG        18.9910    6.9950   -8.7120 C.ar  149  PHE149     -0.0203
     75  CD1       19.5990    5.8170   -8.3070 C.ar  149  PHE149     -0.0042
     76  CD2       17.6730    7.2210   -8.3490 C.ar  149  PHE149     -0.0042
     77  CE1       18.9090    4.8850   -7.5460 C.ar  149  PHE149     -0.0003
     78  CE2       16.9750    6.2930   -7.5890 C.ar  149  PHE149     -0.0003
     79  CZ        17.5960    5.1250   -7.1870 C.ar  149  PHE149     -0.0000
     80  N         22.8190    7.9590   -4.2790 N.3   153  LEU153     -0.1245
     81  CA        23.0360    6.5920   -3.8290 C.3   153  LEU153      0.1561
     82  C         24.3000    6.5220   -2.9770 C.2   153  LEU153      0.2260
     83  O         24.3140    5.8940   -1.9180 O.2   153  LEU153     -0.2867
     84  CB        23.1320    5.6420   -5.0220 C.3   153  LEU153      0.0270
     85  CG        23.2180    4.1460   -4.7200 C.3   153  LEU153      0.0019
     86  CD1       22.0790    3.7190   -3.8110 C.3   153  LEU153      0.0001
     87  CD2       23.1980    3.3590   -6.0180 C.3   153  LEU153      0.0001
     88  N         24.5300    5.6890    1.2810 N.3   157  ILE157     -0.1245
     89  CA        25.2520    4.6260    1.9690 C.3   157  ILE157      0.1561
     90  C         26.4450    5.1450    2.7680 C.2   157  ILE157      0.2260
     91  O         26.9490    4.4540    3.6510 O.2   157  ILE157     -0.2867
     92  CB        25.7490    3.5510    0.9760 C.3   157  ILE157      0.0252
     93  CG1       26.8240    4.1260    0.0520 C.3   157  ILE157      0.0019
     94  CG2       24.5870    2.9910    0.1680 C.3   157  ILE157      0.0019
     95  CD1       27.4060    3.1140   -0.9090 C.3   157  ILE157      0.0001
     96  N         12.0850    9.6170   -7.0130 N.3   324  THR324     -0.1204
     97  CA        12.5560    9.4850   -8.3910 C.3   324  THR324      0.1979
     98  C         11.6010    8.7420   -9.3400 C.2   324  THR324      0.2459
     99  O         11.2750    9.2710  -10.4030 O.2   324  THR324     -0.2732
    100  CB        13.9380    8.7940   -8.4270 C.3   324  THR324      0.1783
    101  OG1       14.9100    9.6460   -7.8110 O.3   324  THR324     -0.2211
    102  CG2       14.3600    8.5110   -9.8520 C.3   324  THR324      0.0376
    103  N         11.1400    7.5270   -8.9740 N.am  325  PRO325     -0.2728
    104  CA        10.2880    6.8400   -9.9540 C.3   325  PRO325      0.1401
    105  C          8.9260    7.5070  -10.1350 C.2   325  PRO325      0.2269
    106  O          8.3130    7.3750  -11.1940 O.2   325  PRO325     -0.2865
    107  CB        10.1310    5.4410   -9.3570 C.3   325  PRO325      0.0296
    108  CG        10.2680    5.6490   -7.8960 C.3   325  PRO325      0.0237
    109  CD        11.2950    6.7310   -7.7410 C.3   325  PRO325      0.0939
    110  N          9.5440   10.8820  -12.2980 N.3   328  ALA328     -0.1245
    111  CA         9.8710   10.4400  -13.6500 C.3   328  ALA328      0.1562
    112  C          8.5950   10.0890  -14.4010 C.2   328  ALA328      0.2260
    113  O          8.4680   10.3560  -15.5950 O.2   328  ALA328     -0.2867
    114  CB        10.8150    9.2510  -13.6160 C.3   328  ALA328      0.0290
    115  N         14.2910   12.6090  -11.8840 N.3   391  GLY391     -0.1210
    116  CA        12.8940   12.4150  -12.2350 C.3   391  GLY391      0.1956
    117  C         12.6590   12.8340  -13.6680 C.2   391  GLY391      0.2612
    118  O         11.5280   13.0550  -14.1040 O.2   391  GLY391     -0.2717
    119  N         13.7570   12.9600  -14.4020 N.am  392  LEU392     -0.1965
    120  CA        13.6880   13.2530  -15.8240 C.3   392  LEU392      0.1728
    121  C         13.8030   11.9670  -16.6430 C.2   392  LEU392      0.2616
    122  O         14.2220   10.9090  -16.1260 O.2   392  LEU392     -0.2715
    123  CB        14.7790   14.2520  -16.2310 C.3   392  LEU392      0.0311
    124  CG        14.6750   15.6470  -15.6030 C.3   392  LEU392      0.0022
    125  CD1       15.9450   16.4680  -15.8090 C.3   392  LEU392      0.0001
    126  CD2       13.4670   16.3890  -16.1570 C.3   392  LEU392      0.0001
    127  N         13.4230   12.0700  -17.9140 N.am  393  SER393     -0.1950
    128  CA        13.4150   10.9360  -18.8260 C.3   393  SER393      0.1924
    129  C         13.4740   11.4590  -20.2720 C.2   393  SER393      0.2314
    130  O         13.8960   12.6090  -20.5200 O.2   393  SER393     -0.2863
    131  CB        12.1750   10.0820  -18.6180 C.3   393  SER393      0.2116
    132  OG        11.0280   10.9020  -18.5690 O.3   393  SER393     -0.2180
@<TRIPOS>BOND
     1   130   129    2
     2   129   128    1
     3     1     2    1
     4    50    51    1
     5    54    51    1
     6    14    15    2
     7    14    13    1
     8   128   131    1
     9   128   127    1
    10     2     3    1
    11     2     5    1
    12    51    52    1
    13   131   132    1
    14     4     3    2
    15     3    12   am
    16    12    13    1
    17     5     6    1
    18    52    53    2
    19    13    16    1
    20   127   121   am
    21    16    17    1
    22   121   122    2
    23   121   120    1
    24     6     8   ar
    25     6     7   ar
    26    68    66    1
    27   123   120    1
    28   123   124    1
    29   126   124    1
    30     8    10   ar
    31   120   119    1
    32   125   124    1
    33     7     9   ar
    34   113   112    2
    35    17    18   ar
    36    17    19   ar
    37    66    65    1
    38    18    20   ar
    39    55    56    1
    40    19    21   ar
    41    10    11   ar
    42    60    59    1
    43    65    67    1
    44    65    62    1
    45     9    11   ar
    46   119   117   am
    47   112   111    1
    48    59    56    1
    49   118   117    2
    50    61    62    1
    51    61    57   am
    52    20    22   ar
    53    56    57    1
    54   117   116    1
    55   111   114    1
    56   111   110    1
    57    21    22   ar
    58    23    24    1
    59    62    63    1
    60    57    58    2
    61    27    24    1
    62    27    28    1
    63    63    64    2
    64    24    25    1
    65   116   115    1
    66    30    28   ar
    67    30    32   ar
    68    28    29   ar
    69    34    25   am
    70    34    35    1
    71   106   105    2
    72    25    26    2
    73    40    39    1
    74    40    41    1
    75    32    33   ar
    76    39    38    1
    77    29    31   ar
    78    38    35    1
    79    99    98    2
    80   105   104    1
    81    35    36    1
    82    33    31   ar
    83   104   107    1
    84   104   103    1
    85   102   100    1
    86    36    37    2
    87    69    70    1
    88    73    70    1
    89    73    74    1
    90   107   108    1
    91    98   103   am
    92    98    97    1
    93   103   109    1
    94    70    71    1
    95    74    76   ar
    96    74    75   ar
    97   100    97    1
    98   100   101    1
    99    97    96    1
   100    76    78   ar
   101    75    77   ar
   102    71    72    2
   103   108   109    1
   104    42    43    1
   105    78    79   ar
   106    77    79   ar
   107    46    43    1
   108    46    47    1
   109    43    44    1
   110    48    47    1
   111    48    49    1
   112    87    85    1
   113    44    45    2
   114    84    85    1
   115    84    81    1
   116    85    86    1
   117    80    81    1
   118    81    82    1
   119    82    83    2
   120    95    93    1
   121    93    92    1
   122    94    92    1
   123    92    89    1
   124    88    89    1
   125    89    90    1
   126    90    91    2
