@<TRIPOS>MOLECULE
tmp/5oxlA07.pdb
 119 120 0 0 0
SMALL
GASTEIGER

@<TRIPOS>ATOM
      1  N          6.1860   13.5600  -14.8060 N.3   331  TRP331     -0.1241
      2  CA         6.4670   14.5070  -15.8780 C.3   331  TRP331      0.1605
      3  C          6.0570   13.9680  -17.2470 C.2   331  TRP331      0.2264
      4  O          5.8890   14.7360  -18.1940 O.2   331  TRP331     -0.2867
      5  CB         7.9490   14.8900  -15.8820 C.3   331  TRP331      0.0550
      6  CG         8.4060   15.5290  -14.6000 C.ar  331  TRP331      0.0003
      7  CD1        9.4630   15.1480  -13.8270 C.ar  331  TRP331      0.0946
      8  CD2        7.8120   16.6530  -13.9360 C.ar  331  TRP331      0.0152
      9  NE1        9.5680   15.9640  -12.7280 N.ar  331  TRP331     -0.2442
     10  CE2        8.5640   16.8950  -12.7690 C.ar  331  TRP331      0.0810
     11  CE3        6.7180   17.4800  -14.2150 C.ar  331  TRP331      0.0012
     12  CZ2        8.2620   17.9300  -11.8870 C.ar  331  TRP331      0.0191
     13  CZ3        6.4180   18.5030  -13.3360 C.ar  331  TRP331      0.0001
     14  CH2        7.1870   18.7200  -12.1870 C.ar  331  TRP331      0.0015
     15  N          4.1920   23.4360  -15.7280 N.3   335  PRO335     -0.2102
     16  CA         4.8440   24.2890  -14.7280 C.3   335  PRO335      0.1504
     17  C          6.1130   24.9320  -15.2720 C.2   335  PRO335      0.2576
     18  O          7.0040   24.2210  -15.7360 O.2   335  PRO335     -0.2718
     19  CB         5.1780   23.3160  -13.5880 C.3   335  PRO335      0.0282
     20  CG         4.3850   22.0780  -13.8680 C.3   335  PRO335      0.0208
     21  CD         4.2370   22.0150  -15.3500 C.3   335  PRO335      0.0893
     22  N          6.1950   26.2560  -15.2130 N.am  336  SER336     -0.1938
     23  CA         7.3690   26.9670  -15.7050 C.3   336  SER336      0.2055
     24  C          8.5640   26.7740  -14.7750 C.2   336  SER336      0.2643
     25  O          8.4220   26.2640  -13.6630 O.2   336  SER336     -0.2714
     26  CB         7.0660   28.4580  -15.8630 C.3   336  SER336      0.2130
     27  OG         6.8000   29.0610  -14.6090 O.3   336  SER336     -0.2179
     28  N          9.7400   27.1780  -15.2430 N.am  337  SER337     -0.1949
     29  CA        10.9530   27.1380  -14.4280 C.3   337  SER337      0.1924
     30  C         10.9120   28.0890  -13.2210 C.2   337  SER337      0.2314
     31  O         11.3650   27.7160  -12.1390 O.2   337  SER337     -0.2863
     32  CB        12.1850   27.4490  -15.2860 C.3   337  SER337      0.2116
     33  OG        12.3800   26.4630  -16.2840 O.3   337  SER337     -0.2180
     34  N          8.8030   26.3980  -10.3600 N.3   340  LYS340     -0.1231
     35  CA         9.4620   25.2940   -9.6730 C.3   340  LYS340      0.1693
     36  C         10.5190   25.7870   -8.6920 C.2   340  LYS340      0.2592
     37  O         10.7540   25.1650   -7.6580 O.2   340  LYS340     -0.2718
     38  CB        10.0880   24.3360  -10.6860 C.3   340  LYS340      0.0285
     39  CG         9.0770   23.7090  -11.6280 C.3   340  LYS340      0.0035
     40  CD         9.6940   22.6050  -12.4670 C.3   340  LYS340      0.0206
     41  CE        10.8750   23.1050  -13.2790 C.3   340  LYS340      0.1093
     42  NZ        11.3080   22.0830  -14.2740 N.3   340  LYS340     -0.1314
     43  N         11.1530   26.9080   -9.0180 N.am  341  PHE341     -0.1976
     44  CA        12.1380   27.5110   -8.1290 C.3   341  PHE341      0.1639
     45  C         11.4590   28.2120   -6.9580 C.2   341  PHE341      0.2290
     46  O         12.0660   28.4230   -5.9080 O.2   341  PHE341     -0.2864
     47  CB        13.0230   28.4930   -8.8970 C.3   341  PHE341      0.0560
     48  CG        14.1990   27.8460   -9.5690 C.ar  341  PHE341     -0.0200
     49  CD1       14.0150   26.8300  -10.4930 C.ar  341  PHE341     -0.0042
     50  CD2       15.4890   28.2560   -9.2790 C.ar  341  PHE341     -0.0042
     51  CE1       15.0970   26.2320  -11.1110 C.ar  341  PHE341     -0.0003
     52  CE2       16.5750   27.6640   -9.8960 C.ar  341  PHE341     -0.0003
     53  CZ        16.3790   26.6510  -10.8130 C.ar  341  PHE341     -0.0000
     54  N         13.1830   18.0940   -5.8410 N.3   385  MET385     -0.1230
     55  CA        12.7570   17.3880   -7.0440 C.3   385  MET385      0.1702
     56  C         12.3030   18.3680   -8.1250 C.2   385  MET385      0.2592
     57  O         12.0620   17.9780   -9.2670 O.2   385  MET385     -0.2718
     58  CB        11.6290   16.4050   -6.7210 C.3   385  MET385      0.0401
     59  CG        12.0050   15.3240   -5.7170 C.3   385  MET385      0.0596
     60  SD        13.3460   14.2660   -6.2940 S.3   385  MET385     -0.1393
     61  CE        12.6220   13.6100   -7.7950 C.3   385  MET385      0.0692
     62  N         12.1880   19.6410   -7.7570 N.am  386  LEU386     -0.1966
     63  CA        11.7790   20.6820   -8.6900 C.3   386  LEU386      0.1728
     64  C         12.9700   21.5140   -9.1550 C.2   386  LEU386      0.2616
     65  O         12.8470   22.3320  -10.0650 O.2   386  LEU386     -0.2715
     66  CB        10.7290   21.5880   -8.0470 C.3   386  LEU386      0.0311
     67  CG         9.4530   20.9080   -7.5500 C.3   386  LEU386      0.0022
     68  CD1        8.5390   21.9190   -6.8810 C.3   386  LEU386      0.0001
     69  CD2        8.7340   20.2060   -8.6910 C.3   386  LEU386      0.0001
     70  N         14.1210   21.3020   -8.5230 N.am  387  ILE387     -0.1963
     71  CA        15.3340   22.0370   -8.8720 C.3   387  ILE387      0.1727
     72  C         16.4050   21.1120   -9.4410 C.2   387  ILE387      0.2617
     73  O         16.9780   21.3850  -10.4950 O.2   387  ILE387     -0.2715
     74  CB        15.9220   22.7780   -7.6520 C.3   387  ILE387      0.0290
     75  CG1       14.8070   23.3600   -6.7750 C.3   387  ILE387      0.0022
     76  CG2       16.8890   23.8620   -8.1070 C.3   387  ILE387      0.0023
     77  CD1       14.0670   24.5080   -7.4090 C.3   387  ILE387      0.0001
     78  N         16.6720   20.0180   -8.7360 N.am  388  SER388     -0.1936
     79  CA        17.6900   19.0610   -9.1510 C.3   388  SER388      0.2040
     80  C         17.2560   18.2660  -10.3900 C.2   388  SER388      0.2485
     81  O         16.0880   17.8940  -10.5200 O.2   388  SER388     -0.2729
     82  CB        18.0150   18.1090   -7.9960 C.3   388  SER388      0.2129
     83  OG        19.1370   17.3030   -8.3040 O.3   388  SER388     -0.2179
     84  N         18.2010   18.0100  -11.3080 N.am  389  PRO389     -0.2715
     85  CA        17.9930   17.2200  -12.5330 C.3   389  PRO389      0.1536
     86  C         17.6960   15.7260  -12.3140 C.2   389  PRO389      0.2598
     87  O         18.4310   14.8900  -12.8440 O.2   389  PRO389     -0.2715
     88  CB        19.3240   17.3860  -13.2820 C.3   389  PRO389      0.0310
     89  CG        20.3130   17.8640  -12.2420 C.3   389  PRO389      0.0237
     90  CD        19.5010   18.7010  -11.3140 C.3   389  PRO389      0.0939
     91  N         16.6370   15.4000  -11.5740 N.am  390  VAL390     -0.1978
     92  CA        16.2520   14.0070  -11.3130 C.3   390  VAL390      0.1596
     93  C         14.7450   13.8230  -11.5750 C.2   390  VAL390      0.2287
     94  O         13.9970   14.7910  -11.5080 O.2   390  VAL390     -0.2864
     95  CB        16.6150   13.5990   -9.8580 C.3   390  VAL390      0.0276
     96  CG1       15.9150   14.5080   -8.8470 C.3   390  VAL390      0.0022
     97  CG2       16.3050   12.1260   -9.5980 C.3   390  VAL390      0.0022
     98  N         13.7570   12.9600  -14.4020 N.3   392  LEU392     -0.1245
     99  CA        13.6880   13.2530  -15.8240 C.3   392  LEU392      0.1561
    100  C         13.8030   11.9670  -16.6430 C.2   392  LEU392      0.2260
    101  O         14.2220   10.9090  -16.1260 O.2   392  LEU392     -0.2867
    102  CB        14.7790   14.2520  -16.2310 C.3   392  LEU392      0.0270
    103  CG        14.6750   15.6470  -15.6030 C.3   392  LEU392      0.0019
    104  CD1       15.9450   16.4680  -15.8090 C.3   392  LEU392      0.0001
    105  CD2       13.4670   16.3890  -16.1570 C.3   392  LEU392      0.0001
    106  N         26.3190   26.3550  -12.6330 N.3   404  TRP404     -0.1241
    107  CA        25.1370   25.7650  -12.0280 C.3   404  TRP404      0.1605
    108  C         25.3150   25.5870  -10.5190 C.2   404  TRP404      0.2264
    109  O         24.3860   25.8370   -9.7570 O.2   404  TRP404     -0.2867
    110  CB        24.8200   24.4290  -12.7050 C.3   404  TRP404      0.0550
    111  CG        23.5090   23.8320  -12.3150 C.ar  404  TRP404      0.0003
    112  CD1       22.2760   24.1610  -12.8010 C.ar  404  TRP404      0.0946
    113  CD2       23.3010   22.7790  -11.3700 C.ar  404  TRP404      0.0152
    114  NE1       21.3120   23.3820  -12.2060 N.ar  404  TRP404     -0.2442
    115  CE2       21.9160   22.5250  -11.3240 C.ar  404  TRP404      0.0810
    116  CE3       24.1520   22.0290  -10.5550 C.ar  404  TRP404      0.0012
    117  CZ2       21.3640   21.5520  -10.4930 C.ar  404  TRP404      0.0191
    118  CZ3       23.6050   21.0660   -9.7330 C.ar  404  TRP404      0.0001
    119  CH2       22.2240   20.8340   -9.7070 C.ar  404  TRP404      0.0015
@<TRIPOS>BOND
     1     4     3    2
     2     3     2    1
     3   100   101    2
     4   100    99    1
     5    33    32    1
     6   102    99    1
     7   102   103    1
     8   105   103    1
     9     5     2    1
    10     5     6    1
    11     2     1    1
    12    26    23    1
    13    26    27    1
    14    99    98    1
    15   104   103    1
    16    18    17    2
    17    15    21    1
    18    15    16    1
    19    23    22    1
    20    23    24    1
    21    21    20    1
    22    32    29    1
    23    17    22   am
    24    17    16    1
    25    28    24   am
    26    28    29    1
    27    24    25    2
    28    16    19    1
    29     6     8   ar
    30     6     7   ar
    31    29    30    1
    32    42    41    1
    33    11     8   ar
    34    11    13   ar
    35     8    10   ar
    36    20    19    1
    37     7     9   ar
    38    13    14   ar
    39    88    85    1
    40    88    89    1
    41    41    40    1
    42    30    31    2
    43    87    86    2
    44   112   111   ar
    45   112   114   ar
    46    10     9   ar
    47    10    12   ar
    48   110   111    1
    49   110   107    1
    50   106   107    1
    51    85    86    1
    52    85    84    1
    53    40    39    1
    54   111   113   ar
    55    86    91   am
    56    89    90    1
    57   114   115   ar
    58    14    12   ar
    59   107   108    1
    60    39    38    1
    61    93    94    2
    62    93    92    1
    63    91    92    1
    64   113   115   ar
    65   113   116   ar
    66   115   117   ar
    67    90    84    1
    68    92    95    1
    69    84    80   am
    70    51    53   ar
    71    51    49   ar
    72    53    52   ar
    73    38    35    1
    74   116   118   ar
    75    81    80    2
    76   108   109    2
    77    73    72    2
    78    49    48   ar
    79   117   119   ar
    80    80    79    1
    81    34    35    1
    82    65    64    2
    83    52    50   ar
    84    95    97    1
    85    95    96    1
    86   118   119   ar
    87    35    36    1
    88    48    50   ar
    89    48    47    1
    90    72    71    1
    91    72    78   am
    92    57    56    2
    93    64    63    1
    94    64    70   am
    95    79    78    1
    96    79    82    1
    97    43    36   am
    98    43    44    1
    99    47    44    1
   100    71    70    1
   101    71    74    1
   102    36    37    2
   103    69    67    1
   104    63    66    1
   105    63    62    1
   106    83    82    1
   107    44    45    1
   108    56    62   am
   109    56    55    1
   110    76    74    1
   111    66    67    1
   112    61    60    1
   113    74    75    1
   114    67    68    1
   115    77    75    1
   116    55    58    1
   117    55    54    1
   118    45    46    2
   119    58    59    1
   120    60    59    1
