@<TRIPOS>MOLECULE
tmp/5oxlA06.pdb
 96 94 0 0 0
SMALL
GASTEIGER

@<TRIPOS>ATOM
      1  N         30.7730   16.6740   14.1130 N.3    34  TYR34      -0.1241
      2  CA        30.8820   15.9630   15.3810 C.3    34  TYR34       0.1605
      3  C         32.3480   15.7830   15.7660 C.2    34  TYR34       0.2264
      4  O         32.6950   15.7650   16.9490 O.2    34  TYR34      -0.2867
      5  CB        30.1810   14.6050   15.2960 C.3    34  TYR34       0.0534
      6  CG        28.7130   14.6890   14.9320 C.ar   34  TYR34      -0.0201
      7  CD1       27.9530   15.8040   15.2690 C.ar   34  TYR34      -0.0009
      8  CD2       28.0870   13.6530   14.2510 C.ar   34  TYR34      -0.0009
      9  CE1       26.6130   15.8840   14.9380 C.ar   34  TYR34       0.0417
     10  CE2       26.7490   13.7230   13.9160 C.ar   34  TYR34       0.0417
     11  CZ        26.0150   14.8400   14.2610 C.ar   34  TYR34       0.1957
     12  OH        24.6800   14.9090   13.9270 O.3    34  TYR34      -0.2866
     13  N         33.4030   19.0690   17.0860 N.3    37  TRP37      -0.1227
     14  CA        32.8380   19.0940   18.4310 C.3    37  TRP37       0.1737
     15  C         33.7440   18.3280   19.3910 C.2    37  TRP37       0.2595
     16  O         34.0290   18.7870   20.4980 O.2    37  TRP37      -0.2718
     17  CB        31.4300   18.4880   18.4510 C.3    37  TRP37       0.0564
     18  CG        30.3600   19.3610   17.8570 C.ar   37  TRP37       0.0003
     19  CD1       30.5320   20.5400   17.1910 C.ar   37  TRP37       0.0946
     20  CD2       28.9470   19.1200   17.8840 C.ar   37  TRP37       0.0152
     21  NE1       29.3150   21.0450   16.7990 N.ar   37  TRP37      -0.2442
     22  CE2       28.3260   20.1920   17.2130 C.ar   37  TRP37       0.0810
     23  CE3       28.1470   18.0990   18.4100 C.ar   37  TRP37       0.0012
     24  CZ2       26.9440   20.2740   17.0540 C.ar   37  TRP37       0.0191
     25  CZ3       26.7760   18.1820   18.2510 C.ar   37  TRP37       0.0001
     26  CH2       26.1880   19.2620   17.5790 C.ar   37  TRP37       0.0015
     27  N         34.1970   17.1600   18.9470 N.am   38  PHE38      -0.1976
     28  CA        35.0610   16.3010   19.7490 C.3    38  PHE38       0.1639
     29  C         36.4080   16.9560   20.0370 C.2    38  PHE38       0.2290
     30  O         36.9180   16.8730   21.1540 O.2    38  PHE38      -0.2864
     31  CB        35.2710   14.9570   19.0450 C.3    38  PHE38       0.0560
     32  CG        36.2760   14.0720   19.7210 C.ar   38  PHE38      -0.0200
     33  CD1       35.9480   13.3880   20.8790 C.ar   38  PHE38      -0.0042
     34  CD2       37.5500   13.9190   19.1960 C.ar   38  PHE38      -0.0042
     35  CE1       36.8730   12.5710   21.5050 C.ar   38  PHE38      -0.0003
     36  CE2       38.4790   13.1040   19.8170 C.ar   38  PHE38      -0.0003
     37  CZ        38.1400   12.4290   20.9720 C.ar   38  PHE38      -0.0000
     38  N         31.3710   26.2500   18.9560 N.3    49  ARG49      -0.1245
     39  CA        30.5270   25.3940   18.1320 C.3    49  ARG49       0.1563
     40  C         29.8990   26.2020   17.0010 C.2    49  ARG49       0.2260
     41  O         29.6080   25.6690   15.9300 O.2    49  ARG49      -0.2867
     42  CB        29.4420   24.7240   18.9760 C.3    49  ARG49       0.0307
     43  CG        29.9540   23.6390   19.9100 C.3    49  ARG49       0.0489
     44  CD        28.7980   22.8380   20.4880 C.3    49  ARG49       0.2205
     45  NE        29.2410   21.6110   21.1430 N.pl3  49  ARG49      -0.0865
     46  CZ        28.4220   20.6490   21.5550 C.cat  49  ARG49       0.5346
     47  NH1       27.1140   20.7680   21.3740 N.pl3  49  ARG49       0.1354
     48  NH2       28.9110   19.5650   22.1440 N.pl3  49  ARG49       0.1354
     49  N         32.6030    5.0140   12.6590 N.3   166  GLN166     -0.1231
     50  CA        33.0920    6.0750   13.5360 C.3   166  GLN166      0.1698
     51  C         32.7570    5.7970   14.9980 C.2   166  GLN166      0.2592
     52  O         33.5770    6.0180   15.8900 O.2   166  GLN166     -0.2718
     53  CB        32.5070    7.4280   13.1080 C.3   166  GLN166      0.0381
     54  CG        33.0200    8.6250   13.8990 C.3   166  GLN166      0.0905
     55  CD        32.1990    8.9200   15.1430 C.2   166  GLN166      0.2608
     56  OE1       32.7090    8.8690   16.2620 O.2   166  GLN166     -0.2717
     57  NE2       30.9260    9.2370   14.9520 N.am  166  GLN166     -0.0878
     58  N         31.5440    5.3130   15.2360 N.am  167  GLU167     -0.1979
     59  CA        31.0770    5.0810   16.5960 C.3   167  GLU167      0.1602
     60  C         31.6090    3.7740   17.1750 C.2   167  GLU167      0.2287
     61  O         31.5550    3.5620   18.3840 O.2   167  GLU167     -0.2864
     62  CB        29.5460    5.0880   16.6410 C.3   167  GLU167      0.0415
     63  CG        28.9230    6.4150   16.2310 C.3   167  GLU167      0.1163
     64  CD        27.5830    6.6550   16.8950 C.2   167  GLU167      0.3649
     65  OE1       27.0850    7.7970   16.8350 O.co2 167  GLU167     -0.2457
     66  OE2       27.0350    5.7000   17.4790 O.co2 167  GLU167     -0.2457
     67  N         37.0360    8.0390   14.7450 N.3   171  TYR171     -0.1241
     68  CA        37.0320    8.9730   13.6200 C.3   171  TYR171      0.1605
     69  C         38.0960    8.6630   12.5650 C.2   171  TYR171      0.2264
     70  O         37.8100    8.6750   11.3670 O.2   171  TYR171     -0.2867
     71  CB        37.2190   10.4050   14.1280 C.3   171  TYR171      0.0534
     72  CG        36.0030   10.9620   14.8310 C.ar  171  TYR171     -0.0201
     73  CD1       34.9680   11.5440   14.1090 C.ar  171  TYR171     -0.0009
     74  CD2       35.8870   10.9080   16.2140 C.ar  171  TYR171     -0.0009
     75  CE1       33.8490   12.0510   14.7430 C.ar  171  TYR171      0.0417
     76  CE2       34.7720   11.4150   16.8580 C.ar  171  TYR171      0.0417
     77  CZ        33.7570   11.9850   16.1170 C.ar  171  TYR171      0.1957
     78  OH        32.6450   12.4900   16.7510 O.3   171  TYR171     -0.2866
     79  N         21.7150   15.6020   16.9710 N.3   299  ALA299     -0.1245
     80  CA        22.5840   15.1480   18.0470 C.3   299  ALA299      0.1562
     81  C         22.1150   15.6210   19.4200 C.2   299  ALA299      0.2260
     82  O         22.2720   14.9120   20.4140 O.2   299  ALA299     -0.2867
     83  CB        24.0060   15.6140   17.7930 C.3   299  ALA299      0.0290
     84  N         23.8170    8.7440   15.1930 N.3   309  VAL309     -0.1231
     85  CA        23.0260    9.9250   14.8620 C.3   309  VAL309      0.1692
     86  C         23.4340   10.5120   13.5090 C.2   309  VAL309      0.2592
     87  O         22.6900   11.2830   12.9040 O.2   309  VAL309     -0.2718
     88  CB        23.1550   11.0050   15.9600 C.3   309  VAL309      0.0266
     89  CG1       24.5160   11.6710   15.8940 C.3   309  VAL309      0.0020
     90  CG2       22.0480   12.0370   15.8370 C.3   309  VAL309      0.0020
     91  N         24.6140   10.1320   13.0290 N.am  310  SER310     -0.1952
     92  CA        25.0950   10.5780   11.7270 C.3   310  SER310      0.1924
     93  C         24.2450   10.0130   10.5900 C.2   310  SER310      0.2314
     94  O         24.2700   10.5240    9.4710 O.2   310  SER310     -0.2863
     95  CB        26.5570   10.1740   11.5360 C.3   310  SER310      0.2116
     96  OG        26.7250    8.7760   11.7150 O.3   310  SER310     -0.2180
@<TRIPOS>BOND
     1    94    93    2
     2    93    92    1
     3    70    69    2
     4    95    96    1
     5    95    92    1
     6    92    91    1
     7    69    68    1
     8    49    50    1
     9    87    86    2
    10    91    86   am
    11    53    50    1
    12    53    54    1
    13    86    85    1
    14    50    51    1
    15    68    71    1
    16    68    67    1
    17    54    55    1
    18    10     8   ar
    19    10    11   ar
    20    12    11    1
    21    73    75   ar
    22    73    72   ar
    23     1     2    1
    24    71    72    1
    25     8     6   ar
    26    11     9   ar
    27    75    77   ar
    28    72    74   ar
    29    85    84    1
    30    85    88    1
    31     6     7   ar
    32     6     5    1
    33     9     7   ar
    34    57    55   am
    35    51    58   am
    36    51    52    2
    37    55    56    2
    38    58    59    1
    39     5     2    1
    40     2     3    1
    41     3     4    2
    42    90    88    1
    43    89    88    1
    44    41    40    2
    45    77    78    1
    46    77    76   ar
    47    74    76   ar
    48    63    62    1
    49    63    64    1
    50    59    62    1
    51    59    60    1
    52    21    19   ar
    53    21    22   ar
    54    65    64   ar
    55    64    66   ar
    56    79    80    1
    57    40    39    1
    58    24    22   ar
    59    24    26   ar
    60    13    14    1
    61    60    61    2
    62    19    18   ar
    63    22    20   ar
    64    26    25   ar
    65    83    80    1
    66    18    20   ar
    67    18    17    1
    68    20    23   ar
    69    80    81    1
    70    39    38    1
    71    39    42    1
    72    25    23   ar
    73    14    17    1
    74    14    15    1
    75    27    15   am
    76    27    28    1
    77    42    43    1
    78    31    32    1
    79    31    28    1
    80    34    32   ar
    81    34    36   ar
    82    15    16    2
    83    81    82    2
    84    32    33   ar
    85    28    29    1
    86    36    37   ar
    87    43    44    1
    88    29    30    2
    89    44    45    1
    90    33    35   ar
    91    37    35   ar
    92    45    46    2
    93    47    46    1
    94    46    48    1
