@<TRIPOS>MOLECULE
tmp/5oxmA16.pdb
 111 105 0 0 0
SMALL
GASTEIGER

@<TRIPOS>ATOM
      1  N         42.1610   21.8780    7.9830 N.3   107  PHE107     -0.1241
      2  CA        42.3070   22.8230    6.8820 C.3   107  PHE107      0.1605
      3  C         42.8640   22.1210    5.6500 C.2   107  PHE107      0.2264
      4  O         42.3860   22.3340    4.5360 O.2   107  PHE107     -0.2867
      5  CB        43.2070   23.9930    7.2770 C.3   107  PHE107      0.0534
      6  CG        43.3630   25.0220    6.1960 C.ar  107  PHE107     -0.0203
      7  CD1       42.3200   25.8760    5.8910 C.ar  107  PHE107     -0.0042
      8  CD2       44.5430   25.1280    5.4790 C.ar  107  PHE107     -0.0042
      9  CE1       42.4450   26.8220    4.8960 C.ar  107  PHE107     -0.0003
     10  CE2       44.6760   26.0740    4.4790 C.ar  107  PHE107     -0.0003
     11  CZ        43.6240   26.9230    4.1900 C.ar  107  PHE107     -0.0000
     12  N         40.9330   21.8180    2.0450 N.3   111  ILE111     -0.1245
     13  CA        41.5140   22.3730    0.8250 C.3   111  ILE111      0.1561
     14  C         41.6600   21.3140   -0.2680 C.2   111  ILE111      0.2260
     15  O         41.3390   21.5650   -1.4290 O.2   111  ILE111     -0.2867
     16  CB        42.8980   23.0160    1.0970 C.3   111  ILE111      0.0252
     17  CG1       42.7510   24.2280    2.0130 C.3   111  ILE111      0.0019
     18  CG2       43.5640   23.4360   -0.2020 C.3   111  ILE111      0.0019
     19  CD1       41.8800   25.3160    1.4370 C.3   111  ILE111      0.0001
     20  N         38.1570   20.4720   -1.4530 N.3   114  ILE114     -0.1231
     21  CA        37.6500   21.5970   -2.2310 C.3   114  ILE114      0.1692
     22  C         38.2270   21.5860   -3.6410 C.2   114  ILE114      0.2591
     23  O         37.4920   21.6490   -4.6270 O.2   114  ILE114     -0.2718
     24  CB        37.9750   22.9520   -1.5770 C.3   114  ILE114      0.0266
     25  CG1       37.0460   23.2230   -0.3970 C.3   114  ILE114      0.0019
     26  CG2       37.8340   24.0830   -2.5910 C.3   114  ILE114      0.0020
     27  CD1       37.4850   24.4160    0.4230 C.3   114  ILE114      0.0001
     28  N         39.5480   21.4910   -3.7380 N.am  115  ILE115     -0.1980
     29  CA        40.1920   21.4960   -5.0420 C.3   115  ILE115      0.1595
     30  C         39.8000   20.2560   -5.8390 C.2   115  ILE115      0.2287
     31  O         39.4190   20.3490   -7.0070 O.2   115  ILE115     -0.2864
     32  CB        41.7240   21.5700   -4.9140 C.3   115  ILE115      0.0276
     33  CG1       42.1290   22.8810   -4.2330 C.3   115  ILE115      0.0022
     34  CG2       42.3700   21.4380   -6.2870 C.3   115  ILE115      0.0022
     35  CD1       43.5930   22.9650   -3.8830 C.3   115  ILE115      0.0001
     36  N         44.2240   36.5490   -7.1270 N.3   223  VAL223     -0.1245
     37  CA        44.9840   36.0220   -6.0010 C.3   223  VAL223      0.1561
     38  C         45.6670   37.1510   -5.2180 C.2   223  VAL223      0.2260
     39  O         45.6080   37.1840   -3.9880 O.2   223  VAL223     -0.2867
     40  CB        46.0350   35.0040   -6.4710 C.3   223  VAL223      0.0252
     41  CG1       46.9340   34.5900   -5.3190 C.3   223  VAL223      0.0019
     42  CG2       45.3520   33.7890   -7.0850 C.3   223  VAL223      0.0019
     43  N         43.0070   39.0210   -3.3220 N.3   226  PHE226     -0.1241
     44  CA        42.5800   38.1940   -2.2020 C.3   226  PHE226      0.1605
     45  C         43.6300   38.1890   -1.0930 C.2   226  PHE226      0.2264
     46  O         43.3020   38.2800    0.0890 O.2   226  PHE226     -0.2867
     47  CB        42.3000   36.7720   -2.6870 C.3   226  PHE226      0.0534
     48  CG        41.7410   35.8600   -1.6290 C.ar  226  PHE226     -0.0203
     49  CD1       40.4190   35.9660   -1.2290 C.ar  226  PHE226     -0.0042
     50  CD2       42.5340   34.8780   -1.0540 C.ar  226  PHE226     -0.0042
     51  CE1       39.9030   35.1170   -0.2710 C.ar  226  PHE226     -0.0003
     52  CE2       42.0260   34.0270   -0.0920 C.ar  226  PHE226     -0.0003
     53  CZ        40.7080   34.1460    0.3030 C.ar  226  PHE226     -0.0000
     54  N         43.4510   39.9130    2.7950 N.3   230  ILE230     -0.1245
     55  CA        43.8190   39.1450    3.9780 C.3   230  ILE230      0.1561
     56  C         44.9080   39.8490    4.7880 C.2   230  ILE230      0.2260
     57  O         44.8440   39.8980    6.0220 O.2   230  ILE230     -0.2867
     58  CB        44.2900   37.7290    3.5940 C.3   230  ILE230      0.0252
     59  CG1       43.1090   36.9140    3.0630 C.3   230  ILE230      0.0019
     60  CG2       44.9090   37.0240    4.7900 C.3   230  ILE230      0.0019
     61  CD1       43.4530   35.4840    2.7200 C.3   230  ILE230      0.0001
     62  N         41.1710   38.9150   12.0930 N.3   239  ASN239     -0.1225
     63  CA        41.8500   37.7000   11.6950 C.3   239  ASN239      0.1785
     64  C         41.4210   36.4870   12.5020 C.2   239  ASN239      0.2598
     65  O         42.1830   35.5350   12.6490 O.2   239  ASN239     -0.2718
     66  CB        43.3570   37.8970   11.8150 C.3   239  ASN239      0.1169
     67  CG        43.7670   38.4150   13.1780 C.2   239  ASN239      0.2627
     68  OD1       42.9240   38.7750   13.9980 O.2   239  ASN239     -0.2716
     69  ND2       45.0710   38.4630   13.4240 N.am  239  ASN239     -0.0877
     70  N         40.2050   36.5250   13.0360 N.am  240  SER240     -0.1938
     71  CA        39.6320   35.3500   13.6790 C.3   240  SER240      0.2055
     72  C         39.1110   34.4350   12.5830 C.2   240  SER240      0.2642
     73  O         38.9570   34.8600   11.4380 O.2   240  SER240     -0.2714
     74  CB        38.5120   35.7320   14.6430 C.3   240  SER240      0.2130
     75  OG        37.3550   36.1350   13.9380 O.3   240  SER240     -0.2179
     76  N         38.8600   33.1780   12.9270 N.am  241  LEU241     -0.1977
     77  CA        38.2830   32.2350   11.9760 C.3   241  LEU241      0.1596
     78  C         36.9390   32.7190   11.4050 C.2   241  LEU241      0.2287
     79  O         36.7280   32.6340   10.1940 O.2   241  LEU241     -0.2864
     80  CB        38.1270   30.8550   12.6260 C.3   241  LEU241      0.0297
     81  CG        37.6050   29.7180   11.7470 C.3   241  LEU241      0.0022
     82  CD1       38.3960   29.6400   10.4500 C.3   241  LEU241      0.0001
     83  CD2       37.6810   28.4000   12.5010 C.3   241  LEU241      0.0001
     84  N         37.5740   35.1500    8.6240 N.3   244  TYR244     -0.1241
     85  CA        37.9320   34.4860    7.3750 C.3   244  TYR244      0.1605
     86  C         36.7190   33.8890    6.6910 C.2   244  TYR244      0.2264
     87  O         36.6160   33.8900    5.4650 O.2   244  TYR244     -0.2867
     88  CB        38.9610   33.3920    7.6250 C.3   244  TYR244      0.0534
     89  CG        40.3500   33.9140    7.8330 C.ar  244  TYR244     -0.0201
     90  CD1       41.0560   34.4830    6.7850 C.ar  244  TYR244     -0.0009
     91  CD2       40.9600   33.8350    9.0740 C.ar  244  TYR244     -0.0009
     92  CE1       42.3250   34.9600    6.9660 C.ar  244  TYR244      0.0417
     93  CE2       42.2330   34.3100    9.2620 C.ar  244  TYR244      0.0417
     94  CZ        42.9060   34.8710    8.2000 C.ar  244  TYR244      0.1957
     95  OH        44.1720   35.3510    8.3490 O.3   244  TYR244     -0.2866
     96  N         34.9430   36.6840    4.9720 N.3   247  LEU247     -0.1231
     97  CA        35.6150   37.0270    3.7250 C.3   247  LEU247      0.1693
     98  C         35.1600   36.0890    2.6170 C.2   247  LEU247      0.2591
     99  O         34.7460   36.5290    1.5430 O.2   247  LEU247     -0.2718
    100  CB        37.1330   36.9570    3.8830 C.3   247  LEU247      0.0284
    101  CG        37.9150   36.9130    2.5670 C.3   247  LEU247      0.0019
    102  CD1       37.7250   38.2020    1.7750 C.3   247  LEU247      0.0001
    103  CD2       39.3930   36.6330    2.8190 C.3   247  LEU247      0.0001
    104  N         35.2380   34.7920    2.9000 N.am  248  LEU248     -0.1980
    105  CA        34.7950   33.7570    1.9790 C.3   248  LEU248      0.1596
    106  C         33.3090   33.9070    1.6490 C.2   248  LEU248      0.2287
    107  O         32.8990   33.7360    0.5000 O.2   248  LEU248     -0.2864
    108  CB        35.0770   32.3790    2.5730 C.3   248  LEU248      0.0297
    109  CG        36.5610   32.0610    2.7720 C.3   248  LEU248      0.0022
    110  CD1       36.7510   30.6980    3.4120 C.3   248  LEU248      0.0001
    111  CD2       37.2930   32.1240    1.4470 C.3   248  LEU248      0.0001
@<TRIPOS>BOND
     1    36    37    1
     2    42    40    1
     3    31    30    2
     4    40    37    1
     5    40    41    1
     6    34    32    1
     7    37    38    1
     8    30    29    1
     9    38    39    2
    10    29    32    1
    11    29    28    1
    12    32    33    1
    13    23    22    2
    14    33    35    1
    15    28    22   am
    16    22    21    1
    17    43    44    1
    18    47    44    1
    19    47    48    1
    20    26    24    1
    21    21    24    1
    22    21    20    1
    23    44    45    1
    24    48    49   ar
    25    48    50   ar
    26    24    25    1
    27    15    14    2
    28    49    51   ar
    29    45    46    2
    30    50    52   ar
    31    25    27    1
    32    51    53   ar
    33    14    13    1
    34    18    16    1
    35    52    53   ar
    36   107   106    2
    37    13    16    1
    38    13    12    1
    39    16    17    1
    40    19    17    1
    41   111   109    1
    42    99    98    2
    43   106   105    1
    44   102   101    1
    45   105   108    1
    46   105   104    1
    47   101   103    1
    48   101   100    1
    49   108   109    1
    50    98   104   am
    51    98    97    1
    52    61    59    1
    53   109   110    1
    54    54    55    1
    55    59    58    1
    56    58    55    1
    57    58    60    1
    58    97   100    1
    59    97    96    1
    60    55    56    1
    61    11    10   ar
    62    11     9   ar
    63    10     8   ar
    64     4     3    2
    65    56    57    2
    66     9     7   ar
    67    87    86    2
    68     8     6   ar
    69     3     2    1
    70     7     6   ar
    71     6     5    1
    72    86    85    1
    73    90    92   ar
    74    90    89   ar
    75     2     5    1
    76     2     1    1
    77    92    94   ar
    78    85    88    1
    79    85    84    1
    80    88    89    1
    81    89    91   ar
    82    94    95    1
    83    94    93   ar
    84    91    93   ar
    85    79    78    2
    86    82    81    1
    87    78    77    1
    88    73    72    2
    89    63    66    1
    90    63    62    1
    91    63    64    1
    92    81    83    1
    93    81    80    1
    94    66    67    1
    95    77    80    1
    96    77    76    1
    97    64    65    2
    98    64    70   am
    99    72    76   am
   100    72    71    1
   101    70    71    1
   102    67    69   am
   103    67    68    2
   104    71    74    1
   105    75    74    1
