@<TRIPOS>MOLECULE
tmp/5oxmA14.pdb
 95 89 0 0 0
SMALL
GASTEIGER

@<TRIPOS>ATOM
      1  N         42.9090   13.8110   -5.2860 N.3    89  LEU89      -0.1245
      2  CA        42.9490   14.8770   -4.2910 C.3    89  LEU89       0.1561
      3  C         41.8880   14.6830   -3.2050 C.2    89  LEU89       0.2260
      4  O         42.1580   14.8770   -2.0180 O.2    89  LEU89      -0.2867
      5  CB        42.7690   16.2350   -4.9660 C.3    89  LEU89       0.0270
      6  CG        43.9300   16.6890   -5.8490 C.3    89  LEU89       0.0019
      7  CD1       43.5580   17.9580   -6.6060 C.3    89  LEU89       0.0001
      8  CD2       45.1700   16.8970   -4.9980 C.3    89  LEU89       0.0001
      9  N         43.8500   12.4140    5.0140 N.3    96  VAL96      -0.1245
     10  CA        44.3680   13.4050    5.9500 C.3    96  VAL96       0.1561
     11  C         43.5910   13.3740    7.2660 C.2    96  VAL96       0.2260
     12  O         44.1700   13.5500    8.3390 O.2    96  VAL96      -0.2867
     13  CB        44.3330   14.8190    5.3330 C.3    96  VAL96       0.0252
     14  CG1       44.4450   15.8870    6.4030 C.3    96  VAL96       0.0019
     15  CG2       45.4590   14.9720    4.3180 C.3    96  VAL96       0.0019
     16  N         44.4170   10.0400    9.3160 N.3    99  LEU99      -0.1245
     17  CA        45.6940   10.0560   10.0160 C.3    99  LEU99       0.1561
     18  C         45.4850   10.3870   11.4940 C.2    99  LEU99       0.2260
     19  O         44.5010   11.0380   11.8480 O.2    99  LEU99      -0.2867
     20  CB        46.6430   11.0610    9.3590 C.3    99  LEU99       0.0270
     21  CG        47.1110   10.7250    7.9450 C.3    99  LEU99       0.0019
     22  CD1       48.0230   11.8120    7.4170 C.3    99  LEU99       0.0001
     23  CD2       47.8220    9.3950    7.9490 C.3    99  LEU99       0.0001
     24  N         45.8210   12.5540   13.5340 N.3   101  PHE101     -0.1241
     25  CA        45.9340   13.9670   13.8630 C.3   101  PHE101      0.1605
     26  C         44.5920   14.5190   14.3460 C.2   101  PHE101      0.2264
     27  O         43.5790   13.8240   14.3330 O.2   101  PHE101     -0.2867
     28  CB        46.4370   14.7600   12.6580 C.3   101  PHE101      0.0534
     29  CG        47.7930   14.3330   12.1750 C.ar  101  PHE101     -0.0203
     30  CD1       48.9070   14.4660   12.9870 C.ar  101  PHE101     -0.0042
     31  CD2       47.9580   13.8120   10.9050 C.ar  101  PHE101     -0.0042
     32  CE1       50.1590   14.0780   12.5440 C.ar  101  PHE101     -0.0003
     33  CE2       49.2040   13.4210   10.4550 C.ar  101  PHE101     -0.0003
     34  CZ        50.3070   13.5550   11.2750 C.ar  101  PHE101     -0.0000
     35  N         44.4790   20.1700   13.5530 N.3   104  SER104     -0.1202
     36  CA        45.5080   20.6960   12.6580 C.3   104  SER104      0.2020
     37  C         45.4290   20.1330   11.2400 C.2   104  SER104      0.2618
     38  O         46.0230   20.6830   10.3100 O.2   104  SER104     -0.2717
     39  CB        46.8900   20.4110   13.2410 C.3   104  SER104      0.2103
     40  OG        47.0420   19.0240   13.4710 O.3   104  SER104     -0.2182
     41  N         44.6970   19.0350   11.0810 N.am  105  ALA105     -0.1979
     42  CA        44.5910   18.3670    9.7880 C.3   105  ALA105      0.1597
     43  C         43.3460   18.8100    9.0150 C.2   105  ALA105      0.2287
     44  O         43.2010   18.5140    7.8320 O.2   105  ALA105     -0.2864
     45  CB        44.5850   16.8580    9.9840 C.3   105  ALA105      0.0319
     46  N         42.1610   21.8780    7.9830 N.3   107  PHE107     -0.1227
     47  CA        42.3070   22.8230    6.8820 C.3   107  PHE107      0.1736
     48  C         42.8640   22.1210    5.6500 C.2   107  PHE107      0.2596
     49  O         42.3860   22.3340    4.5360 O.2   107  PHE107     -0.2718
     50  CB        43.2070   23.9930    7.2770 C.3   107  PHE107      0.0547
     51  CG        43.3630   25.0220    6.1960 C.ar  107  PHE107     -0.0202
     52  CD1       42.3200   25.8760    5.8910 C.ar  107  PHE107     -0.0042
     53  CD2       44.5430   25.1280    5.4790 C.ar  107  PHE107     -0.0042
     54  CE1       42.4450   26.8220    4.8960 C.ar  107  PHE107     -0.0003
     55  CE2       44.6760   26.0740    4.4790 C.ar  107  PHE107     -0.0003
     56  CZ        43.6240   26.9230    4.1900 C.ar  107  PHE107     -0.0000
     57  N         43.8520   21.2580    5.8630 N.am  108  GLY108     -0.1957
     58  CA        44.4660   20.5160    4.7770 C.3   108  GLY108      0.1869
     59  C         43.4610   19.6330    4.0740 C.2   108  GLY108      0.2309
     60  O         43.3540   19.6390    2.8480 O.2   108  GLY108     -0.2863
     61  N         40.9330   21.8180    2.0450 N.3   111  ILE111     -0.1231
     62  CA        41.5140   22.3730    0.8250 C.3   111  ILE111      0.1692
     63  C         41.6600   21.3140   -0.2680 C.2   111  ILE111      0.2591
     64  O         41.3390   21.5650   -1.4290 O.2   111  ILE111     -0.2718
     65  CB        42.8980   23.0160    1.0970 C.3   111  ILE111      0.0266
     66  CG1       42.7510   24.2280    2.0130 C.3   111  ILE111      0.0019
     67  CG2       43.5640   23.4360   -0.2020 C.3   111  ILE111      0.0020
     68  CD1       41.8800   25.3160    1.4370 C.3   111  ILE111      0.0001
     69  N         42.1400   20.1330    0.1130 N.am  112  LEU112     -0.1980
     70  CA        42.3030   19.0230   -0.8230 C.3   112  LEU112      0.1596
     71  C         40.9580   18.6040   -1.4240 C.2   112  LEU112      0.2287
     72  O         40.8420   18.3890   -2.6300 O.2   112  LEU112     -0.2864
     73  CB        42.9720   17.8320   -0.1270 C.3   112  LEU112      0.0297
     74  CG        44.4750   17.9420    0.1650 C.3   112  LEU112      0.0022
     75  CD1       44.9200   16.8920    1.1640 C.3   112  LEU112      0.0001
     76  CD2       45.2880   17.8160   -1.1170 C.3   112  LEU112      0.0001
     77  N         39.5480   21.4910   -3.7380 N.3   115  ILE115     -0.1245
     78  CA        40.1920   21.4960   -5.0420 C.3   115  ILE115      0.1561
     79  C         39.8000   20.2560   -5.8390 C.2   115  ILE115      0.2260
     80  O         39.4190   20.3490   -7.0070 O.2   115  ILE115     -0.2867
     81  CB        41.7240   21.5700   -4.9140 C.3   115  ILE115      0.0252
     82  CG1       42.1290   22.8810   -4.2330 C.3   115  ILE115      0.0019
     83  CG2       42.3700   21.4380   -6.2870 C.3   115  ILE115      0.0019
     84  CD1       43.5930   22.9650   -3.8830 C.3   115  ILE115      0.0001
     85  N         37.5930   19.7090   -9.3600 N.3   119  PHE119     -0.1241
     86  CA        38.0990   19.0660  -10.5650 C.3   119  PHE119      0.1605
     87  C         37.1970   17.9350  -11.0450 C.2   119  PHE119      0.2264
     88  O         36.9660   17.7770  -12.2430 O.2   119  PHE119     -0.2867
     89  CB        39.5100   18.5320  -10.3210 C.3   119  PHE119      0.0534
     90  CG        40.5820   19.5680  -10.4760 C.ar  119  PHE119     -0.0203
     91  CD1       40.5170   20.4890  -11.5060 C.ar  119  PHE119     -0.0042
     92  CD2       41.6470   19.6280   -9.5940 C.ar  119  PHE119     -0.0042
     93  CE1       41.4950   21.4470  -11.6610 C.ar  119  PHE119     -0.0003
     94  CE2       42.6320   20.5860   -9.7440 C.ar  119  PHE119     -0.0003
     95  CZ        42.5540   21.4970  -10.7800 C.ar  119  PHE119     -0.0000
@<TRIPOS>BOND
     1    88    87    2
     2    93    91   ar
     3    93    95   ar
     4    91    90   ar
     5    87    86    1
     6    95    94   ar
     7    86    89    1
     8    86    85    1
     9    90    89    1
    10    90    92   ar
    11    94    92   ar
    12    80    79    2
    13     7     6    1
    14    83    81    1
    15     6     8    1
    16     6     5    1
    17    79    78    1
    18     1     2    1
    19    78    81    1
    20    78    77    1
    21     5     2    1
    22    81    82    1
    23     2     3    1
    24    82    84    1
    25     3     4    2
    26    72    71    2
    27    64    63    2
    28    71    70    1
    29    76    74    1
    30    70    73    1
    31    70    69    1
    32    63    69   am
    33    63    62    1
    34    67    65    1
    35    73    74    1
    36    74    75    1
    37    62    65    1
    38    62    61    1
    39    65    66    1
    40    68    66    1
    41    60    59    2
    42    59    58    1
    43    56    55   ar
    44    56    54   ar
    45    15    13    1
    46    55    53   ar
    47    49    48    2
    48    58    57    1
    49    54    52   ar
    50     9    10    1
    51    13    10    1
    52    13    14    1
    53    53    51   ar
    54    48    57   am
    55    48    47    1
    56    52    51   ar
    57    10    11    1
    58    51    50    1
    59    47    50    1
    60    47    46    1
    61    11    12    2
    62    22    21    1
    63    44    43    2
    64    21    23    1
    65    21    20    1
    66    43    42    1
    67    16    17    1
    68    20    17    1
    69    42    45    1
    70    42    41    1
    71    17    18    1
    72    38    37    2
    73    33    31   ar
    74    33    34   ar
    75    31    29   ar
    76    41    37   am
    77    37    36    1
    78    34    32   ar
    79    18    19    2
    80    29    28    1
    81    29    30   ar
    82    32    30   ar
    83    36    39    1
    84    36    35    1
    85    28    25    1
    86    39    40    1
    87    24    25    1
    88    25    26    1
    89    27    26    2
