@<TRIPOS>MOLECULE
tmp/5oxoA12.pdb
 136 127 0 0 0
SMALL
GASTEIGER

@<TRIPOS>ATOM
      1  N        -30.1760  -10.6140   -4.5110 N.3    22  ARG22      -0.1245
      2  CA       -29.1380  -11.2030   -3.6660 C.3    22  ARG22       0.1563
      3  C        -29.0950  -10.5050   -2.3070 C.2    22  ARG22       0.2260
      4  O        -28.8200  -11.1360   -1.2740 O.2    22  ARG22      -0.2867
      5  CB       -27.7730  -11.1330   -4.3600 C.3    22  ARG22       0.0307
      6  CG       -27.6590  -12.0150   -5.6200 C.3    22  ARG22       0.0489
      7  CD       -27.5150  -13.5120   -5.2820 C.3    22  ARG22       0.2205
      8  NE       -28.8010  -14.1530   -5.0090 N.pl3  22  ARG22      -0.0865
      9  CZ       -28.9440  -15.4210   -4.6260 C.cat  22  ARG22       0.5346
     10  NH1      -27.8770  -16.1970   -4.4620 N.pl3  22  ARG22       0.1354
     11  NH2      -30.1590  -15.9130   -4.4110 N.pl3  22  ARG22       0.1354
     12  N        -29.4000  -12.8430    0.9080 N.3    26  TYR26      -0.1241
     13  CA       -28.3290  -12.9310    1.8930 C.3    26  TYR26       0.1605
     14  C        -28.5950  -12.0830    3.1320 C.2    26  TYR26       0.2264
     15  O        -28.0110  -12.3250    4.1860 O.2    26  TYR26      -0.2867
     16  CB       -26.9920  -12.5620    1.2550 C.3    26  TYR26       0.0534
     17  CG       -26.4940  -13.6720    0.3620 C.ar   26  TYR26      -0.0201
     18  CD1      -26.1520  -14.9130    0.9000 C.ar   26  TYR26      -0.0009
     19  CD2      -26.4050  -13.5050   -1.0170 C.ar   26  TYR26      -0.0009
     20  CE1      -25.7110  -15.9550    0.0860 C.ar   26  TYR26       0.0417
     21  CE2      -25.9590  -14.5350   -1.8360 C.ar   26  TYR26       0.0417
     22  CZ       -25.6160  -15.7530   -1.2790 C.ar   26  TYR26       0.1957
     23  OH       -25.1740  -16.7780   -2.0770 O.3    26  TYR26      -0.2866
     24  N        -30.9430  -24.2980   -4.1700 N.3    64  TYR64      -0.1241
     25  CA       -30.0520  -24.6670   -5.2730 C.3    64  TYR64       0.1605
     26  C        -30.6950  -25.6760   -6.2360 C.2    64  TYR64       0.2264
     27  O        -30.5400  -25.5620   -7.4510 O.2    64  TYR64      -0.2867
     28  CB       -28.7410  -25.2450   -4.7380 C.3    64  TYR64       0.0534
     29  CG       -27.8900  -24.2610   -3.9720 C.ar   64  TYR64      -0.0201
     30  CD1      -27.7650  -22.9440   -4.3910 C.ar   64  TYR64      -0.0009
     31  CD2      -27.2080  -24.6550   -2.8250 C.ar   64  TYR64      -0.0009
     32  CE1      -26.9840  -22.0420   -3.6850 C.ar   64  TYR64       0.0417
     33  CE2      -26.4280  -23.7690   -2.1170 C.ar   64  TYR64       0.0417
     34  CZ       -26.3190  -22.4640   -2.5490 C.ar   64  TYR64       0.1957
     35  OH       -25.5380  -21.5790   -1.8460 O.3    64  TYR64      -0.2866
     36  N        -33.4800  -17.0040  -10.3580 N.3   122  LYS122     -0.1245
     37  CA       -32.0150  -17.0970  -10.4290 C.3   122  LYS122      0.1561
     38  C        -31.4460  -17.5830  -11.7810 C.2   122  LYS122      0.2260
     39  O        -30.6130  -16.8980  -12.3680 O.2   122  LYS122     -0.2867
     40  CB       -31.4890  -17.9920   -9.2960 C.3   122  LYS122      0.0271
     41  CG       -30.0030  -17.8250   -9.0030 C.3   122  LYS122      0.0035
     42  CD       -29.7250  -16.5010   -8.2940 C.3   122  LYS122      0.0206
     43  CE       -28.2650  -16.3910   -7.8690 C.3   122  LYS122      0.1093
     44  NZ       -27.3620  -16.0290   -8.9960 N.3   122  LYS122     -0.1314
     45  N        -21.7750  -10.5650  -12.2120 N.3   148  VAL148     -0.1245
     46  CA       -21.3590  -11.2800  -11.0100 C.3   148  VAL148      0.1561
     47  C        -20.8710  -10.3160   -9.9230 C.2   148  VAL148      0.2260
     48  O        -21.0530  -10.5740   -8.7370 O.2   148  VAL148     -0.2867
     49  CB       -20.2660  -12.3280  -11.3510 C.3   148  VAL148      0.0252
     50  CG1      -19.5210  -12.7930  -10.1160 C.3   148  VAL148      0.0019
     51  CG2      -20.8990  -13.5190  -12.0690 C.3   148  VAL148      0.0019
     52  N        -23.9260   -9.2800   -8.1330 N.3   151  ILE151     -0.1231
     53  CA       -24.3590  -10.3700   -7.2570 C.3   151  ILE151      0.1692
     54  C        -23.6120  -10.2960   -5.9250 C.2   151  ILE151      0.2592
     55  O        -24.2240  -10.2440   -4.8560 O.2   151  ILE151     -0.2718
     56  CB       -24.1230  -11.7500   -7.9330 C.3   151  ILE151      0.0266
     57  CG1      -25.1710  -11.9910   -9.0310 C.3   151  ILE151      0.0019
     58  CG2      -24.1080  -12.9020   -6.8970 C.3   151  ILE151      0.0020
     59  CD1      -24.8920  -13.1920   -9.8990 C.3   151  ILE151      0.0001
     60  N        -22.2860  -10.2650   -6.0050 N.am  152  ASN152     -0.1974
     61  CA       -21.4370  -10.2140   -4.8210 C.3   152  ASN152      0.1688
     62  C        -21.6300   -8.9330   -4.0080 C.2   152  ASN152      0.2292
     63  O        -21.5590   -8.9500   -2.7770 O.2   152  ASN152     -0.2864
     64  CB       -19.9680  -10.3530   -5.2310 C.3   152  ASN152      0.1181
     65  CG       -19.6760  -11.6800   -5.9050 C.2   152  ASN152      0.2629
     66  OD1      -20.2310  -12.7090   -5.5270 O.2   152  ASN152     -0.2716
     67  ND2      -18.8070  -11.6630   -6.9130 N.am  152  ASN152     -0.0877
     68  N        -18.4250  -27.2960   -1.7110 N.3   286  TRP286     -0.1241
     69  CA       -19.6310  -26.5060   -1.4740 C.3   286  TRP286      0.1605
     70  C        -20.1890  -26.7630   -0.0860 C.2   286  TRP286      0.2264
     71  O        -20.7630  -25.8660    0.5270 O.2   286  TRP286     -0.2867
     72  CB       -20.7030  -26.7910   -2.5290 C.3   286  TRP286      0.0550
     73  CG       -20.3850  -26.2150   -3.8670 C.ar  286  TRP286      0.0003
     74  CD1      -20.2710  -26.8960   -5.0440 C.ar  286  TRP286      0.0946
     75  CD2      -20.1180  -24.8390   -4.1710 C.ar  286  TRP286      0.0152
     76  NE1      -19.9590  -26.0300   -6.0620 N.ar  286  TRP286     -0.2442
     77  CE2      -19.8590  -24.7620   -5.5530 C.ar  286  TRP286      0.0810
     78  CE3      -20.0770  -23.6650   -3.4090 C.ar  286  TRP286      0.0012
     79  CZ2      -19.5620  -23.5560   -6.1930 C.ar  286  TRP286      0.0191
     80  CZ3      -19.7800  -22.4670   -4.0460 C.ar  286  TRP286      0.0001
     81  CH2      -19.5300  -22.4230   -5.4260 C.ar  286  TRP286      0.0015
     82  N        -18.0180  -24.5280    2.1240 N.3   289  GLU289     -0.1231
     83  CA       -18.3870  -23.1500    1.8340 C.3   289  GLU289      0.1699
     84  C        -19.7680  -22.8100    2.4050 C.2   289  GLU289      0.2592
     85  O        -19.9610  -21.7340    2.9810 O.2   289  GLU289     -0.2718
     86  CB       -18.3500  -22.9000    0.3230 C.3   289  GLU289      0.0402
     87  CG       -18.5590  -21.4490   -0.1050 C.3   289  GLU289      0.1161
     88  CD       -20.0130  -21.0230   -0.0500 C.2   289  GLU289      0.3649
     89  OE1      -20.8970  -21.8870   -0.2530 O.co2 289  GLU289     -0.2457
     90  OE2      -20.2710  -19.8340    0.2230 O.co2 289  GLU289     -0.2457
     91  N        -20.7290  -23.7190    2.2520 N.am  290  GLU290     -0.1979
     92  CA       -22.0900  -23.4420    2.7210 C.3   290  GLU290      0.1602
     93  C        -22.2320  -23.5170    4.2460 C.2   290  GLU290      0.2287
     94  O        -23.2440  -23.0750    4.7960 O.2   290  GLU290     -0.2864
     95  CB       -23.0950  -24.3930    2.0630 C.3   290  GLU290      0.0415
     96  CG       -23.5060  -23.9630    0.6650 C.3   290  GLU290      0.1163
     97  CD       -24.1090  -22.5620    0.6410 C.2   290  GLU290      0.3649
     98  OE1      -23.5390  -21.6860   -0.0370 O.co2 290  GLU290     -0.2457
     99  OE2      -25.1470  -22.3340    1.3010 O.co2 290  GLU290     -0.2457
    100  N        -17.5190  -13.3890    3.1520 N.3   318  ASN318     -0.1240
    101  CA       -17.5380  -14.3080    2.0260 C.3   318  ASN318      0.1653
    102  C        -17.5860  -13.5210    0.6910 C.2   318  ASN318      0.2266
    103  O        -16.6510  -13.6250   -0.1090 O.2   318  ASN318     -0.2867
    104  CB       -18.7080  -15.3010    2.2040 C.3   318  ASN318      0.1155
    105  CG       -18.8500  -16.2810    1.0580 C.2   318  ASN318      0.2627
    106  OD1      -18.8490  -15.9060   -0.1160 O.2   318  ASN318     -0.2716
    107  ND2      -19.0140  -17.5570    1.4020 N.am  318  ASN318     -0.0877
    108  N        -14.4620  -12.6370   -2.2970 N.3   322  ILE322     -0.1245
    109  CA       -14.7030  -12.9330   -3.7100 C.3   322  ILE322      0.1561
    110  C        -14.3870  -11.7150   -4.5690 C.2   322  ILE322      0.2260
    111  O        -13.7080  -11.8160   -5.5990 O.2   322  ILE322     -0.2867
    112  CB       -16.1560  -13.3620   -3.9830 C.3   322  ILE322      0.0252
    113  CG1      -16.4710  -14.6770   -3.2670 C.3   322  ILE322      0.0019
    114  CG2      -16.3800  -13.5160   -5.4820 C.3   322  ILE322      0.0019
    115  CD1      -17.9160  -15.1190   -3.4140 C.3   322  ILE322      0.0001
    116  N        -12.6270  -21.3590   -3.5390 N.3   390  GLU390     -0.1245
    117  CA       -13.7010  -21.0790   -4.4860 C.3   390  GLU390      0.1567
    118  C        -13.1570  -20.5330   -5.8050 C.2   390  GLU390      0.2260
    119  O        -13.6100  -20.9250   -6.8830 O.2   390  GLU390     -0.2867
    120  CB       -14.7140  -20.1000   -3.8860 C.3   390  GLU390      0.0388
    121  CG       -15.9740  -19.9500   -4.7300 C.3   390  GLU390      0.1160
    122  CD       -17.0380  -19.1050   -4.0550 C.2   390  GLU390      0.3649
    123  OE1      -17.2880  -19.3050   -2.8480 O.co2 390  GLU390     -0.2457
    124  OE2      -17.6270  -18.2440   -4.7360 O.co2 390  GLU390     -0.2457
    125  N        -14.6180  -22.8790   -8.6620 N.3   394  SER394     -0.1217
    126  CA       -15.8600  -22.3540   -9.2280 C.3   394  SER394      0.1889
    127  C        -15.7660  -21.9260  -10.7050 C.2   394  SER394      0.2288
    128  O        -16.6320  -22.3040  -11.4920 O.2   394  SER394     -0.2866
    129  CB       -16.3730  -21.1840   -8.3770 C.3   394  SER394      0.2089
    130  OG       -17.7170  -20.8680   -8.6960 O.3   394  SER394     -0.2183
    131  N        -23.7160  -28.0300   -5.5750 N.3   409  SER409     -0.1217
    132  CA       -23.9510  -27.1810   -4.4130 C.3   409  SER409      0.1889
    133  C        -25.1870  -27.6450   -3.6340 C.2   409  SER409      0.2288
    134  O        -25.1940  -27.6100   -2.4090 O.2   409  SER409     -0.2866
    135  CB       -24.0890  -25.7090   -4.8230 C.3   409  SER409      0.2089
    136  OG       -25.2130  -25.4930   -5.6540 O.3   409  SER409     -0.2183
@<TRIPOS>BOND
     1    39    38    2
     2    45    46    1
     3    51    49    1
     4    38    37    1
     5   128   127    2
     6    49    46    1
     7    49    50    1
     8    46    47    1
     9   127   126    1
    10    37    36    1
    11    37    40    1
    12    47    48    2
    13    59    57    1
    14    40    41    1
    15   126   125    1
    16   126   129    1
    17    57    56    1
    18    41    42    1
    19    44    43    1
    20   130   129    1
    21    42    43    1
    22    52    53    1
    23    56    53    1
    24    56    58    1
    25    27    26    2
    26    53    54    1
    27    67    65   am
    28   119   118    2
    29    26    25    1
    30    79    77   ar
    31    79    81   ar
    32    76    77   ar
    33    76    74   ar
    34    60    54   am
    35    60    61    1
    36    54    55    2
    37    65    66    2
    38    65    64    1
    39   118   117    1
    40   136   135    1
    41     6     7    1
    42     6     5    1
    43   111   110    2
    44   131   132    1
    45    77    75   ar
    46   114   112    1
    47    81    80   ar
    48     7     8    1
    49    25    28    1
    50    25    24    1
    51    64    61    1
    52    74    73   ar
    53     8     9    2
    54   135   132    1
    55    61    62    1
    56    28    29    1
    57   124   122   ar
    58   121   122    1
    59   121   120    1
    60     9    10    1
    61     9    11    1
    62   110   109    1
    63     1     2    1
    64   117   120    1
    65   117   116    1
    66   132   133    1
    67    30    29   ar
    68    30    32   ar
    69     5     2    1
    70    75    73   ar
    71    75    78   ar
    72   122   123   ar
    73    80    78   ar
    74    62    63    2
    75   112   109    1
    76   112   113    1
    77    29    31   ar
    78    73    72    1
    79   109   108    1
    80    32    34   ar
    81     2     3    1
    82   133   134    2
    83   115   113    1
    84    31    33   ar
    85    34    33   ar
    86    34    35    1
    87    72    69    1
    88     3     4    2
    89    23    22    1
    90    21    22   ar
    91    21    19   ar
    92    68    69    1
    93    69    70    1
    94    22    20   ar
    95    19    17   ar
    96    89    88   ar
    97   106   105    2
    98   103   102    2
    99    87    88    1
   100    87    86    1
   101    70    71    2
   102    88    90   ar
   103    98    97   ar
   104    20    18   ar
   105    86    83    1
   106    17    18   ar
   107    17    16    1
   108    97    96    1
   109    97    99   ar
   110    96    95    1
   111   102   101    1
   112    12    13    1
   113   105   107   am
   114   105   104    1
   115    16    13    1
   116    83    82    1
   117    83    84    1
   118    13    14    1
   119   101   104    1
   120   101   100    1
   121    95    92    1
   122    91    84   am
   123    91    92    1
   124    84    85    2
   125    92    93    1
   126    14    15    2
   127    93    94    2
