@<TRIPOS>MOLECULE
tmp/5oxpA09.pdb
 196 187 0 0 0
SMALL
GASTEIGER

@<TRIPOS>ATOM
      1  N         31.3510    8.7340   -9.9590 N.3    16  GLU16      -0.1245
      2  CA        30.6860    9.7870   -9.1790 C.3    16  GLU16       0.1567
      3  C         30.0200    9.2260   -7.9200 C.2    16  GLU16       0.2260
      4  O         30.0070    9.8760   -6.8660 O.2    16  GLU16      -0.2867
      5  CB        29.6360   10.4980  -10.0280 C.3    16  GLU16       0.0388
      6  CG        29.8140   11.9850  -10.1620 C.3    16  GLU16       0.1160
      7  CD        29.6730   12.7530   -8.8640 C.2    16  GLU16       0.3649
      8  OE1       28.6250   13.3860   -8.6410 O.co2  16  GLU16      -0.2457
      9  OE2       30.6410   12.7720   -8.0830 O.co2  16  GLU16      -0.2457
     10  N         30.8160   10.6540   -4.3630 N.3    20  ARG20      -0.1245
     11  CA        29.7790   11.1380   -3.4740 C.3    20  ARG20       0.1563
     12  C         29.7520   10.3880   -2.1550 C.2    20  ARG20       0.2260
     13  O         29.4700   10.9680   -1.1020 O.2    20  ARG20      -0.2867
     14  CB        28.4310   11.0140   -4.1250 C.3    20  ARG20       0.0307
     15  CG        28.1470   12.0420   -5.1530 C.3    20  ARG20       0.0489
     16  CD        26.9010   12.7720   -4.8060 C.3    20  ARG20       0.2205
     17  NE        26.7830   13.9620   -5.6520 N.pl3  20  ARG20      -0.0865
     18  CZ        25.6580   14.6600   -5.8480 C.cat  20  ARG20       0.5346
     19  NH1       24.5150   14.2900   -5.2660 N.pl3  20  ARG20       0.1354
     20  NH2       25.6580   15.7440   -6.6310 N.pl3  20  ARG20       0.1354
     21  N         29.9730   12.7070    1.1530 N.3    24  TYR24      -0.1241
     22  CA        28.8810   12.8030    2.1080 C.3    24  TYR24       0.1605
     23  C         29.1160   11.9040    3.3130 C.2    24  TYR24       0.2264
     24  O         28.5300   12.1210    4.3680 O.2    24  TYR24      -0.2867
     25  CB        27.5430   12.4920    1.4280 C.3    24  TYR24       0.0534
     26  CG        27.1420   13.6210    0.5340 C.ar   24  TYR24      -0.0201
     27  CD1       26.8300   14.8560    1.0770 C.ar   24  TYR24      -0.0009
     28  CD2       27.1340   13.4800   -0.8550 C.ar   24  TYR24      -0.0009
     29  CE1       26.4860   15.9360    0.2620 C.ar   24  TYR24       0.0417
     30  CE2       26.7930   14.5470   -1.6820 C.ar   24  TYR24       0.0417
     31  CZ        26.4610   15.7670   -1.1110 C.ar   24  TYR24       0.1957
     32  OH        26.1110   16.8090   -1.9040 O.3    24  TYR24      -0.2866
     33  N         31.7850   24.2360   -3.8130 N.3    62  TYR62      -0.1241
     34  CA        30.9540   24.5360   -4.9610 C.3    62  TYR62       0.1605
     35  C         31.5170   25.7040   -5.7970 C.2    62  TYR62       0.2264
     36  O         31.3180   25.7540   -7.0180 O.2    62  TYR62      -0.2867
     37  CB        29.5100   24.8080   -4.4960 C.3    62  TYR62       0.0534
     38  CG        28.8610   23.5620   -3.9280 C.ar   62  TYR62      -0.0201
     39  CD1       29.0920   22.3400   -4.5110 C.ar   62  TYR62      -0.0009
     40  CD2       28.0580   23.6000   -2.7890 C.ar   62  TYR62      -0.0009
     41  CE1       28.5430   21.1920   -4.0060 C.ar   62  TYR62       0.0417
     42  CE2       27.5000   22.4380   -2.2640 C.ar   62  TYR62       0.0417
     43  CZ        27.7460   21.2350   -2.8860 C.ar   62  TYR62       0.1957
     44  OH        27.2130   20.0490   -2.4100 O.3    62  TYR62      -0.2866
     45  N         33.9900   17.0040   -9.8780 N.3   120  LYS120     -0.1245
     46  CA        32.5200   17.0610  -10.0290 C.3   120  LYS120      0.1561
     47  C         32.0170   17.6360  -11.3720 C.2   120  LYS120      0.2260
     48  O         31.1660   17.0250  -12.0280 O.2   120  LYS120     -0.2867
     49  CB        31.8970   17.8610   -8.8780 C.3   120  LYS120      0.0271
     50  CG        31.7810   17.1010   -7.5590 C.3   120  LYS120      0.0035
     51  CD        30.6780   17.6890   -6.6380 C.3   120  LYS120      0.0206
     52  CE        30.5620   16.9210   -5.2870 C.3   120  LYS120      0.1093
     53  NZ        29.9250   15.5650   -5.3860 N.3   120  LYS120     -0.1314
     54  N         30.4460   14.9960  -15.0350 N.3   124  SER124     -0.1217
     55  CA        29.1850   15.3380  -15.7250 C.3   124  SER124      0.1889
     56  C         29.3780   15.5690  -17.2190 C.2   124  SER124      0.2288
     57  O         28.6240   15.0460  -18.0410 O.2   124  SER124     -0.2866
     58  CB        28.5480   16.5850  -15.1060 C.3   124  SER124      0.2089
     59  OG        28.0150   16.3040  -13.8200 O.3   124  SER124     -0.2183
     60  N         22.3230    8.6410  -14.5140 N.3   143  PHE143     -0.1227
     61  CA        23.5090    9.1600  -13.8570 C.3   143  PHE143      0.1736
     62  C         23.1530    9.8330  -12.5440 C.2   143  PHE143      0.2595
     63  O         23.7180    9.5000  -11.5050 O.2   143  PHE143     -0.2718
     64  CB        24.2300   10.1420  -14.7700 C.3   143  PHE143      0.0547
     65  CG        25.5120   10.6580  -14.2120 C.ar  143  PHE143     -0.0202
     66  CD1       26.6020    9.8190  -14.0780 C.ar  143  PHE143     -0.0042
     67  CD2       25.6390   11.9900  -13.8400 C.ar  143  PHE143     -0.0042
     68  CE1       27.8000   10.3030  -13.5740 C.ar  143  PHE143     -0.0003
     69  CE2       26.8260   12.4770  -13.3450 C.ar  143  PHE143     -0.0003
     70  CZ        27.9080   11.6340  -13.2060 C.ar  143  PHE143     -0.0000
     71  N         22.1960   10.7560  -12.5870 N.am  144  VAL144     -0.1980
     72  CA        21.8420   11.5070  -11.3930 C.3   144  VAL144      0.1595
     73  C         21.2950   10.5870  -10.3110 C.2   144  VAL144      0.2287
     74  O         21.6240   10.7440   -9.1330 O.2   144  VAL144     -0.2864
     75  CB        20.8230   12.6100  -11.6950 C.3   144  VAL144      0.0276
     76  CG1       20.1920   13.1060  -10.4060 C.3   144  VAL144      0.0022
     77  CG2       21.5050   13.7510  -12.4410 C.3   144  VAL144      0.0022
     78  N         24.1440    8.4600   -8.7140 N.3   147  ILE147     -0.1231
     79  CA        24.9610    9.3910   -7.9580 C.3   147  ILE147      0.1692
     80  C         24.4930    9.3850   -6.5030 C.2   147  ILE147      0.2592
     81  O         25.2970    9.2900   -5.5820 O.2   147  ILE147     -0.2718
     82  CB        24.8510   10.8200   -8.5390 C.3   147  ILE147      0.0266
     83  CG1       25.8520   11.0370   -9.6660 C.3   147  ILE147      0.0019
     84  CG2       25.0520   11.8710   -7.4770 C.3   147  ILE147      0.0020
     85  CD1       25.7960   12.4590  -10.2200 C.3   147  ILE147      0.0001
     86  N         23.1730    9.4510   -6.3140 N.am  148  ASN148     -0.1974
     87  CA        22.5700    9.5520   -4.9830 C.3   148  ASN148      0.1688
     88  C         22.6990    8.3100   -4.0810 C.2   148  ASN148      0.2292
     89  O         22.7550    8.4400   -2.8520 O.2   148  ASN148     -0.2864
     90  CB        21.0930    9.9240   -5.1270 C.3   148  ASN148      0.1181
     91  CG        20.9000   11.3210   -5.6840 C.2   148  ASN148      0.2629
     92  OD1       21.5610   12.2720   -5.2500 O.2   148  ASN148     -0.2716
     93  ND2       20.0010   11.4540   -6.6550 N.am  148  ASN148     -0.0877
     94  N         19.1800   26.7150   -1.6540 N.3   282  TRP282     -0.1241
     95  CA        20.4080   25.9860   -1.3050 C.3   282  TRP282      0.1605
     96  C         20.8350   26.3000    0.1160 C.2   282  TRP282      0.2264
     97  O         21.3600   25.4360    0.8190 O.2   282  TRP282     -0.2867
     98  CB        21.5530   26.3090   -2.2860 C.3   282  TRP282      0.0550
     99  CG        21.3340   25.6820   -3.6120 C.ar  282  TRP282      0.0003
    100  CD1       21.2070   26.3200   -4.8120 C.ar  282  TRP282      0.0946
    101  CD2       21.1530   24.2880   -3.8760 C.ar  282  TRP282      0.0152
    102  NE1       20.9820   25.4080   -5.8100 N.ar  282  TRP282     -0.2442
    103  CE2       20.9370   24.1530   -5.2640 C.ar  282  TRP282      0.0810
    104  CE3       21.1690   23.1410   -3.0780 C.ar  282  TRP282      0.0012
    105  CZ2       20.7440   22.9150   -5.8750 C.ar  282  TRP282      0.0191
    106  CZ3       20.9670   21.9170   -3.6820 C.ar  282  TRP282      0.0001
    107  CH2       20.7550   21.8120   -5.0720 C.ar  282  TRP282      0.0015
    108  N         18.6530   24.0030    2.1140 N.3   285  GLU285     -0.1231
    109  CA        19.0370   22.6110    1.8890 C.3   285  GLU285      0.1699
    110  C         20.4180   22.2790    2.4830 C.2   285  GLU285      0.2592
    111  O         20.6260   21.1710    2.9970 O.2   285  GLU285     -0.2718
    112  CB        19.0180   22.2780    0.3890 C.3   285  GLU285      0.0402
    113  CG        19.1690   20.7920    0.0650 C.3   285  GLU285      0.1161
    114  CD        20.6260   20.3590   -0.0910 C.2   285  GLU285      0.3649
    115  OE1       21.4960   21.2320   -0.3020 O.co2 285  GLU285     -0.2457
    116  OE2       20.9050   19.1460   -0.0140 O.co2 285  GLU285     -0.2457
    117  N         21.3460   23.2310    2.4270 N.am  286  GLU286     -0.1979
    118  CA        22.7050   22.9650    2.9010 C.3   286  GLU286      0.1602
    119  C         22.7960   23.0320    4.4320 C.2   286  GLU286      0.2287
    120  O         23.7410   22.5150    5.0190 O.2   286  GLU286     -0.2864
    121  CB        23.7030   23.9200    2.2380 C.3   286  GLU286      0.0415
    122  CG        23.9800   23.5220    0.7860 C.3   286  GLU286      0.1163
    123  CD        24.8320   24.5290    0.0230 C.2   286  GLU286      0.3649
    124  OE1       24.2770   25.5270   -0.4800 O.co2 286  GLU286     -0.2457
    125  OE2       26.0700   24.3230   -0.0830 O.co2 286  GLU286     -0.2457
    126  N         18.2570   12.7890    2.9870 N.3   314  ASN314     -0.1240
    127  CA        18.3580   13.7230    1.8720 C.3   314  ASN314      0.1653
    128  C         18.4170   12.9530    0.5330 C.2   314  ASN314      0.2266
    129  O         17.5010   13.0890   -0.2870 O.2   314  ASN314     -0.2867
    130  CB        19.5670   14.6630    2.0800 C.3   314  ASN314      0.1155
    131  CG        19.6700   15.7680    1.0270 C.2   314  ASN314      0.2627
    132  OD1       19.5620   15.5300   -0.1710 O.2   314  ASN314     -0.2716
    133  ND2       19.9010   16.9840    1.4870 N.am  314  ASN314     -0.0877
    134  N         15.3740   11.9530   -2.6140 N.3   318  ILE318     -0.1245
    135  CA        15.6330   12.2880   -4.0090 C.3   318  ILE318      0.1561
    136  C         15.2890   11.0760   -4.8560 C.2   318  ILE318      0.2260
    137  O         14.6180   11.1870   -5.8780 O.2   318  ILE318     -0.2867
    138  CB        17.0950   12.7410   -4.2650 C.3   318  ILE318      0.0252
    139  CG1       17.3630   14.0660   -3.5310 C.3   318  ILE318      0.0019
    140  CG2       17.3330   12.9210   -5.7570 C.3   318  ILE318      0.0019
    141  CD1       18.7370   14.6870   -3.7490 C.3   318  ILE318      0.0001
    142  N         13.3920   20.6410   -3.8440 N.3   383  GLU383     -0.1245
    143  CA        14.5710   20.4470   -4.6760 C.3   383  GLU383      0.1567
    144  C         14.2010   19.8220   -6.0120 C.2   383  GLU383      0.2260
    145  O         14.8550   20.0810   -7.0190 O.2   383  GLU383     -0.2867
    146  CB        15.6330   19.5840   -3.9640 C.3   383  GLU383      0.0388
    147  CG        16.9360   19.5370   -4.7330 C.3   383  GLU383      0.1160
    148  CD        18.0360   18.7200   -4.0780 C.2   383  GLU383      0.3649
    149  OE1       18.1080   18.6260   -2.8320 O.co2 383  GLU383     -0.2457
    150  OE2       18.8520   18.1690   -4.8460 O.co2 383  GLU383     -0.2457
    151  N         18.4840   18.6500  -10.9220 N.3   389  VAL389     -0.1245
    152  CA        18.2550   17.2370  -10.6070 C.3   389  VAL389      0.1561
    153  C         16.7620   16.9090  -10.7170 C.2   389  VAL389      0.2260
    154  O         16.3860   15.7430  -10.8170 O.2   389  VAL389     -0.2867
    155  CB        18.7660   16.8410   -9.1900 C.3   389  VAL389      0.0252
    156  CG1       20.2520   17.1270   -9.0480 C.3   389  VAL389      0.0019
    157  CG2       17.9750   17.5390   -8.1020 C.3   389  VAL389      0.0019
    158  N         25.2830   24.7580  -15.6320 N.3   398  MET398     -0.1245
    159  CA        26.0260   23.9880  -14.6450 C.3   398  MET398      0.1570
    160  C         26.8260   24.8910  -13.7230 C.2   398  MET398      0.2261
    161  O         26.8400   24.7020  -12.5060 O.2   398  MET398     -0.2867
    162  CB        26.9540   22.9890  -15.3270 C.3   398  MET398      0.0387
    163  CG        27.4620   21.8920  -14.4060 C.3   398  MET398      0.0595
    164  SD        26.1320   20.7970  -13.8920 S.3   398  MET398     -0.1393
    165  CE        25.5100   20.2690  -15.4930 C.3   398  MET398      0.0692
    166  N         24.5850   26.7330  -11.4740 N.3   401  TRP401     -0.1227
    167  CA        24.1260   25.7710  -10.4880 C.3   401  TRP401      0.1737
    168  C         25.1430   25.7100   -9.3380 C.2   401  TRP401      0.2595
    169  O         24.7820   25.8670   -8.1840 O.2   401  TRP401     -0.2718
    170  CB        23.9330   24.4120  -11.1620 C.3   401  TRP401      0.0564
    171  CG        23.3440   23.3400  -10.3260 C.ar  401  TRP401      0.0003
    172  CD1       22.9100   23.4420   -9.0440 C.ar  401  TRP401      0.0946
    173  CD2       23.1310   21.9710  -10.7220 C.ar  401  TRP401      0.0152
    174  NE1       22.4390   22.2220   -8.6060 N.ar  401  TRP401     -0.2442
    175  CE2       22.5590   21.3100   -9.6100 C.ar  401  TRP401      0.0810
    176  CE3       23.3620   21.2540  -11.8990 C.ar  401  TRP401      0.0012
    177  CZ2       22.2130   19.9490   -9.6540 C.ar  401  TRP401      0.0191
    178  CZ3       23.0220   19.9010  -11.9390 C.ar  401  TRP401      0.0001
    179  CH2       22.4470   19.2650  -10.8220 C.ar  401  TRP401      0.0015
    180  N         26.4160   25.5060   -9.6630 N.am  402  PHE402     -0.1976
    181  CA        27.4870   25.5150   -8.6650 C.3   402  PHE402      0.1639
    182  C         27.5860   26.8600   -7.9040 C.2   402  PHE402      0.2290
    183  O         27.7550   26.9020   -6.6820 O.2   402  PHE402     -0.2864
    184  CB        28.8290   25.2150   -9.3350 C.3   402  PHE402      0.0560
    185  CG        29.0790   23.7500   -9.6290 C.ar  402  PHE402     -0.0200
    186  CD1       29.4510   22.8780   -8.6220 C.ar  402  PHE402     -0.0042
    187  CD2       29.0210   23.2710  -10.9320 C.ar  402  PHE402     -0.0042
    188  CE1       29.7130   21.5400   -8.9050 C.ar  402  PHE402     -0.0003
    189  CE2       29.2860   21.9390  -11.2280 C.ar  402  PHE402     -0.0003
    190  CZ        29.6320   21.0710  -10.2170 C.ar  402  PHE402     -0.0000
    191  N         24.6820   27.4800   -5.3400 N.3   405  SER405     -0.1217
    192  CA        24.7930   26.6710   -4.1370 C.3   405  SER405      0.1889
    193  C         25.9930   27.1460   -3.3220 C.2   405  SER405      0.2288
    194  O         25.9650   27.1260   -2.1010 O.2   405  SER405     -0.2866
    195  CB        24.8840   25.1800   -4.4660 C.3   405  SER405      0.2089
    196  OG        26.0300   24.8760   -5.2280 O.3   405  SER405     -0.2183
@<TRIPOS>BOND
     1    57    56    2
     2    56    55    1
     3    55    58    1
     4    55    54    1
     5   158   159    1
     6   165   164    1
     7   162   159    1
     8   162   163    1
     9    58    59    1
    10    64    65    1
    11    64    61    1
    12   159   160    1
    13    60    61    1
    14   163   164    1
    15    65    66   ar
    16    65    67   ar
    17    66    68   ar
    18    61    62    1
    19    67    69   ar
    20   160   161    2
    21    68    70   ar
    22    69    70   ar
    23    71    62   am
    24    71    72    1
    25    62    63    2
    26    77    75    1
    27    48    47    2
    28   178   176   ar
    29   178   179   ar
    30   176   173   ar
    31    75    72    1
    32    75    76    1
    33   166   167    1
    34    72    73    1
    35    47    46    1
    36   189   187   ar
    37   189   190   ar
    38   170   167    1
    39   170   171    1
    40   187   185   ar
    41   151   152    1
    42   179   177   ar
    43   154   153    2
    44   173   171   ar
    45   173   175   ar
    46   153   152    1
    47   152   155    1
    48   167   168    1
    49   171   172   ar
    50    73    74    2
    51    85    83    1
    52   190   188   ar
    53     6     5    1
    54     6     7    1
    55    46    45    1
    56    46    49    1
    57     5     2    1
    58     1     2    1
    59    83    82    1
    60   180   168   am
    61   180   181    1
    62   177   175   ar
    63   185   184    1
    64   185   186   ar
    65   175   174   ar
    66   168   169    2
    67   184   181    1
    68   155   156    1
    69   155   157    1
    70     2     3    1
    71   172   174   ar
    72   188   186   ar
    73    49    50    1
    74     7     8   ar
    75     7     9   ar
    76    78    79    1
    77   181   182    1
    78    82    79    1
    79    82    84    1
    80    79    80    1
    81     3     4    2
    82   182   183    2
    83    50    51    1
    84   145   144    2
    85    36    35    2
    86    93    91   am
    87    51    52    1
    88    20    18    1
    89    80    86   am
    90    80    81    2
    91    86    87    1
    92   144   143    1
    93   137   136    2
    94   105   103   ar
    95   105   107   ar
    96    18    17    2
    97    18    19    1
    98   102   103   ar
    99   102   100   ar
   100    35    34    1
   101   140   138    1
   102    91    92    2
   103    91    90    1
   104    17    16    1
   105    53    52    1
   106   191   192    1
   107   103   101   ar
   108   196   195    1
   109    15    16    1
   110    15    14    1
   111    90    87    1
   112   107   106   ar
   113    87    88    1
   114    34    37    1
   115    34    33    1
   116   136   135    1
   117   150   148   ar
   118   100    99   ar
   119   147   148    1
   120   147   146    1
   121   143   146    1
   122   143   142    1
   123    39    41   ar
   124    39    38   ar
   125    37    38    1
   126   195   192    1
   127    10    11    1
   128   138   135    1
   129   138   139    1
   130   192   193    1
   131    14    11    1
   132    88    89    2
   133   148   149   ar
   134   135   134    1
   135    41    43   ar
   136    38    40   ar
   137   101    99   ar
   138   101   104   ar
   139   141   139    1
   140   106   104   ar
   141    99    98    1
   142    11    12    1
   143   193   194    2
   144    43    44    1
   145    43    42   ar
   146    40    42   ar
   147    98    95    1
   148    12    13    2
   149    32    31    1
   150    30    31   ar
   151    30    28   ar
   152    94    95    1
   153    95    96    1
   154    31    29   ar
   155    28    26   ar
   156   124   123   ar
   157   115   114   ar
   158   129   128    2
   159   132   131    2
   160   114   116   ar
   161   114   113    1
   162   125   123   ar
   163   123   122    1
   164   113   112    1
   165    96    97    2
   166    29    27   ar
   167   112   109    1
   168   128   127    1
   169    26    27   ar
   170    26    25    1
   171   122   121    1
   172   131   133   am
   173   131   130    1
   174    21    22    1
   175    25    22    1
   176   127   130    1
   177   127   126    1
   178   109   108    1
   179   109   110    1
   180    22    23    1
   181   121   118    1
   182   117   110   am
   183   117   118    1
   184   110   111    2
   185   118   119    1
   186    23    24    2
   187   119   120    2
