@<TRIPOS>MOLECULE
tmp/5oxpA06.pdb
 110 102 0 0 0
SMALL
GASTEIGER

@<TRIPOS>ATOM
      1  N         32.7920   25.7910  -10.1290 N.3    66  THR66      -0.1203
      2  CA        32.5260   26.7130  -11.2230 C.3    66  THR66       0.1994
      3  C         33.7440   26.8930  -12.1110 C.2    66  THR66       0.2617
      4  O         33.6060   27.3390  -13.2370 O.2    66  THR66      -0.2717
      5  CB        32.1020   28.1310  -10.7450 C.3    66  THR66       0.1784
      6  OG1       33.2420   28.8170  -10.1940 O.3    66  THR66      -0.2211
      7  CG2       30.9240   28.0760   -9.7370 C.3    66  THR66       0.0376
      8  N         34.9400   26.5730  -11.6310 N.am   67  ILE67      -0.1979
      9  CA        36.0990   26.7990  -12.4920 C.3    67  ILE67       0.1595
     10  C         36.7640   25.5090  -12.9660 C.2    67  ILE67       0.2287
     11  O         37.5330   25.5280  -13.9230 O.2    67  ILE67      -0.2864
     12  CB        37.1410   27.6960  -11.7970 C.3    67  ILE67       0.0276
     13  CG1       38.0320   26.9020  -10.8670 C.3    67  ILE67       0.0022
     14  CG2       36.4400   28.7830  -11.0090 C.3    67  ILE67       0.0022
     15  CD1       38.9650   27.7890  -10.1200 C.3    67  ILE67       0.0001
     16  N         35.4240   23.0080  -14.6000 N.3    69  GLY69      -0.1210
     17  CA        35.0480   22.8350  -15.9830 C.3    69  GLY69       0.1956
     18  C         36.0420   23.5190  -16.9060 C.2    69  GLY69       0.2612
     19  O         36.5430   22.8990  -17.8560 O.2    69  GLY69      -0.2717
     20  N         36.3160   24.7950  -16.6110 N.am   70  PHE70      -0.1962
     21  CA        37.2710   25.6210  -17.3500 C.3    70  PHE70       0.1771
     22  C         38.6720   25.0240  -17.3630 C.2    70  PHE70       0.2619
     23  O         39.3010   24.9440  -18.4170 O.2    70  PHE70      -0.2715
     24  CB        37.3410   27.0280  -16.7460 C.3    70  PHE70       0.0574
     25  CG        38.3090   27.9510  -17.4450 C.ar   70  PHE70      -0.0200
     26  CD1       37.8690   28.7770  -18.4660 C.ar   70  PHE70      -0.0042
     27  CD2       39.6450   28.0080  -17.0740 C.ar   70  PHE70      -0.0042
     28  CE1       38.7340   29.6350  -19.1150 C.ar   70  PHE70      -0.0003
     29  CE2       40.5300   28.8670  -17.7320 C.ar   70  PHE70      -0.0003
     30  CZ        40.0640   29.6820  -18.7560 C.ar   70  PHE70      -0.0000
     31  N         39.1670   24.6480  -16.1880 N.am   71  VAL71      -0.1977
     32  CA        40.5120   24.1330  -16.0870 C.3    71  VAL71       0.1596
     33  C         40.6800   22.8780  -16.9550 C.2    71  VAL71       0.2287
     34  O         41.7050   22.7030  -17.6320 O.2    71  VAL71      -0.2864
     35  CB        40.8700   23.8260  -14.6350 C.3    71  VAL71       0.0276
     36  CG1       42.3440   23.4620  -14.5170 C.3    71  VAL71       0.0022
     37  CG2       40.5400   25.0290  -13.7540 C.3    71  VAL71       0.0022
     38  N         38.7130   22.0170  -19.6370 N.3    73  ASP73      -0.1239
     39  CA        38.4160   22.2540  -21.0370 C.3    73  ASP73       0.1674
     40  C         39.5460   22.9760  -21.7580 C.2    73  ASP73       0.2266
     41  O         39.7480   22.7750  -22.9580 O.2    73  ASP73      -0.2867
     42  CB        37.1310   23.0490  -21.1670 C.3    73  ASP73       0.1410
     43  CG        35.9080   22.2530  -20.7420 C.2    73  ASP73       0.3668
     44  OD1       35.8610   21.0220  -21.0000 O.co2  73  ASP73      -0.2456
     45  OD2       34.9930   22.8690  -20.1460 O.co2  73  ASP73      -0.2456
     46  N         40.0230   21.5300   -3.6880 N.3   114  ILE114     -0.1245
     47  CA        40.6070   21.4910   -5.0170 C.3   114  ILE114      0.1561
     48  C         40.1700   20.2240   -5.7900 C.2   114  ILE114      0.2260
     49  O         39.7480   20.3040   -6.9520 O.2   114  ILE114     -0.2867
     50  CB        42.1260   21.6000   -4.9300 C.3   114  ILE114      0.0252
     51  CG1       42.4880   22.9610   -4.3110 C.3   114  ILE114      0.0019
     52  CG2       42.7290   21.4610   -6.3150 C.3   114  ILE114      0.0019
     53  CD1       43.9450   23.1090   -3.8920 C.3   114  ILE114      0.0001
     54  N         45.2520   35.5650  -19.2850 N.3   212  LEU212     -0.1245
     55  CA        44.7380   34.7050  -18.2260 C.3   212  LEU212      0.1561
     56  C         45.6650   34.7970  -17.0100 C.2   212  LEU212      0.2260
     57  O         45.2210   35.0370  -15.8800 O.2   212  LEU212     -0.2867
     58  CB        44.6120   33.2590  -18.6940 C.3   212  LEU212      0.0270
     59  CG        44.0820   32.3350  -17.5980 C.3   212  LEU212      0.0019
     60  CD1       42.6950   32.7720  -17.1430 C.3   212  LEU212      0.0001
     61  CD2       44.0710   30.8840  -18.0850 C.3   212  LEU212      0.0001
     62  N         45.3450   38.0790  -15.0380 N.3   215  LYS215     -0.1231
     63  CA        44.1270   38.0940  -14.2350 C.3   215  LYS215      0.1693
     64  C         44.2310   37.2400  -12.9660 C.2   215  LYS215      0.2591
     65  O         43.8880   37.7030  -11.8850 O.2   215  LYS215     -0.2718
     66  CB        42.9370   37.6340  -15.0850 C.3   215  LYS215      0.0285
     67  CG        42.6570   38.5580  -16.2780 C.3   215  LYS215      0.0035
     68  CD        41.5600   38.0120  -17.2030 C.3   215  LYS215      0.0206
     69  CE        41.2300   38.9950  -18.3300 C.3   215  LYS215      0.1093
     70  NZ        40.2210   38.4410  -19.2860 N.3   215  LYS215     -0.1314
     71  N         44.6950   36.0010  -13.0970 N.am  216  VAL216     -0.1980
     72  CA        44.8980   35.1250  -11.9440 C.3   216  VAL216      0.1595
     73  C         45.8710   35.7630  -10.9410 C.2   216  VAL216      0.2287
     74  O         45.6210   35.7740   -9.7350 O.2   216  VAL216     -0.2864
     75  CB        45.4430   33.7240  -12.3820 C.3   216  VAL216      0.0276
     76  CG1       45.8510   32.8630  -11.1780 C.3   216  VAL216      0.0022
     77  CG2       44.4180   33.0000  -13.2230 C.3   216  VAL216      0.0022
     78  N         44.2200   38.7460   -9.0000 N.3   219  ALA219     -0.1231
     79  CA        43.2590   38.2120   -8.0280 C.3   219  ALA219      0.1694
     80  C         43.9340   37.6030   -6.7980 C.2   219  ALA219      0.2591
     81  O         43.5370   37.8810   -5.6650 O.2   219  ALA219     -0.2718
     82  CB        42.3530   37.1740   -8.6850 C.3   219  ALA219      0.0304
     83  N         44.9310   36.7510   -7.0200 N.am  220  VAL220     -0.1980
     84  CA        45.6990   36.1750   -5.9260 C.3   220  VAL220      0.1595
     85  C         46.4000   37.2930   -5.1220 C.2   220  VAL220      0.2287
     86  O         46.2950   37.3440   -3.8970 O.2   220  VAL220     -0.2864
     87  CB        46.7250   35.1560   -6.4540 C.3   220  VAL220      0.0276
     88  CG1       47.7280   34.7670   -5.3730 C.3   220  VAL220      0.0022
     89  CG2       46.0110   33.9240   -6.9980 C.3   220  VAL220      0.0022
     90  N         26.7230   24.0210  -19.7080 N.3   395  SER395     -0.1202
     91  CA        27.9010   24.5130  -19.0070 C.3   395  SER395      0.2020
     92  C         27.5840   25.7710  -18.2090 C.2   395  SER395      0.2618
     93  O         28.0530   25.9370  -17.0830 O.2   395  SER395     -0.2717
     94  CB        29.0340   24.7950  -19.9930 C.3   395  SER395      0.2103
     95  OG        30.1720   25.3110  -19.3260 O.3   395  SER395     -0.2182
     96  N         26.7980   26.6640  -18.7980 N.am  396  GLN396     -0.1979
     97  CA        26.4090   27.8810  -18.1040 C.3   396  GLN396      0.1601
     98  C         25.3770   27.5380  -17.0490 C.2   396  GLN396      0.2287
     99  O         25.4380   28.0300  -15.9270 O.2   396  GLN396     -0.2864
    100  CB        25.8640   28.9290  -19.0770 C.3   396  GLN396      0.0394
    101  CG        26.9160   29.5250  -20.0100 C.3   396  GLN396      0.0908
    102  CD        28.0500   30.2080  -19.2600 C.2   396  GLN396      0.2608
    103  OE1       27.8200   30.9720  -18.3220 O.2   396  GLN396     -0.2717
    104  NE2       29.2840   29.9280  -19.6690 N.am  396  GLN396     -0.0878
    105  N         27.4890   25.8800  -14.2990 N.3   399  SER399     -0.1217
    106  CA        28.2750   26.8080  -13.4990 C.3   399  SER399      0.1889
    107  C         27.3720   27.6740  -12.6110 C.2   399  SER399      0.2288
    108  O         27.7280   27.9620  -11.4720 O.2   399  SER399     -0.2866
    109  CB        29.1450   27.6860  -14.3930 C.3   399  SER399      0.2089
    110  OG        28.3300   28.4790  -15.2370 O.3   399  SER399     -0.2183
@<TRIPOS>BOND
     1    41    40    2
     2    40    39    1
     3    42    39    1
     4    42    43    1
     5    39    38    1
     6    44    43   ar
     7    43    45   ar
     8   101   102    1
     9   101   100    1
    10    94    95    1
    11    94    91    1
    12    90    91    1
    13   104   102   am
    14    70    69    1
    15    54    55    1
    16   102   103    2
    17    28    30   ar
    18    28    26   ar
    19   100    97    1
    20    91    92    1
    21    96    92   am
    22    96    97    1
    23    30    29   ar
    24    58    55    1
    25    58    59    1
    26    26    25   ar
    27    23    22    2
    28    69    68    1
    29    55    56    1
    30    92    93    2
    31    97    98    1
    32    61    59    1
    33    19    18    2
    34    29    27   ar
    35    34    33    2
    36    59    60    1
    37    25    27   ar
    38    25    24    1
    39    22    21    1
    40    22    31   am
    41    21    24    1
    42    21    20    1
    43    68    67    1
    44    98    99    2
    45    56    57    2
    46    33    32    1
    47    18    20   am
    48    18    17    1
    49    67    66    1
    50    31    32    1
    51    32    35    1
    52    17    16    1
    53   110   109    1
    54    66    63    1
    55    62    63    1
    56    35    36    1
    57    35    37    1
    58   109   106    1
    59   105   106    1
    60    63    64    1
    61    11    10    2
    62   106   107    1
    63     4     3    2
    64    77    75    1
    65    71    64   am
    66    71    72    1
    67    64    65    2
    68    10     9    1
    69   107   108    2
    70     9    12    1
    71     9     8    1
    72    75    72    1
    73    75    76    1
    74     3     8   am
    75     3     2    1
    76    72    73    1
    77    12    14    1
    78    12    13    1
    79     2     5    1
    80     2     1    1
    81    73    74    2
    82    13    15    1
    83     5     6    1
    84     5     7    1
    85    78    79    1
    86    82    79    1
    87    79    80    1
    88    83    80   am
    89    83    84    1
    90    89    87    1
    91    49    48    2
    92    80    81    2
    93    87    84    1
    94    87    88    1
    95    52    50    1
    96    84    85    1
    97    48    47    1
    98    85    86    2
    99    47    50    1
   100    47    46    1
   101    50    51    1
   102    51    53    1
