@<TRIPOS>MOLECULE
tmp/5oxpA08.pdb
 113 111 0 0 0
SMALL
GASTEIGER

@<TRIPOS>ATOM
      1  N          5.9670   15.3850  -15.0960 N.3   329  TRP329     -0.1241
      2  CA         6.2970   16.3220  -16.1560 C.3   329  TRP329      0.1605
      3  C          5.8380   15.8370  -17.5260 C.2   329  TRP329      0.2264
      4  O          5.6240   16.6490  -18.4260 O.2   329  TRP329     -0.2867
      5  CB         7.8010   16.6080  -16.1700 C.3   329  TRP329      0.0550
      6  CG         8.3520   17.1350  -14.8510 C.ar  329  TRP329      0.0003
      7  CD1        9.4790   16.7040  -14.2030 C.ar  329  TRP329      0.0946
      8  CD2        7.7960   18.1760  -14.0310 C.ar  329  TRP329      0.0152
      9  NE1        9.6620   17.4140  -13.0410 N.ar  329  TRP329     -0.2442
     10  CE2        8.6450   18.3210  -12.9090 C.ar  329  TRP329      0.0810
     11  CE3        6.6710   19.0010  -14.1320 C.ar  329  TRP329      0.0012
     12  CZ2        8.3990   19.2500  -11.9040 C.ar  329  TRP329      0.0191
     13  CZ3        6.4300   19.9220  -13.1320 C.ar  329  TRP329      0.0001
     14  CH2        7.2910   20.0400  -12.0330 C.ar  329  TRP329      0.0015
     15  N          1.7170   23.4780  -18.5240 N.3   333  GLN333     -0.1231
     16  CA         2.9000   23.3580  -17.6780 C.3   333  GLN333      0.1683
     17  C          3.3190   24.7070  -17.0890 C.2   333  GLN333      0.2434
     18  O          3.2830   25.7290  -17.7770 O.2   333  GLN333     -0.2733
     19  CB         4.0630   22.7490  -18.4670 C.3   333  GLN333      0.0380
     20  CG         4.4810   23.5530  -19.6890 C.3   333  GLN333      0.0905
     21  CD         5.5780   22.8750  -20.4810 C.2   333  GLN333      0.2608
     22  OE1        5.8040   21.6720  -20.3410 O.2   333  GLN333     -0.2717
     23  NE2        6.2710   23.6440  -21.3170 N.am  333  GLN333     -0.0878
     24  N          3.7090   24.7080  -15.8010 N.am  334  PRO334     -0.2729
     25  CA         4.1380   25.9100  -15.0730 C.3   334  PRO334      0.1401
     26  C          5.4870   26.4280  -15.5250 C.2   334  PRO334      0.2269
     27  O          6.4020   25.6460  -15.7800 O.2   334  PRO334     -0.2865
     28  CB         4.2210   25.4390  -13.6170 C.3   334  PRO334      0.0296
     29  CG         3.4560   24.1760  -13.5620 C.3   334  PRO334      0.0237
     30  CD         3.6150   23.5430  -14.9080 C.3   334  PRO334      0.0939
     31  N          9.1970   28.2390  -15.6460 N.3   336  SER336     -0.1217
     32  CA        10.4130   28.0750  -14.8630 C.3   336  SER336      0.1889
     33  C         10.4740   28.9700  -13.6180 C.2   336  SER336      0.2288
     34  O         11.0110   28.5450  -12.5940 O.2   336  SER336     -0.2866
     35  CB        11.6390   28.3310  -15.7420 C.3   336  SER336      0.2089
     36  OG        12.8360   28.1750  -15.0070 O.3   336  SER336     -0.2183
     37  N          8.2550   27.4800  -10.7550 N.3   339  LYS339     -0.1231
     38  CA         8.8930   26.3180  -10.1440 C.3   339  LYS339      0.1693
     39  C          9.8180   26.7430   -9.0200 C.2   339  LYS339      0.2592
     40  O          9.7730   26.1860   -7.9250 O.2   339  LYS339     -0.2718
     41  CB         9.6920   25.5080  -11.1660 C.3   339  LYS339      0.0285
     42  CG         8.8930   24.9080  -12.3020 C.3   339  LYS339      0.0035
     43  CD         7.8540   23.9220  -11.8260 C.3   339  LYS339      0.0206
     44  CE         7.0700   23.3910  -13.0220 C.3   339  LYS339      0.1093
     45  NZ         5.8120   22.6830  -12.6330 N.3   339  LYS339     -0.1314
     46  N         10.6620   27.7300   -9.3020 N.am  340  PHE340     -0.1976
     47  CA        11.6270   28.2150   -8.3190 C.3   340  PHE340      0.1639
     48  C         10.9300   28.7570   -7.0710 C.2   340  PHE340      0.2290
     49  O         11.4290   28.6090   -5.9500 O.2   340  PHE340     -0.2864
     50  CB        12.5270   29.2870   -8.9400 C.3   340  PHE340      0.0560
     51  CG        13.7040   28.7270   -9.6810 C.ar  340  PHE340     -0.0200
     52  CD1       13.5200   27.9090  -10.7830 C.ar  340  PHE340     -0.0042
     53  CD2       14.9960   29.0200   -9.2820 C.ar  340  PHE340     -0.0042
     54  CE1       14.5990   27.3890  -11.4670 C.ar  340  PHE340     -0.0003
     55  CE2       16.0820   28.4970   -9.9670 C.ar  340  PHE340     -0.0003
     56  CZ        15.8790   27.6830  -11.0570 C.ar  340  PHE340     -0.0000
     57  N         13.1510   19.0150   -6.0390 N.3   384  MET384     -0.1230
     58  CA        12.7090   18.4550   -7.3000 C.3   384  MET384      0.1702
     59  C         12.2130   19.5430   -8.2260 C.2   384  MET384      0.2592
     60  O         12.2390   19.4000   -9.4410 O.2   384  MET384     -0.2718
     61  CB        11.6120   17.4360   -7.0730 C.3   384  MET384      0.0401
     62  CG        12.1270   16.1970   -6.4090 C.3   384  MET384      0.0596
     63  SD        13.4200   15.5610   -7.4640 S.3   384  MET384     -0.1393
     64  CE        14.1210   14.3410   -6.3930 C.3   384  MET384      0.0692
     65  N         11.7630   20.6430   -7.6530 N.am  385  LEU385     -0.1966
     66  CA        11.1400   21.6740   -8.4540 C.3   385  LEU385      0.1728
     67  C         12.1450   22.7020   -8.8980 C.2   385  LEU385      0.2616
     68  O         11.9840   23.3230   -9.9310 O.2   385  LEU385     -0.2715
     69  CB        10.0270   22.3810   -7.6810 C.3   385  LEU385      0.0311
     70  CG         8.7670   21.6390   -7.2730 C.3   385  LEU385      0.0022
     71  CD1        7.9490   22.6240   -6.4720 C.3   385  LEU385      0.0001
     72  CD2        8.0190   21.1470   -8.4960 C.3   385  LEU385      0.0001
     73  N         13.1770   22.9120   -8.1040 N.am  386  ILE386     -0.1963
     74  CA        13.9990   24.0900   -8.3050 C.3   386  ILE386      0.1727
     75  C         15.3880   23.7400   -8.8450 C.2   386  ILE386      0.2617
     76  O         16.0640   24.5760   -9.4420 O.2   386  ILE386     -0.2715
     77  CB        14.1010   24.8910   -6.9860 C.3   386  ILE386      0.0290
     78  CG1       14.5990   26.3030   -7.2390 C.3   386  ILE386      0.0022
     79  CG2       14.9860   24.1920   -5.9960 C.3   386  ILE386      0.0023
     80  CD1       14.5680   27.1610   -6.0040 C.3   386  ILE386      0.0001
     81  N         15.7890   22.4880   -8.6680 N.am  387  SER387     -0.1936
     82  CA        17.1160   22.0360   -9.0700 C.3   387  SER387      0.2040
     83  C         17.1000   21.3480  -10.4300 C.2   387  SER387      0.2485
     84  O         16.0800   20.7920  -10.8370 O.2   387  SER387     -0.2729
     85  CB        17.6910   21.0860   -8.0120 C.3   387  SER387      0.2129
     86  OG        18.9850   20.6190   -8.3570 O.3   387  SER387     -0.2179
     87  N         18.2340   21.4010  -11.1480 N.am  388  PRO388     -0.2726
     88  CA        18.4060   20.6280  -12.3830 C.3   388  PRO388      0.1402
     89  C         18.3160   19.1160  -12.1620 C.2   388  PRO388      0.2269
     90  O         18.0920   18.3910  -13.1300 O.2   388  PRO388     -0.2865
     91  CB        19.8050   21.0320  -12.8540 C.3   388  PRO388      0.0296
     92  CG        19.9820   22.4190  -12.3270 C.3   388  PRO388      0.0237
     93  CD        19.3110   22.3950  -10.9720 C.3   388  PRO388      0.0939
     94  N         15.9210   17.9420  -10.6990 N.3   390  GLY390     -0.1210
     95  CA        14.4970   17.7850  -10.9290 C.3   390  GLY390      0.1956
     96  C         14.1560   18.0650  -12.3810 C.2   390  GLY390      0.2611
     97  O         13.0400   17.8010  -12.8410 O.2   390  GLY390     -0.2717
     98  N         15.1360   18.6080  -13.0990 N.am  391  LEU391     -0.1979
     99  CA        15.0290   18.8580  -14.5350 C.3   391  LEU391      0.1596
    100  C         15.4640   17.6240  -15.3350 C.2   391  LEU391      0.2287
    101  O         14.9690   17.3680  -16.4360 O.2   391  LEU391     -0.2864
    102  CB        15.8740   20.0740  -14.9150 C.3   391  LEU391      0.0297
    103  CG        15.8500   20.5650  -16.3580 C.3   391  LEU391      0.0022
    104  CD1       14.4260   20.8470  -16.8090 C.3   391  LEU391      0.0001
    105  CD2       16.7080   21.8090  -16.4710 C.3   391  LEU391      0.0001
    106  N         24.4300   26.6830  -17.4080 N.3   397  MET397     -0.1245
    107  CA        23.4790   26.1860  -16.4300 C.3   397  MET397      0.1570
    108  C         24.2230   25.4830  -15.2920 C.2   397  MET397      0.2261
    109  O         23.8560   25.6140  -14.1280 O.2   397  MET397     -0.2867
    110  CB        22.4700   25.2410  -17.0880 C.3   397  MET397      0.0387
    111  CG        21.6790   24.3440  -16.1150 C.3   397  MET397      0.0595
    112  SD        20.1990   25.0770  -15.3660 S.3   397  MET397     -0.1393
    113  CE        19.2050   25.4030  -16.8260 C.3   397  MET397      0.0692
@<TRIPOS>BOND
     1    23    21   am
     2    21    22    2
     3    21    20    1
     4    20    19    1
     5    15    16    1
     6    19    16    1
     7     4     3    2
     8    18    17    2
     9    16    17    1
    10     3     2    1
    11   106   107    1
    12    17    24   am
    13   110   107    1
    14   110   111    1
    15   113   112    1
    16   104   103    1
    17   105   103    1
    18   101   100    2
    19   107   108    1
    20   103   102    1
    21     5     2    1
    22     5     6    1
    23     2     1    1
    24   111   112    1
    25    24    25    1
    26    24    30    1
    27    27    26    2
    28    35    36    1
    29    35    32    1
    30    31    32    1
    31    26    25    1
    32   100    99    1
    33   108   109    2
    34    25    28    1
    35   102    99    1
    36    30    29    1
    37    32    33    1
    38     6     7   ar
    39     6     8   ar
    40    99    98    1
    41     7     9   ar
    42    11     8   ar
    43    11    13   ar
    44     8    10   ar
    45    33    34    2
    46    28    29    1
    47    13    14   ar
    48    90    89    2
    49    98    96   am
    50     9    10   ar
    51    44    45    1
    52    44    43    1
    53    10    12   ar
    54    91    88    1
    55    91    92    1
    56    97    96    2
    57    88    89    1
    58    88    87    1
    59    96    95    1
    60    92    93    1
    61    42    43    1
    62    42    41    1
    63    14    12   ar
    64    54    56   ar
    65    54    52   ar
    66    41    38    1
    67    87    93    1
    68    87    83   am
    69    56    55   ar
    70    95    94    1
    71    84    83    2
    72    52    51   ar
    73    37    38    1
    74    83    82    1
    75    38    39    1
    76    55    53   ar
    77    68    67    2
    78    51    53   ar
    79    51    50    1
    80    76    75    2
    81    60    59    2
    82    46    39   am
    83    46    47    1
    84    82    81    1
    85    82    85    1
    86    39    40    2
    87    50    47    1
    88    67    66    1
    89    67    73   am
    90    75    81   am
    91    75    74    1
    92    72    70    1
    93    66    69    1
    94    66    65    1
    95    86    85    1
    96    47    48    1
    97    74    73    1
    98    74    77    1
    99    59    65   am
   100    59    58    1
   101    69    70    1
   102    63    62    1
   103    63    64    1
   104    58    61    1
   105    58    57    1
   106    70    71    1
   107    78    77    1
   108    78    80    1
   109    61    62    1
   110    48    49    2
   111    77    79    1
