@<TRIPOS>MOLECULE
tmp/5oxpA07.pdb
 112 103 0 0 0
SMALL
GASTEIGER

@<TRIPOS>ATOM
      1  N         32.2230   26.6340   -5.1590 N.3    63  LEU63      -0.1245
      2  CA        32.9000   27.7110   -5.8950 C.3    63  LEU63       0.1561
      3  C         33.9650   27.1130   -6.8230 C.2    63  LEU63       0.2260
      4  O         34.0270   27.4230   -8.0170 O.2    63  LEU63      -0.2867
      5  CB        33.5420   28.7220   -4.9380 C.3    63  LEU63       0.0270
      6  CG        34.2400   29.9300   -5.5790 C.3    63  LEU63       0.0019
      7  CD1       33.3120   30.5960   -6.5760 C.3    63  LEU63       0.0001
      8  CD2       34.7160   30.9440   -4.5210 C.3    63  LEU63       0.0001
      9  N         32.7920   25.7910  -10.1290 N.3    66  THR66      -0.1203
     10  CA        32.5260   26.7130  -11.2230 C.3    66  THR66       0.1994
     11  C         33.7440   26.8930  -12.1110 C.2    66  THR66       0.2617
     12  O         33.6060   27.3390  -13.2370 O.2    66  THR66      -0.2717
     13  CB        32.1020   28.1310  -10.7450 C.3    66  THR66       0.1784
     14  OG1       33.2420   28.8170  -10.1940 O.3    66  THR66      -0.2211
     15  CG2       30.9240   28.0760   -9.7370 C.3    66  THR66       0.0376
     16  N         34.9400   26.5730  -11.6310 N.am   67  ILE67      -0.1979
     17  CA        36.0990   26.7990  -12.4920 C.3    67  ILE67       0.1595
     18  C         36.7640   25.5090  -12.9660 C.2    67  ILE67       0.2287
     19  O         37.5330   25.5280  -13.9230 O.2    67  ILE67      -0.2864
     20  CB        37.1410   27.6960  -11.7970 C.3    67  ILE67       0.0276
     21  CG1       38.0320   26.9020  -10.8670 C.3    67  ILE67       0.0022
     22  CG2       36.4400   28.7830  -11.0090 C.3    67  ILE67       0.0022
     23  CD1       38.9650   27.7890  -10.1200 C.3    67  ILE67       0.0001
     24  N         44.2200   38.7460   -9.0000 N.3   219  ALA219     -0.1231
     25  CA        43.2590   38.2120   -8.0280 C.3   219  ALA219      0.1694
     26  C         43.9340   37.6030   -6.7980 C.2   219  ALA219      0.2591
     27  O         43.5370   37.8810   -5.6650 O.2   219  ALA219     -0.2718
     28  CB        42.3530   37.1740   -8.6850 C.3   219  ALA219      0.0304
     29  N         44.9310   36.7510   -7.0200 N.am  220  VAL220     -0.1980
     30  CA        45.6990   36.1750   -5.9260 C.3   220  VAL220      0.1595
     31  C         46.4000   37.2930   -5.1220 C.2   220  VAL220      0.2287
     32  O         46.2950   37.3440   -3.8970 O.2   220  VAL220     -0.2864
     33  CB        46.7250   35.1560   -6.4540 C.3   220  VAL220      0.0276
     34  CG1       47.7280   34.7670   -5.3730 C.3   220  VAL220      0.0022
     35  CG2       46.0110   33.9240   -6.9980 C.3   220  VAL220      0.0022
     36  N         43.9860   39.3460   -3.0660 N.3   223  PHE223     -0.1241
     37  CA        43.5040   38.5210   -1.9780 C.3   223  PHE223      0.1605
     38  C         44.5660   38.4270   -0.8680 C.2   223  PHE223      0.2264
     39  O         44.2480   38.5080    0.3090 O.2   223  PHE223     -0.2867
     40  CB        43.1210   37.1380   -2.5120 C.3   223  PHE223      0.0534
     41  CG        42.5460   36.2220   -1.4770 C.ar  223  PHE223     -0.0203
     42  CD1       41.2620   36.4190   -1.0030 C.ar  223  PHE223     -0.0042
     43  CD2       43.2860   35.1510   -0.9850 C.ar  223  PHE223     -0.0042
     44  CE1       40.7180   35.5820   -0.0440 C.ar  223  PHE223     -0.0003
     45  CE2       42.7510   34.2990   -0.0250 C.ar  223  PHE223     -0.0003
     46  CZ        41.4570   34.5180    0.4470 C.ar  223  PHE223     -0.0000
     47  N         35.8420   35.1670    3.2450 N.3   245  LEU245     -0.1245
     48  CA        35.4450   34.1870    2.2280 C.3   245  LEU245      0.1561
     49  C         33.9580   34.3200    1.8930 C.2   245  LEU245      0.2260
     50  O         33.5400   34.1300    0.7500 O.2   245  LEU245     -0.2867
     51  CB        35.7630   32.7630    2.6830 C.3   245  LEU245      0.0270
     52  CG        37.2320   32.3780    2.8690 C.3   245  LEU245      0.0019
     53  CD1       37.3480   30.9850    3.4670 C.3   245  LEU245      0.0001
     54  CD2       38.0240   32.4420    1.5530 C.3   245  LEU245      0.0001
     55  N         33.6610   37.1970   -0.4770 N.3   248  VAL248     -0.1245
     56  CA        34.1610   36.9360   -1.8150 C.3   248  VAL248      0.1561
     57  C         33.1530   36.0790   -2.5810 C.2   248  VAL248      0.2260
     58  O         32.8750   36.3290   -3.7450 O.2   248  VAL248     -0.2867
     59  CB        35.5570   36.2600   -1.7990 C.3   248  VAL248      0.0252
     60  CG1       35.9840   35.8780   -3.2110 C.3   248  VAL248      0.0019
     61  CG2       36.6010   37.1890   -1.1710 C.3   248  VAL248      0.0019
     62  N         31.0610   37.6970   -6.1120 N.3   252  ILE252     -0.1245
     63  CA        31.2420   37.1180   -7.4410 C.3   252  ILE252      0.1561
     64  C         29.9750   37.1680   -8.3430 C.2   252  ILE252      0.2260
     65  O         30.0520   37.6330   -9.4840 O.2   252  ILE252     -0.2867
     66  CB        31.7680   35.6630   -7.2990 C.3   252  ILE252      0.0252
     67  CG1       33.2300   35.7110   -6.8430 C.3   252  ILE252      0.0019
     68  CG2       31.6160   34.8850   -8.5970 C.3   252  ILE252      0.0019
     69  CD1       33.8020   34.3860   -6.5020 C.3   252  ILE252      0.0001
     70  N         29.6140   39.3150  -11.6410 N.3   256  TYR256     -0.1241
     71  CA        29.2260   38.5710  -12.8360 C.3   256  TYR256      0.1605
     72  C         27.9270   39.0840  -13.4780 C.2   256  TYR256      0.2264
     73  O         27.8300   39.1960  -14.7040 O.2   256  TYR256     -0.2867
     74  CB        29.0800   37.0880  -12.4870 C.3   256  TYR256      0.0534
     75  CG        28.6050   36.2090  -13.6240 C.ar  256  TYR256     -0.0201
     76  CD1       29.5010   35.7120  -14.5670 C.ar  256  TYR256     -0.0009
     77  CD2       27.2620   35.8650  -13.7500 C.ar  256  TYR256     -0.0009
     78  CE1       29.0720   34.9060  -15.6060 C.ar  256  TYR256      0.0417
     79  CE2       26.8260   35.0610  -14.7850 C.ar  256  TYR256      0.0417
     80  CZ        27.7360   34.5860  -15.7070 C.ar  256  TYR256      0.1957
     81  OH        27.3090   33.7850  -16.7320 O.3   256  TYR256     -0.2866
     82  N         26.7980   26.6640  -18.7980 N.3   396  GLN396     -0.1245
     83  CA        26.4090   27.8810  -18.1040 C.3   396  GLN396      0.1566
     84  C         25.3770   27.5380  -17.0490 C.2   396  GLN396      0.2260
     85  O         25.4380   28.0300  -15.9270 O.2   396  GLN396     -0.2867
     86  CB        25.8640   28.9290  -19.0770 C.3   396  GLN396      0.0367
     87  CG        26.9160   29.5250  -20.0100 C.3   396  GLN396      0.0905
     88  CD        28.0500   30.2080  -19.2600 C.2   396  GLN396      0.2608
     89  OE1       27.8200   30.9720  -18.3220 O.2   396  GLN396     -0.2717
     90  NE2       29.2840   29.9280  -19.6690 N.am  396  GLN396     -0.0878
     91  N         27.4890   25.8800  -14.2990 N.3   399  SER399     -0.1202
     92  CA        28.2750   26.8080  -13.4990 C.3   399  SER399      0.2020
     93  C         27.3720   27.6740  -12.6110 C.2   399  SER399      0.2618
     94  O         27.7280   27.9620  -11.4720 O.2   399  SER399     -0.2717
     95  CB        29.1450   27.6860  -14.3930 C.3   399  SER399      0.2103
     96  OG        28.3300   28.4790  -15.2370 O.3   399  SER399     -0.2182
     97  N         26.2030   28.0720  -13.1100 N.am  400  MET400     -0.1979
     98  CA        25.2860   28.8780  -12.3050 C.3   400  MET400      0.1605
     99  C         24.6320   28.0310  -11.2210 C.2   400  MET400      0.2287
    100  O         24.1820   28.5340  -10.1860 O.2   400  MET400     -0.2864
    101  CB        24.2150   29.5260  -13.1840 C.3   400  MET400      0.0413
    102  CG        24.7640   30.5370  -14.1890 C.3   400  MET400      0.0598
    103  SD        25.7190   31.8640  -13.4300 S.3   400  MET400     -0.1393
    104  CE        24.4750   32.5850  -12.3650 C.3   400  MET400      0.0692
    105  N         27.4740   27.9570   -8.6390 N.3   403  LEU403     -0.1245
    106  CA        27.5470   29.2910   -8.0540 C.3   403  LEU403      0.1561
    107  C         26.4000   29.5840   -7.0620 C.2   403  LEU403      0.2260
    108  O         26.6140   30.1240   -5.9680 O.2   403  LEU403     -0.2867
    109  CB        27.5550   30.3360   -9.1670 C.3   403  LEU403      0.0270
    110  CG        28.0130   31.7140   -8.7200 C.3   403  LEU403      0.0019
    111  CD1       29.3840   31.5800   -8.0950 C.3   403  LEU403      0.0001
    112  CD2       28.0490   32.6820   -9.8880 C.3   403  LEU403      0.0001
@<TRIPOS>BOND
     1    87    88    1
     2    87    86    1
     3    90    88   am
     4    88    89    2
     5    86    83    1
     6    82    83    1
     7    83    84    1
     8    84    85    2
     9    81    80    1
    10    80    78   ar
    11    80    79   ar
    12    78    76   ar
    13    96    95    1
    14    79    77   ar
    15    73    72    2
    16    76    75   ar
    17    95    92    1
    18    91    92    1
    19   102   103    1
    20   102   101    1
    21    19    18    2
    22    77    75   ar
    23    75    74    1
    24    92    93    1
    25    72    71    1
    26   103   104    1
    27    12    11    2
    28   101    98    1
    29    97    93   am
    30    97    98    1
    31    18    17    1
    32    71    74    1
    33    71    70    1
    34    93    94    2
    35    17    20    1
    36    17    16    1
    37    98    99    1
    38    11    16   am
    39    11    10    1
    40    20    22    1
    41    20    21    1
    42    10    13    1
    43    10     9    1
    44    99   100    2
    45    21    23    1
    46    13    14    1
    47    13    15    1
    48   112   110    1
    49    65    64    2
    50   109   110    1
    51   109   106    1
    52    24    25    1
    53   110   111    1
    54    28    25    1
    55   105   106    1
    56    68    66    1
    57    64    63    1
    58   106   107    1
    59    25    26    1
    60     4     3    2
    61    63    66    1
    62    63    62    1
    63    66    67    1
    64   107   108    2
    65    29    26   am
    66    29    30    1
    67    35    33    1
    68    67    69    1
    69     3     2    1
    70    26    27    2
    71     7     6    1
    72    33    30    1
    73    33    34    1
    74    30    31    1
    75     2     1    1
    76     2     5    1
    77     6     5    1
    78     6     8    1
    79    31    32    2
    80    58    57    2
    81    60    59    1
    82    36    37    1
    83    57    56    1
    84    40    37    1
    85    40    41    1
    86    37    38    1
    87    56    59    1
    88    56    55    1
    89    59    61    1
    90    41    42   ar
    91    41    43   ar
    92    42    44   ar
    93    43    45   ar
    94    38    39    2
    95    44    46   ar
    96    45    46   ar
    97    50    49    2
    98    54    52    1
    99    49    48    1
   100    48    51    1
   101    48    47    1
   102    51    52    1
   103    52    53    1
