@<TRIPOS>MOLECULE
tmp/5oxqA04.pdb
 89 81 0 0 0
SMALL
GASTEIGER

@<TRIPOS>ATOM
      1  N         36.3940   33.7690   11.9720 N.3   242  PRO242     -0.2116
      2  CA        35.1590   34.3770   11.4580 C.3   242  PRO242      0.1372
      3  C         35.3990   35.4600   10.4050 C.2   242  PRO242      0.2244
      4  O         34.6340   35.5110    9.4280 O.2   242  PRO242     -0.2868
      5  CB        34.5350   34.9790   12.7130 C.3   242  PRO242      0.0268
      6  CG        34.9630   34.0340   13.7730 C.3   242  PRO242      0.0207
      7  CD        36.3790   33.7080   13.4440 C.3   242  PRO242      0.0892
      8  N         34.0970   35.5460    6.7080 N.3   246  ASN246     -0.1240
      9  CA        33.3850   36.6960    6.1840 C.3   246  ASN246      0.1653
     10  C         33.9920   37.1610    4.8520 C.2   246  ASN246      0.2266
     11  O         33.2610   37.5290    3.9320 O.2   246  ASN246     -0.2867
     12  CB        33.3740   37.8380    7.2050 C.3   246  ASN246      0.1155
     13  CG        32.5220   37.5200    8.4280 C.2   246  ASN246      0.2627
     14  OD1       31.7790   36.5330    8.4420 O.2   246  ASN246     -0.2716
     15  ND2       32.6230   38.3540    9.4570 N.am  246  ASN246     -0.0877
     16  N         32.6990   34.8010    2.3030 N.3   249  THR249     -0.1218
     17  CA        31.2890   35.0740    2.0840 C.3   249  THR249      0.1862
     18  C         31.1180   36.2040    1.0630 C.2   249  THR249      0.2287
     19  O         30.3520   36.0830    0.0940 O.2   249  THR249     -0.2866
     20  CB        30.5930   35.4660    3.4020 C.3   249  THR249      0.1770
     21  OG1       30.6890   34.3770    4.3300 O.3   249  THR249     -0.2211
     22  CG2       29.1280   35.8560    3.1550 C.3   249  THR249      0.0375
     23  N         29.5060   36.1690   -2.7360 N.3   253  ILE253     -0.1245
     24  CA        28.3090   36.9260   -3.0850 C.3   253  ILE253      0.1561
     25  C         28.6670   37.9950   -4.1100 C.2   253  ILE253      0.2260
     26  O         27.8930   38.2750   -5.0160 O.2   253  ILE253     -0.2867
     27  CB        27.6390   37.5480   -1.8470 C.3   253  ILE253      0.0252
     28  CG1       27.0540   36.4390   -0.9710 C.3   253  ILE253      0.0019
     29  CG2       26.5160   38.4580   -2.2570 C.3   253  ILE253      0.0019
     30  CD1       26.6690   36.8810    0.4370 C.3   253  ILE253      0.0001
     31  N         26.9750   39.3160   -7.9070 N.3   257  VAL257     -0.1245
     32  CA        26.5610   40.7160   -7.8520 C.3   257  VAL257      0.1561
     33  C         27.2230   41.4970   -8.9770 C.2   257  VAL257      0.2260
     34  O         26.5820   42.3140   -9.6390 O.2   257  VAL257     -0.2867
     35  CB        26.8970   41.3830   -6.4990 C.3   257  VAL257      0.0252
     36  CG1       26.7170   42.8850   -6.5870 C.3   257  VAL257      0.0019
     37  CG2       26.0140   40.8220   -5.3970 C.3   257  VAL257      0.0019
     38  N         26.2960   30.6410   -3.4670 N.3   410  VAL410     -0.1245
     39  CA        25.7960   31.8450   -2.7920 C.3   410  VAL410      0.1561
     40  C         24.8900   31.4940   -1.6120 C.2   410  VAL410      0.2260
     41  O         25.0050   32.0870   -0.5280 O.2   410  VAL410     -0.2867
     42  CB        25.0290   32.7560   -3.7770 C.3   410  VAL410      0.0252
     43  CG1       24.4930   33.9910   -3.0730 C.3   410  VAL410      0.0019
     44  CG2       25.9480   33.1620   -4.8950 C.3   410  VAL410      0.0019
     45  N         25.6970   32.5100    2.2180 N.3   414  LEU414     -0.1245
     46  CA        24.7010   33.0900    3.1150 C.3   414  LEU414      0.1561
     47  C         24.5580   32.2400    4.3860 C.2   414  LEU414      0.2260
     48  O         24.4420   32.7850    5.4920 O.2   414  LEU414     -0.2867
     49  CB        23.3480   33.2230    2.4080 C.3   414  LEU414      0.0270
     50  CG        22.1440   33.7310    3.2140 C.3   414  LEU414      0.0019
     51  CD1       22.3510   35.1270    3.8060 C.3   414  LEU414      0.0001
     52  CD2       20.8660   33.7220    2.3540 C.3   414  LEU414      0.0001
     53  N         26.7710   30.5050    5.8540 N.3   416  ALA416     -0.1231
     54  CA        27.9290   30.7170    6.6960 C.3   416  ALA416      0.1694
     55  C         27.6920   31.8520    7.6800 C.2   416  ALA416      0.2592
     56  O         28.3000   31.8840    8.7580 O.2   416  ALA416     -0.2718
     57  CB        29.1810   30.9980    5.8370 C.3   416  ALA416      0.0304
     58  N         26.8090   32.7820    7.3120 N.am  417  GLN417     -0.1966
     59  CA        26.4380   33.8670    8.2110 C.3   417  GLN417      0.1733
     60  C         25.2800   33.4570    9.1170 C.2   417  GLN417      0.2616
     61  O         25.3320   33.6480   10.3360 O.2   417  GLN417     -0.2715
     62  CB        26.0610   35.1190    7.4150 C.3   417  GLN417      0.0408
     63  CG        27.1520   35.5620    6.4770 C.3   417  GLN417      0.0908
     64  CD        28.3910   35.9220    7.2450 C.2   417  GLN417      0.2608
     65  OE1       28.3120   36.6310    8.2520 O.2   417  GLN417     -0.2717
     66  NE2       29.5340   35.4240    6.8080 N.am  417  GLN417     -0.0878
     67  N         24.2360   32.8930    8.5170 N.am  418  LEU418     -0.1977
     68  CA        23.0110   32.6400    9.2550 C.3   418  LEU418      0.1596
     69  C         23.1070   31.5170   10.2890 C.2   418  LEU418      0.2287
     70  O         22.5450   31.6490   11.3820 O.2   418  LEU418     -0.2864
     71  CB        21.8710   32.3150    8.2970 C.3   418  LEU418      0.0297
     72  CG        21.4830   33.3410    7.2330 C.3   418  LEU418      0.0022
     73  CD1       20.3740   32.7470    6.3570 C.3   418  LEU418      0.0001
     74  CD2       21.0430   34.6450    7.8440 C.3   418  LEU418      0.0001
     75  N         25.2160   30.6470   12.3030 N.3   420  THR420     -0.1203
     76  CA        25.7540   31.0930   13.5870 C.3   420  THR420      0.1994
     77  C         24.6650   31.6600   14.5050 C.2   420  THR420      0.2617
     78  O         24.8880   31.8120   15.7040 O.2   420  THR420     -0.2717
     79  CB        26.8580   32.1720   13.4220 C.3   420  THR420      0.1784
     80  OG1       26.2790   33.3840   12.9220 O.3   420  THR420     -0.2211
     81  CG2       27.9420   31.7000   12.4720 C.3   420  THR420      0.0376
     82  N         23.4980   31.9790   13.9540 N.am  421  LEU421     -0.1979
     83  CA        22.3880   32.4510   14.7750 C.3   421  LEU421      0.1596
     84  C         21.6430   31.3010   15.4420 C.2   421  LEU421      0.2287
     85  O         20.8550   31.5230   16.3640 O.2   421  LEU421     -0.2864
     86  CB        21.4060   33.2670   13.9410 C.3   421  LEU421      0.0297
     87  CG        22.0130   34.4380   13.1680 C.3   421  LEU421      0.0022
     88  CD1       20.9720   35.0350   12.2490 C.3   421  LEU421      0.0001
     89  CD2       22.5570   35.4930   14.1290 C.3   421  LEU421      0.0001
@<TRIPOS>BOND
     1    34    33    2
     2    33    32    1
     3    31    32    1
     4    32    35    1
     5    36    35    1
     6    35    37    1
     7    26    25    2
     8    44    42    1
     9    25    24    1
    10    42    43    1
    11    42    39    1
    12    38    39    1
    13    24    23    1
    14    24    27    1
    15    39    40    1
    16    29    27    1
    17    27    28    1
    18    40    41    2
    19    28    30    1
    20    19    18    2
    21    18    17    1
    22    17    16    1
    23    17    20    1
    24    45    46    1
    25    52    50    1
    26    49    46    1
    27    49    50    1
    28    46    47    1
    29    22    20    1
    30    50    51    1
    31    20    21    1
    32    11    10    2
    33    47    48    2
    34    10     9    1
    35    57    54    1
    36    53    54    1
    37     9     8    1
    38     9    12    1
    39    73    72    1
    40    63    64    1
    41    63    62    1
    42    54    55    1
    43    66    64   am
    44    12    13    1
    45    72    74    1
    46    72    71    1
    47    64    65    2
    48    58    55   am
    49    58    59    1
    50    62    59    1
    51    55    56    2
    52    59    60    1
    53    71    68    1
    54    13    14    2
    55    13    15   am
    56    67    60   am
    57    67    68    1
    58    60    61    2
    59    68    69    1
    60     4     3    2
    61    69    70    2
    62     3     2    1
    63     2     1    1
    64     2     5    1
    65     1     7    1
    66    88    87    1
    67    75    76    1
    68    81    79    1
    69     5     6    1
    70    80    79    1
    71    87    86    1
    72    87    89    1
    73    79    76    1
    74     7     6    1
    75    76    77    1
    76    86    83    1
    77    82    77   am
    78    82    83    1
    79    77    78    2
    80    83    84    1
    81    84    85    2
