@<TRIPOS>MOLECULE
tmp/5oxqA10.pdb
 101 99 0 0 0
SMALL
GASTEIGER

@<TRIPOS>ATOM
      1  N         30.3540   16.8840   13.6730 N.3    33  TYR33      -0.1241
      2  CA        30.4590   16.2050   14.9550 C.3    33  TYR33       0.1605
      3  C         31.9330   16.0140   15.3130 C.2    33  TYR33       0.2264
      4  O         32.3150   16.0580   16.4930 O.2    33  TYR33      -0.2867
      5  CB        29.7230   14.8550   14.9160 C.3    33  TYR33       0.0534
      6  CG        28.2490   14.9520   14.5470 C.ar   33  TYR33      -0.0201
      7  CD1       27.4930   16.0690   14.9020 C.ar   33  TYR33      -0.0009
      8  CD2       27.6070   13.9140   13.8530 C.ar   33  TYR33      -0.0009
      9  CE1       26.1390   16.1480   14.5710 C.ar   33  TYR33       0.0417
     10  CE2       26.2460   13.9890   13.5130 C.ar   33  TYR33       0.0417
     11  CZ        25.5280   15.0970   13.8740 C.ar   33  TYR33       0.1957
     12  OH        24.2000   15.1920   13.5390 O.3    33  TYR33      -0.2866
     13  N         33.0310   19.2760   16.7060 N.3    36  TRP36      -0.1241
     14  CA        32.5060   19.3290   18.0710 C.3    36  TRP36       0.1605
     15  C         33.4070   18.5490   19.0090 C.2    36  TRP36       0.2264
     16  O         33.7330   19.0140   20.1100 O.2    36  TRP36      -0.2867
     17  CB        31.0860   18.7580   18.1660 C.3    36  TRP36       0.0550
     18  CG        30.0170   19.5750   17.5100 C.ar   36  TRP36       0.0003
     19  CD1       30.1820   20.7080   16.7690 C.ar   36  TRP36       0.0946
     20  CD2       28.6130   19.3120   17.5330 C.ar   36  TRP36       0.0152
     21  NE1       28.9620   21.1730   16.3350 N.ar   36  TRP36      -0.2442
     22  CE2       27.9840   20.3260   16.7810 C.ar   36  TRP36       0.0810
     23  CE3       27.8240   18.3170   18.1230 C.ar   36  TRP36       0.0012
     24  CZ2       26.6120   20.3800   16.6010 C.ar   36  TRP36       0.0191
     25  CZ3       26.4520   18.3610   17.9380 C.ar   36  TRP36       0.0001
     26  CH2       25.8610   19.3910   17.1840 C.ar   36  TRP36       0.0015
     27  N         30.9740   26.3310   18.6840 N.3    48  ARG48      -0.1245
     28  CA        30.1630   25.4610   17.8620 C.3    48  ARG48       0.1563
     29  C         29.5320   26.2400   16.7190 C.2    48  ARG48       0.2260
     30  O         29.3370   25.7010   15.6200 O.2    48  ARG48      -0.2867
     31  CB        29.0960   24.7790   18.7090 C.3    48  ARG48       0.0307
     32  CG        29.6100   23.5120   19.3530 C.3    48  ARG48       0.0489
     33  CD        28.4840   22.6390   19.8490 C.3    48  ARG48       0.2205
     34  NE        29.0420   21.4570   20.4840 N.pl3  48  ARG48      -0.0865
     35  CZ        28.3280   20.4330   20.9210 C.cat  48  ARG48       0.5346
     36  NH1       27.0100   20.4340   20.7850 N.pl3  48  ARG48       0.1354
     37  NH2       28.9420   19.4050   21.4860 N.pl3  48  ARG48       0.1354
     38  N         32.1010    5.2880   12.2120 N.3   165  GLN165     -0.1231
     39  CA        32.5760    6.2980   13.1600 C.3   165  GLN165      0.1698
     40  C         32.2490    5.8980   14.5940 C.2   165  GLN165      0.2592
     41  O         33.0840    6.0090   15.4930 O.2   165  GLN165     -0.2718
     42  CB        31.9760    7.6720   12.8500 C.3   165  GLN165      0.0381
     43  CG        32.5530    8.8030   13.7130 C.3   165  GLN165      0.0905
     44  CD        31.8910    8.9310   15.0920 C.2   165  GLN165      0.2608
     45  OE1       30.6630    8.8300   15.2160 O.2   165  GLN165     -0.2717
     46  NE2       32.7040    9.1530   16.1300 N.am  165  GLN165     -0.0878
     47  N         31.0410    5.4080   14.8030 N.am  166  GLU166     -0.1979
     48  CA        30.6190    5.0950   16.1460 C.3   166  GLU166      0.1602
     49  C         31.2420    3.7730   16.6240 C.2   166  GLU166      0.2287
     50  O         31.5530    3.6200   17.7980 O.2   166  GLU166     -0.2864
     51  CB        29.0830    5.0810   16.2040 C.3   166  GLU166      0.0415
     52  CG        28.4200    3.7990   16.7160 C.3   166  GLU166      0.1163
     53  CD        27.0330    4.0660   17.3080 C.2   166  GLU166      0.3649
     54  OE1       26.2560    3.1000   17.4670 O.co2 166  GLU166     -0.2457
     55  OE2       26.7170    5.2470   17.6240 O.co2 166  GLU166     -0.2457
     56  N         36.5910    8.3950   14.5690 N.3   170  TYR170     -0.1241
     57  CA        36.6340    9.3210   13.4450 C.3   170  TYR170      0.1605
     58  C         37.6740    8.9850   12.3730 C.2   170  TYR170      0.2264
     59  O         37.3590    8.9870   11.1820 O.2   170  TYR170     -0.2867
     60  CB        36.8610   10.7500   13.9770 C.3   170  TYR170      0.0534
     61  CG        35.6020   11.2990   14.6030 C.ar  170  TYR170     -0.0201
     62  CD1       34.5370   11.7160   13.8060 C.ar  170  TYR170     -0.0009
     63  CD2       35.4630   11.3710   15.9880 C.ar  170  TYR170     -0.0009
     64  CE1       33.3670   12.2050   14.3760 C.ar  170  TYR170      0.0417
     65  CE2       34.3020   11.8510   16.5690 C.ar  170  TYR170      0.0417
     66  CZ        33.2640   12.2710   15.7630 C.ar  170  TYR170      0.1957
     67  OH        32.1160   12.7250   16.3460 O.3   170  TYR170     -0.2866
     68  N         21.4220   15.9730   16.6350 N.3   293  ALA293     -0.1231
     69  CA        22.2930   15.5290   17.7050 C.3   293  ALA293      0.1694
     70  C         21.8070   16.0200   19.0660 C.2   293  ALA293      0.2591
     71  O         21.9840   15.3480   20.0690 O.2   293  ALA293     -0.2718
     72  CB        23.7150   15.9970   17.4480 C.3   293  ALA293      0.0304
     73  N         21.1800   17.1880   19.1010 N.am  294  GLU294     -0.1979
     74  CA        20.8830   17.8330   20.3730 C.3   294  GLU294      0.1602
     75  C         19.4180   17.7180   20.8390 C.2   294  GLU294      0.2287
     76  O         19.1270   17.8910   22.0080 O.2   294  GLU294     -0.2864
     77  CB        21.2830   19.3120   20.2880 C.3   294  GLU294      0.0415
     78  CG        22.7920   19.5640   20.2300 C.3   294  GLU294      0.1163
     79  CD        23.1350   21.0490   20.0890 C.2   294  GLU294      0.3649
     80  OE1       22.2210   21.8640   19.7830 O.co2 294  GLU294     -0.2457
     81  OE2       24.3240   21.4110   20.2830 O.co2 294  GLU294     -0.2457
     82  N         23.1740    5.8270   15.1350 N.3   302  PRO302     -0.2102
     83  CA        24.0370    6.9710   14.8210 C.3   302  PRO302      0.1504
     84  C         23.2460    8.1670   14.2410 C.2   302  PRO302      0.2576
     85  O         22.4820    8.0520   13.2800 O.2   302  PRO302     -0.2718
     86  CB        25.0170    6.4030   13.7960 C.3   302  PRO302      0.0282
     87  CG        24.9960    4.9220   14.0210 C.3   302  PRO302      0.0208
     88  CD        23.5870    4.6100   14.4080 C.3   302  PRO302      0.0893
     89  N         23.4420    9.3210   14.8570 N.am  303  VAL303     -0.1966
     90  CA        22.6680   10.5030   14.5100 C.3   303  VAL303      0.1727
     91  C         23.0690   11.0360   13.1180 C.2   303  VAL303      0.2616
     92  O         22.2930   11.6990   12.4410 O.2   303  VAL303     -0.2715
     93  CB        22.8180   11.5760   15.6160 C.3   303  VAL303      0.0290
     94  CG1       24.2690   12.0450   15.7410 C.3   303  VAL303      0.0023
     95  CG2       21.9150   12.6920   15.3560 C.3   303  VAL303      0.0023
     96  N         24.2640   10.6800   12.6680 N.am  304  SER304     -0.1950
     97  CA        24.7070   11.0010   11.3110 C.3   304  SER304      0.1924
     98  C         23.8080   10.3880   10.2180 C.2   304  SER304      0.2314
     99  O         23.7360   10.9090    9.0990 O.2   304  SER304     -0.2863
    100  CB        26.1500   10.5180   11.1180 C.3   304  SER304      0.2116
    101  OG        26.2430    9.1350   11.4460 O.3   304  SER304     -0.2180
@<TRIPOS>BOND
     1    99    98    2
     2    98    97    1
     3   100    97    1
     4   100   101    1
     5    59    58    2
     6    97    96    1
     7    38    39    1
     8    58    57    1
     9    92    91    2
    10    96    91   am
    11    42    39    1
    12    42    43    1
    13    91    90    1
    14    39    40    1
    15    85    84    2
    16    57    60    1
    17    57    56    1
    18    10     8   ar
    19    10    11   ar
    20    12    11    1
    21     1     2    1
    22    43    44    1
    23    86    87    1
    24    86    83    1
    25    62    64   ar
    26    62    61   ar
    27     8     6   ar
    28    11     9   ar
    29    60    61    1
    30    87    88    1
    31    84    83    1
    32    84    89   am
    33    64    66   ar
    34    88    82    1
    35    90    89    1
    36    90    93    1
    37     6     7   ar
    38     6     5    1
    39     9     7   ar
    40    40    47   am
    41    40    41    2
    42    61    63   ar
    43    47    48    1
    44    83    82    1
    45     5     2    1
    46     2     3    1
    47    44    45    2
    48    44    46   am
    49     3     4    2
    50    95    93    1
    51    93    94    1
    52    30    29    2
    53    66    67    1
    54    66    65   ar
    55    63    65   ar
    56    48    51    1
    57    48    49    1
    58    51    52    1
    59    21    19   ar
    60    21    22   ar
    61    24    22   ar
    62    24    26   ar
    63    49    50    2
    64    68    69    1
    65    13    14    1
    66    52    53    1
    67    29    28    1
    68    19    18   ar
    69    22    20   ar
    70    26    25   ar
    71    53    54   ar
    72    53    55   ar
    73    72    69    1
    74    18    20   ar
    75    18    17    1
    76    20    23   ar
    77    69    70    1
    78    28    27    1
    79    28    31    1
    80    25    23   ar
    81    14    17    1
    82    14    15    1
    83    31    32    1
    84    15    16    2
    85    70    73   am
    86    70    71    2
    87    73    74    1
    88    32    33    1
    89    80    79   ar
    90    33    34    1
    91    79    78    1
    92    79    81   ar
    93    78    77    1
    94    77    74    1
    95    74    75    1
    96    34    35    2
    97    36    35    1
    98    75    76    2
    99    35    37    1
