@<TRIPOS>MOLECULE
tmp/5oxqA11.pdb
 157 149 0 0 0
SMALL
GASTEIGER

@<TRIPOS>ATOM
      1  N         29.8500   12.7680    0.9580 N.3    25  TYR25      -0.1241
      2  CA        28.7540   12.8680    1.9160 C.3    25  TYR25       0.1605
      3  C         29.0030   12.0110    3.1490 C.2    25  TYR25       0.2264
      4  O         28.4140   12.2680    4.1920 O.2    25  TYR25      -0.2867
      5  CB        27.4360   12.4870    1.2540 C.3    25  TYR25       0.0534
      6  CG        26.9160   13.5920    0.3650 C.ar   25  TYR25      -0.0201
      7  CD1       26.6050   14.8300    0.8930 C.ar   25  TYR25      -0.0009
      8  CD2       26.7520   13.3970   -1.0070 C.ar   25  TYR25      -0.0009
      9  CE1       26.1150   15.8600    0.0830 C.ar   25  TYR25       0.0417
     10  CE2       26.2750   14.4050   -1.8290 C.ar   25  TYR25       0.0417
     11  CZ        25.9550   15.6370   -1.2770 C.ar   25  TYR25       0.1957
     12  OH        25.4770   16.6410   -2.0720 O.3    25  TYR25      -0.2866
     13  N         30.9940   14.5650    4.9960 N.3    28  ARG28      -0.1245
     14  CA        30.0670   15.6060    5.4250 C.3    28  ARG28       0.1563
     15  C         29.1800   15.1810    6.5980 C.2    28  ARG28       0.2260
     16  O         28.8560   16.0120    7.4560 O.2    28  ARG28      -0.2867
     17  CB        29.1690   16.0510    4.2690 C.3    28  ARG28       0.0307
     18  CG        29.8700   16.8710    3.1600 C.3    28  ARG28       0.0489
     19  CD        30.1890   18.2860    3.5630 C.3    28  ARG28       0.2205
     20  NE        28.9900   19.0730    3.8810 N.pl3  28  ARG28      -0.0865
     21  CZ        29.0370   20.3640    4.2110 C.cat  28  ARG28       0.5346
     22  NH1       30.2080   20.9940    4.2500 N.pl3  28  ARG28       0.1354
     23  NH2       27.9340   21.0280    4.5150 N.pl3  28  ARG28       0.1354
     24  N         31.2040   24.3190   -4.2250 N.3    63  TYR63      -0.1241
     25  CA        30.3670   24.6910   -5.3570 C.3    63  TYR63       0.1605
     26  C         31.0720   25.6900   -6.2910 C.2    63  TYR63       0.2264
     27  O         31.0670   25.4940   -7.5180 O.2    63  TYR63      -0.2867
     28  CB        29.0290   25.2600   -4.8640 C.3    63  TYR63       0.0534
     29  CG        28.1470   24.2090   -4.2110 C.ar   63  TYR63      -0.0201
     30  CD1       27.9680   22.9690   -4.7980 C.ar   63  TYR63      -0.0009
     31  CD2       27.5260   24.4490   -2.9940 C.ar   63  TYR63      -0.0009
     32  CE1       27.1820   22.0140   -4.2020 C.ar   63  TYR63       0.0417
     33  CE2       26.7450   23.5040   -2.3900 C.ar   63  TYR63       0.0417
     34  CZ        26.5730   22.2940   -2.9940 C.ar   63  TYR63       0.1957
     35  OH        25.7920   21.3440   -2.3950 O.3    63  TYR63      -0.2866
     36  N         22.8110    9.9650   -6.2190 N.3   151  ASN151     -0.1240
     37  CA        21.9410    9.9250   -5.0650 C.3   151  ASN151      0.1653
     38  C         22.1530    8.6730   -4.2150 C.2   151  ASN151      0.2266
     39  O         22.1330    8.7350   -2.9860 O.2   151  ASN151     -0.2867
     40  CB        20.4950   10.0390   -5.5270 C.3   151  ASN151      0.1155
     41  CG        20.1970   11.4090   -6.1320 C.2   151  ASN151      0.2627
     42  OD1       20.7640   12.4130   -5.7050 O.2   151  ASN151     -0.2716
     43  ND2       19.3190   11.4500   -7.1310 N.am  151  ASN151     -0.0877
     44  N         25.2140    9.2190   -2.1440 N.3   154  ALA154     -0.1245
     45  CA        24.8790   10.1460   -1.0710 C.3   154  ALA154      0.1562
     46  C         24.0840    9.4540    0.0260 C.2   154  ALA154      0.2260
     47  O         24.1860    9.8510    1.1890 O.2   154  ALA154     -0.2867
     48  CB        24.0730   11.3610   -1.6160 C.3   154  ALA154      0.0290
     49  N         18.5080   27.1330   -1.8690 N.3   278  TRP278     -0.1241
     50  CA        19.6700   26.3000   -1.5930 C.3   278  TRP278      0.1605
     51  C         20.1780   26.5490   -0.2000 C.2   278  TRP278      0.2264
     52  O         20.6700   25.6280    0.4270 O.2   278  TRP278     -0.2867
     53  CB        20.7900   26.5270   -2.6010 C.3   278  TRP278      0.0550
     54  CG        20.4950   25.9880   -3.9820 C.ar  278  TRP278      0.0003
     55  CD1       20.5540   26.6840   -5.1590 C.ar  278  TRP278      0.0946
     56  CD2       20.0830   24.6560   -4.3280 C.ar  278  TRP278      0.0152
     57  NE1       20.2100   25.8700   -6.2090 N.ar  278  TRP278     -0.2442
     58  CE2       19.9260   24.6190   -5.7310 C.ar  278  TRP278      0.0810
     59  CE3       19.8450   23.4920   -3.5920 C.ar  278  TRP278      0.0012
     60  CZ2       19.5350   23.4540   -6.4140 C.ar  278  TRP278      0.0191
     61  CZ3       19.4580   22.3390   -4.2660 C.ar  278  TRP278      0.0001
     62  CH2       19.3020   22.3310   -5.6600 C.ar  278  TRP278      0.0015
     63  N         18.1010   24.2460    1.9030 N.3   281  GLU281     -0.1231
     64  CA        18.4390   22.8620    1.5770 C.3   281  GLU281      0.1699
     65  C         19.8290   22.4580    2.0890 C.2   281  GLU281      0.2592
     66  O         20.0130   21.3240    2.5620 O.2   281  GLU281     -0.2718
     67  CB        18.3270   22.6360    0.0670 C.3   281  GLU281      0.0402
     68  CG        18.1800   21.1750   -0.3600 C.3   281  GLU281      0.1161
     69  CD        19.4980   20.5620   -0.7610 C.2   281  GLU281      0.3649
     70  OE1       20.5400   21.2430   -0.6190 O.co2 281  GLU281     -0.2457
     71  OE2       19.4890   19.3940   -1.2230 O.co2 281  GLU281     -0.2457
     72  N         20.7950   23.3710    2.0260 N.am  282  GLU282     -0.1979
     73  CA        22.1620   23.0910    2.5260 C.3   282  GLU282      0.1602
     74  C         22.3000   23.1430    4.0560 C.2   282  GLU282      0.2287
     75  O         23.3280   22.7230    4.5890 O.2   282  GLU282     -0.2864
     76  CB        23.1750   24.0730    1.9300 C.3   282  GLU282      0.0415
     77  CG        23.6070   23.7810    0.5070 C.3   282  GLU282      0.1163
     78  CD        24.4840   22.5300    0.3710 C.2   282  GLU282      0.3649
     79  OE1       25.2610   22.1730    1.3010 O.co2 282  GLU282     -0.2457
     80  OE2       24.3960   21.9070   -0.7050 O.co2 282  GLU282     -0.2457
     81  N         20.5810   21.3600    6.0010 N.3   284  GLY284     -0.1210
     82  CA        20.2830   20.0210    6.4890 C.3   284  GLY284      0.1956
     83  C         21.5010   19.3540    7.1120 C.2   284  GLY284      0.2612
     84  O         21.3850   18.5940    8.0920 O.2   284  GLY284     -0.2717
     85  N         22.6810   19.6500    6.5640 N.am  285  SER285     -0.1952
     86  CA        23.8990   19.0060    7.0220 C.3   285  SER285      0.1924
     87  C         24.5500   19.8330    8.1160 C.2   285  SER285      0.2314
     88  O         25.6760   19.5450    8.5660 O.2   285  SER285     -0.2863
     89  CB        24.8640   18.8010    5.8610 C.3   285  SER285      0.2116
     90  OG        25.2980   20.0560    5.3310 O.3   285  SER285     -0.2180
     91  N         21.4090   12.1930    7.7030 N.3   307  GLN307     -0.1245
     92  CA        21.8790   12.7980    6.4640 C.3   307  GLN307      0.1566
     93  C         21.5090   11.9410    5.2430 C.2   307  GLN307      0.2260
     94  O         21.6740   12.4060    4.1110 O.2   307  GLN307     -0.2867
     95  CB        23.3910   13.0310    6.5230 C.3   307  GLN307      0.0367
     96  CG        23.7620   14.0380    7.6050 C.3   307  GLN307      0.0905
     97  CD        23.0040   15.3480    7.4370 C.2   307  GLN307      0.2608
     98  OE1       23.0350   15.9640    6.3580 O.2   307  GLN307     -0.2717
     99  NE2       22.2980   15.7670    8.4880 N.am  307  GLN307     -0.0878
    100  N         17.7790   13.1330    2.9720 N.3   310  ASN310     -0.1226
    101  CA        17.8070   14.0270    1.8320 C.3   310  ASN310      0.1770
    102  C         17.9120   13.2260    0.5140 C.2   310  ASN310      0.2439
    103  O         17.0250   13.3220   -0.3290 O.2   310  ASN310     -0.2733
    104  CB        18.9600   15.0540    2.0020 C.3   310  ASN310      0.1168
    105  CG        19.1090   15.9910    0.8210 C.2   310  ASN310      0.2627
    106  OD1       19.4250   15.5680   -0.3020 O.2   310  ASN310     -0.2716
    107  ND2       18.9020   17.2850    1.0780 N.am  310  ASN310     -0.0877
    108  N         18.9810   12.4200    0.3360 N.am  311  PRO311     -0.2729
    109  CA        19.0050   11.6980   -0.9470 C.3   311  PRO311      0.1401
    110  C         17.9660   10.5880   -1.0610 C.2   311  PRO311      0.2269
    111  O         17.5800   10.2540   -2.1890 O.2   311  PRO311     -0.2865
    112  CB        20.4200   11.1050   -0.9990 C.3   311  PRO311      0.0296
    113  CG        20.8390   11.0100    0.4310 C.3   311  PRO311      0.0237
    114  CD        20.2470   12.2510    1.0780 C.3   311  PRO311      0.0939
    115  N         15.0080   12.3360   -2.5370 N.3   314  ILE314     -0.1245
    116  CA        15.2610   12.6800   -3.9320 C.3   314  ILE314      0.1561
    117  C         14.9840   11.4580   -4.7770 C.2   314  ILE314      0.2260
    118  O         14.2430   11.5290   -5.7660 O.2   314  ILE314     -0.2867
    119  CB        16.6990   13.1820   -4.1940 C.3   314  ILE314      0.0252
    120  CG1       16.9420   14.5060   -3.4650 C.3   314  ILE314      0.0019
    121  CG2       16.9230   13.3600   -5.6980 C.3   314  ILE314      0.0019
    122  CD1       18.3930   15.0130   -3.5000 C.3   314  ILE314      0.0001
    123  N         12.6640   17.1040    5.9190 N.3   375  TRP375     -0.1241
    124  CA        13.3450   16.7150    4.6860 C.3   375  TRP375      0.1605
    125  C         12.3470   16.3430    3.5780 C.2   375  TRP375      0.2264
    126  O         12.5850   16.6340    2.3920 O.2   375  TRP375     -0.2867
    127  CB        14.3440   15.5560    4.9360 C.3   375  TRP375      0.0550
    128  CG        15.7480   16.0840    5.2200 C.ar  375  TRP375      0.0003
    129  CD1       16.5460   16.8240    4.3690 C.ar  375  TRP375      0.0946
    130  CD2       16.5040   15.9310    6.4360 C.ar  375  TRP375      0.0152
    131  NE1       17.7470   17.1370    4.9840 N.ar  375  TRP375     -0.2442
    132  CE2       17.7500   16.5990    6.2480 C.ar  375  TRP375      0.0810
    133  CE3       16.2550   15.2970    7.6590 C.ar  375  TRP375      0.0012
    134  CZ2       18.7390   16.6380    7.2440 C.ar  375  TRP375      0.0191
    135  CZ3       17.2360   15.3440    8.6550 C.ar  375  TRP375      0.0001
    136  CH2       18.4670   16.0130    8.4360 C.ar  375  TRP375      0.0015
    137  N         12.5930   20.7940   -3.8490 N.3   382  GLU382     -0.1245
    138  CA        13.7240   20.6190   -4.7450 C.3   382  GLU382      0.1567
    139  C         13.2900   20.0810   -6.1030 C.2   382  GLU382      0.2260
    140  O         13.7790   20.5250   -7.1410 O.2   382  GLU382     -0.2867
    141  CB        14.7810   19.7000   -4.1430 C.3   382  GLU382      0.0388
    142  CG        16.0470   19.7360   -4.9660 C.3   382  GLU382      0.1160
    143  CD        17.2350   19.1600   -4.2540 C.2   382  GLU382      0.3649
    144  OE1       17.2970   19.2440   -3.0140 O.co2 382  GLU382     -0.2457
    145  OE2       18.1220   18.6290   -4.9390 O.co2 382  GLU382     -0.2457
    146  N         14.8860   22.5230   -8.9770 N.3   386  SER386     -0.1217
    147  CA        16.1020   21.9430   -9.5300 C.3   386  SER386      0.1889
    148  C         16.0270   21.5180  -11.0170 C.2   386  SER386      0.2288
    149  O         16.9310   21.8480  -11.7910 O.2   386  SER386     -0.2866
    150  CB        16.5290   20.7620   -8.6600 C.3   386  SER386      0.2089
    151  OG        17.8260   20.3180   -8.9920 O.3   386  SER386     -0.2183
    152  N         23.8600   27.9480   -5.6910 N.3   408  SER408     -0.1217
    153  CA        24.0170   27.0890   -4.5240 C.3   408  SER408      0.1889
    154  C         25.2810   27.4640   -3.7150 C.2   408  SER408      0.2288
    155  O         25.2970   27.3470   -2.4900 O.2   408  SER408     -0.2866
    156  CB        24.0300   25.6140   -4.9460 C.3   408  SER408      0.2089
    157  OG        25.1750   25.3080   -5.7020 O.3   408  SER408     -0.2183
@<TRIPOS>BOND
     1   149   148    2
     2   148   147    1
     3   147   146    1
     4   147   150    1
     5   151   150    1
     6    27    26    2
     7   140   139    2
     8    43    41   am
     9    60    58   ar
    10    60    62   ar
    11    26    25    1
    12    36    37    1
    13    57    58   ar
    14    57    55   ar
    15    41    42    2
    16    41    40    1
    17   139   138    1
    18   118   117    2
    19    58    56   ar
    20   157   156    1
    21   121   119    1
    22   152   153    1
    23    62    61   ar
    24    40    37    1
    25    25    28    1
    26    25    24    1
    27    55    54   ar
    28    37    38    1
    29   142   143    1
    30   142   141    1
    31   156   153    1
    32   145   143   ar
    33    28    29    1
    34    30    29   ar
    35    30    32   ar
    36   117   116    1
    37   138   141    1
    38   138   137    1
    39   153   154    1
    40    56    54   ar
    41    56    59   ar
    42    61    59   ar
    43   143   144   ar
    44    38    39    2
    45    29    31   ar
    46    32    34   ar
    47   119   116    1
    48   119   120    1
    49    54    53    1
    50   116   115    1
    51   154   155    2
    52   122   120    1
    53    34    35    1
    54    34    33   ar
    55    31    33   ar
    56    53    50    1
    57   111   110    2
    58    44    45    1
    59    12    11    1
    60    49    50    1
    61    10    11   ar
    62    10     8   ar
    63    48    45    1
    64    50    51    1
    65    11     9   ar
    66    71    69   ar
    67    45    46    1
    68   110   109    1
    69     8     6   ar
    70   112   109    1
    71   112   113    1
    72   109   108    1
    73    69    70   ar
    74    69    68    1
    75    80    78   ar
    76    68    67    1
    77   103   102    2
    78   106   105    2
    79    51    52    2
    80    46    47    2
    81    67    64    1
    82     9     7   ar
    83   108   102   am
    84   108   114    1
    85     6     7   ar
    86     6     5    1
    87    78    77    1
    88    78    79   ar
    89   113   114    1
    90    77    76    1
    91   102   101    1
    92   105   107   am
    93   105   104    1
    94     1     2    1
    95     5     2    1
    96    64    63    1
    97    64    65    1
    98   101   104    1
    99   101   100    1
   100     2     3    1
   101    76    73    1
   102    72    65   am
   103    72    73    1
   104    65    66    2
   105   126   125    2
   106    73    74    1
   107     3     4    2
   108    18    19    1
   109    18    17    1
   110    19    20    1
   111   125   124    1
   112    20    21    2
   113    74    75    2
   114    94    93    2
   115    21    22    1
   116    21    23    1
   117    17    14    1
   118   129   131   ar
   119   129   128   ar
   120   124   127    1
   121   124   123    1
   122   127   128    1
   123   131   132   ar
   124    13    14    1
   125   128   130   ar
   126    93    92    1
   127    90    89    1
   128    14    15    1
   129    89    86    1
   130    81    82    1
   131   132   130   ar
   132   132   134   ar
   133    98    97    2
   134   130   133   ar
   135    92    95    1
   136    92    91    1
   137    82    83    1
   138    95    96    1
   139    85    86    1
   140    85    83   am
   141    15    16    2
   142    86    87    1
   143    83    84    2
   144   134   136   ar
   145    97    96    1
   146    97    99   am
   147   133   135   ar
   148    87    88    2
   149   136   135   ar
