@<TRIPOS>MOLECULE
tmp/5oxqA14.pdb
 83 77 0 0 0
SMALL
GASTEIGER

@<TRIPOS>ATOM
      1  N          6.6540   28.2020   -5.7840 N.3   341  VAL341     -0.1245
      2  CA         6.1610   27.0950   -4.9900 C.3   341  VAL341      0.1561
      3  C          7.3060   26.2900   -4.3530 C.2   341  VAL341      0.2260
      4  O          7.2120   25.9070   -3.1920 O.2   341  VAL341     -0.2867
      5  CB         5.2820   26.1840   -5.8280 C.3   341  VAL341      0.0252
      6  CG1        4.7140   25.0870   -4.9660 C.3   341  VAL341      0.0019
      7  CG2        4.1560   26.9950   -6.4450 C.3   341  VAL341      0.0019
      8  N          8.3470   28.0060   -1.3690 N.3   344  MET344     -0.1230
      9  CA         7.3440   27.9170   -0.3240 C.3   344  MET344      0.1702
     10  C          7.4760   26.6000    0.4460 C.2   344  MET344      0.2592
     11  O          7.3450   26.5720    1.6750 O.2   344  MET344     -0.2718
     12  CB         5.9410   28.0500   -0.9080 C.3   344  MET344      0.0401
     13  CG         5.7220   29.3210   -1.7090 C.3   344  MET344      0.0596
     14  SD         3.9980   29.5050   -2.2300 S.3   344  MET344     -0.1393
     15  CE         3.2690   30.0990   -0.7050 C.3   344  MET344      0.0692
     16  N          7.7460   25.5110   -0.2720 N.am  345  PHE345     -0.1976
     17  CA         7.9820   24.2360    0.3900 C.3   345  PHE345      0.1639
     18  C          9.2320   24.2780    1.2610 C.2   345  PHE345      0.2290
     19  O          9.2380   23.6950    2.3480 O.2   345  PHE345     -0.2864
     20  CB         8.0840   23.1030   -0.6270 C.3   345  PHE345      0.0560
     21  CG         6.7590   22.5770   -1.0460 C.ar  345  PHE345     -0.0200
     22  CD1        6.0220   21.7910   -0.1830 C.ar  345  PHE345     -0.0042
     23  CD2        6.2280   22.8870   -2.2870 C.ar  345  PHE345     -0.0042
     24  CE1        4.7830   21.3090   -0.5560 C.ar  345  PHE345     -0.0003
     25  CE2        4.9870   22.4130   -2.6630 C.ar  345  PHE345     -0.0003
     26  CZ         4.2640   21.6280   -1.8010 C.ar  345  PHE345     -0.0000
     27  N          8.1140   25.9410    4.2570 N.3   348  LEU348     -0.1245
     28  CA         7.2750   25.0650    5.0770 C.3   348  LEU348      0.1561
     29  C          8.1470   24.0650    5.8340 C.2   348  LEU348      0.2260
     30  O          7.8150   23.6530    6.9450 O.2   348  LEU348     -0.2867
     31  CB         6.2410   24.3340    4.2170 C.3   348  LEU348      0.0270
     32  CG         5.0880   25.1980    3.6540 C.3   348  LEU348      0.0019
     33  CD1        4.1860   24.3290    2.7970 C.3   348  LEU348      0.0001
     34  CD2        4.2780   25.8910    4.7720 C.3   348  LEU348      0.0001
     35  N          9.2190   26.0600    8.8990 N.3   351  LEU351     -0.1245
     36  CA         8.0530   26.3290    9.7150 C.3   351  LEU351      0.1561
     37  C          7.6640   25.0820   10.5030 C.2   351  LEU351      0.2260
     38  O          7.3590   25.1620   11.6930 O.2   351  LEU351     -0.2867
     39  CB         6.8800   26.8140    8.8470 C.3   351  LEU351      0.0270
     40  CG         7.0150   28.2580    8.3550 C.3   351  LEU351      0.0019
     41  CD1        5.8670   28.6810    7.4230 C.3   351  LEU351      0.0001
     42  CD2        7.1170   29.2270    9.5440 C.3   351  LEU351      0.0001
     43  N         11.0760   29.7840   12.6490 N.3   432  SER432     -0.1202
     44  CA         9.9080   30.6020   12.3110 C.3   432  SER432      0.2020
     45  C         10.2070   31.6890   11.2800 C.2   432  SER432      0.2618
     46  O          9.5190   31.8100   10.2600 O.2   432  SER432     -0.2717
     47  CB         9.3380   31.2710   13.5580 C.3   432  SER432      0.2103
     48  OG         8.7800   30.3060   14.4180 O.3   432  SER432     -0.2182
     49  N         11.2230   32.4930   11.5540 N.am  433  TYR433     -0.1975
     50  CA        11.4730   33.6580   10.7270 C.3   433  TYR433      0.1639
     51  C         11.9580   33.2940    9.3400 C.2   433  TYR433      0.2290
     52  O         11.4110   33.7750    8.3440 O.2   433  TYR433     -0.2864
     53  CB        12.4590   34.5830   11.4270 C.3   433  TYR433      0.0560
     54  CG        11.8490   35.1590   12.6800 C.ar  433  TYR433     -0.0198
     55  CD1       10.4830   35.4070   12.7500 C.ar  433  TYR433     -0.0009
     56  CD2       12.6210   35.4260   13.7980 C.ar  433  TYR433     -0.0009
     57  CE1        9.9110   35.9120   13.8880 C.ar  433  TYR433      0.0417
     58  CE2       12.0570   35.9360   14.9460 C.ar  433  TYR433      0.0417
     59  CZ        10.7040   36.1790   14.9860 C.ar  433  TYR433      0.1957
     60  OH        10.1450   36.6980   16.1370 O.3   433  TYR433     -0.2866
     61  N          9.1260   31.6040    7.5900 N.3   436  LEU436     -0.1245
     62  CA         8.1080   32.5600    7.1800 C.3   436  LEU436      0.1561
     63  C          8.6130   33.4640    6.0660 C.2   436  LEU436      0.2260
     64  O          7.8490   33.8490    5.1660 O.2   436  LEU436     -0.2867
     65  CB         7.6500   33.4010    8.3750 C.3   436  LEU436      0.0270
     66  CG         6.6410   34.4930    8.0290 C.3   436  LEU436      0.0019
     67  CD1        5.3900   33.8500    7.4660 C.3   436  LEU436      0.0001
     68  CD2        6.3110   35.3530    9.2420 C.3   436  LEU436      0.0001
     69  N          8.4590   31.6680    2.7170 N.3   439  VAL439     -0.1245
     70  CA         7.0930   31.5130    2.2250 C.3   439  VAL439      0.1561
     71  C          6.6300   32.8100    1.5900 C.2   439  VAL439      0.2260
     72  O          6.0820   32.8100    0.4870 O.2   439  VAL439     -0.2867
     73  CB         6.1340   31.1030    3.3410 C.3   439  VAL439      0.0252
     74  CG1        4.6750   31.2410    2.8720 C.3   439  VAL439      0.0019
     75  CG2        6.4140   29.6820    3.7680 C.3   439  VAL439      0.0019
     76  N          5.5180   33.8870   -2.1260 N.3   443  ILE443     -0.1245
     77  CA         4.2630   34.5360   -2.4950 C.3   443  ILE443      0.1561
     78  C          4.5450   35.7840   -3.3360 C.2   443  ILE443      0.2260
     79  O          3.7470   36.1430   -4.2190 O.2   443  ILE443     -0.2867
     80  CB         3.4200   34.9000   -1.2430 C.3   443  ILE443      0.0252
     81  CG1        2.9590   33.6220   -0.5320 C.3   443  ILE443      0.0019
     82  CG2        2.2210   35.7810   -1.6100 C.3   443  ILE443      0.0019
     83  CD1        2.1490   33.8760    0.7300 C.3   443  ILE443      0.0001
@<TRIPOS>BOND
     1     7     5    1
     2     5     2    1
     3     5     6    1
     4     1     2    1
     5     2     3    1
     6     3     4    2
     7    79    78    2
     8    78    77    1
     9    25    23   ar
    10    25    26   ar
    11    77    76    1
    12    77    80    1
    13    23    21   ar
    14    14    13    1
    15    14    15    1
    16    26    24   ar
    17    13    12    1
    18    82    80    1
    19     8     9    1
    20    80    81    1
    21    21    20    1
    22    21    22   ar
    23    12     9    1
    24    20    17    1
    25    24    22   ar
    26    81    83    1
    27     9    10    1
    28    16    17    1
    29    16    10   am
    30    17    18    1
    31    10    11    2
    32    72    71    2
    33    18    19    2
    34    71    70    1
    35    70    69    1
    36    70    73    1
    37    33    32    1
    38    74    73    1
    39    73    75    1
    40    32    31    1
    41    32    34    1
    42    31    28    1
    43    27    28    1
    44    28    29    1
    45    64    63    2
    46    29    30    2
    47    63    62    1
    48    62    61    1
    49    62    65    1
    50    41    40    1
    51    67    66    1
    52    66    65    1
    53    66    68    1
    54    52    51    2
    55    40    39    1
    56    40    42    1
    57    39    36    1
    58    35    36    1
    59    51    50    1
    60    36    37    1
    61    46    45    2
    62    37    38    2
    63    50    53    1
    64    50    49    1
    65    45    49   am
    66    45    44    1
    67    53    54    1
    68    44    43    1
    69    44    47    1
    70    54    55   ar
    71    54    56   ar
    72    55    57   ar
    73    47    48    1
    74    56    58   ar
    75    57    59   ar
    76    58    59   ar
    77    59    60    1
