@<TRIPOS>MOLECULE
tmp/5oy0M58.pdb
 75 75 0 0 0
SMALL
GASTEIGER

@<TRIPOS>ATOM
      1  N         87.6640  -79.9690    9.5730 N.3   210  PHE210     -0.1227
      2  CA        86.6340  -79.2630   10.3320 C.3   210  PHE210      0.1736
      3  C         85.7920  -78.3340    9.4690 C.2   210  PHE210      0.2595
      4  O         84.6800  -77.9750    9.8720 O.2   210  PHE210     -0.2718
      5  CB        87.2640  -78.4800   11.4910 C.3   210  PHE210      0.0547
      6  CG        87.8150  -77.1280   11.1060 C.ar  210  PHE210     -0.0202
      7  CD1       87.1290  -75.9660   11.4330 C.ar  210  PHE210     -0.0042
      8  CD2       89.0300  -77.0180   10.4490 C.ar  210  PHE210     -0.0042
      9  CE1       87.6390  -74.7230   11.0980 C.ar  210  PHE210     -0.0003
     10  CE2       89.5420  -75.7760   10.1080 C.ar  210  PHE210     -0.0003
     11  CZ        88.8480  -74.6300   10.4350 C.ar  210  PHE210     -0.0000
     12  N         86.2790  -77.9470    8.2910 N.am  211  LEU211     -0.1966
     13  CA        85.4510  -77.1430    7.4000 C.3   211  LEU211      0.1728
     14  C         84.2770  -77.9500    6.8530 C.2   211  LEU211      0.2616
     15  O         83.1570  -77.4360    6.7610 O.2   211  LEU211     -0.2715
     16  CB        86.2930  -76.5770    6.2570 C.3   211  LEU211      0.0311
     17  CG        87.4330  -75.6200    6.6230 C.3   211  LEU211      0.0022
     18  CD1       88.1360  -75.1170    5.3690 C.3   211  LEU211      0.0001
     19  CD2       86.9350  -74.4490    7.4590 C.3   211  LEU211      0.0001
     20  N         84.4970  -79.2180    6.5090 N.am  212  SER212     -0.1950
     21  CA        83.5070  -79.9870    5.7650 C.3   212  SER212      0.1924
     22  C         82.7080  -80.9600    6.6270 C.2   212  SER212      0.2314
     23  O         81.9650  -81.7800    6.0780 O.2   212  SER212     -0.2863
     24  CB        84.1800  -80.7510    4.6230 C.3   212  SER212      0.2116
     25  OG        84.8290  -81.9160    5.0990 O.3   212  SER212     -0.2180
     26  N         80.0660  -80.6180    9.7150 N.3   214  PRO214     -0.2116
     27  CA        79.3380  -79.7680   10.6640 C.3   214  PRO214      0.1372
     28  C         79.2700  -80.3930   12.0440 C.2   214  PRO214      0.2244
     29  O         79.4070  -81.6170   12.1920 O.2   214  PRO214     -0.2868
     30  CB        77.9390  -79.6680   10.0380 C.3   214  PRO214      0.0268
     31  CG        78.1520  -79.9420    8.5910 C.3   214  PRO214      0.0207
     32  CD        79.2470  -80.9620    8.5430 C.3   214  PRO214      0.0892
     33  N         73.9730  -82.4770   12.2310 N.3   217  PRO217     -0.2102
     34  CA        73.4710  -82.8080   10.8860 C.3   217  PRO217      0.1504
     35  C         72.5850  -81.7330   10.2780 C.2   217  PRO217      0.2576
     36  O         72.5240  -81.6220    9.0470 O.2   217  PRO217     -0.2718
     37  CB        72.6930  -84.1110   11.1170 C.3   217  PRO217      0.0282
     38  CG        73.3280  -84.7200   12.3120 C.3   217  PRO217      0.0208
     39  CD        73.7580  -83.5740   13.1900 C.3   217  PRO217      0.0893
     40  N         71.8910  -80.9390   11.0970 N.am  218  ALA218     -0.1966
     41  CA        71.0230  -79.8920   10.5670 C.3   218  ALA218      0.1728
     42  C         71.8280  -78.6820   10.1070 C.2   218  ALA218      0.2617
     43  O         71.6030  -78.1590    9.0100 O.2   218  ALA218     -0.2715
     44  CB        69.9880  -79.4840   11.6150 C.3   218  ALA218      0.0334
     45  N         72.7500  -78.2120   10.9460 N.am  219  GLY219     -0.1940
     46  CA        73.6980  -77.1750   10.5780 C.3   219  GLY219      0.2014
     47  C         73.1340  -75.8030   10.2580 C.2   219  GLY219      0.2639
     48  O         72.7530  -75.5340    9.1150 O.2   219  GLY219     -0.2714
     49  N         73.0640  -74.9360   11.2690 N.am  220  LEU220     -0.1963
     50  CA        72.8250  -73.5020   11.1020 C.3   220  LEU220      0.1728
     51  C         71.4150  -73.1510   10.6340 C.2   220  LEU220      0.2616
     52  O         70.9210  -72.0620   10.9420 O.2   220  LEU220     -0.2715
     53  CB        73.8570  -72.8960   10.1460 C.3   220  LEU220      0.0311
     54  CG        75.2900  -72.8910   10.6900 C.3   220  LEU220      0.0022
     55  CD1       76.1780  -71.9710    9.8720 C.3   220  LEU220      0.0001
     56  CD2       75.3300  -72.5130   12.1720 C.3   220  LEU220      0.0001
     57  N         70.7630  -74.0400    9.8880 N.am  221  MET221     -0.1977
     58  CA        69.3630  -73.8210    9.5310 C.3   221  MET221      0.1605
     59  C         68.4810  -73.5620   10.7460 C.2   221  MET221      0.2287
     60  O         67.7950  -72.5270   10.7700 O.2   221  MET221     -0.2864
     61  CB        68.8570  -75.0140    8.7050 C.3   221  MET221      0.0413
     62  CG        67.3490  -75.2250    8.7400 C.3   221  MET221      0.0598
     63  SD        66.4100  -73.9930    7.8160 S.3   221  MET221     -0.1393
     64  CE        66.0020  -74.9040    6.3280 C.3   221  MET221      0.0692
     65  N         69.3910  -69.7580   12.5360 N.3   224  PHE224     -0.1241
     66  CA        68.9100  -68.5070   11.9650 C.3   224  PHE224      0.1605
     67  C         67.3930  -68.4560   11.8250 C.2   224  PHE224      0.2264
     68  O         66.8550  -67.3780   11.5550 O.2   224  PHE224     -0.2867
     69  CB        69.5760  -68.2680   10.6100 C.3   224  PHE224      0.0534
     70  CG        71.0490  -67.9910   10.7060 C.ar  224  PHE224     -0.0203
     71  CD1       71.5090  -66.7090   10.9520 C.ar  224  PHE224     -0.0042
     72  CD2       71.9710  -69.0100   10.5550 C.ar  224  PHE224     -0.0042
     73  CE1       72.8600  -66.4470   11.0440 C.ar  224  PHE224     -0.0003
     74  CE2       73.3260  -68.7550   10.6450 C.ar  224  PHE224     -0.0003
     75  CZ        73.7710  -67.4700   10.8910 C.ar  224  PHE224     -0.0000
@<TRIPOS>BOND
     1    24    25    1
     2    24    21    1
     3    18    17    1
     4    21    20    1
     5    21    22    1
     6    23    22    2
     7    16    17    1
     8    16    13    1
     9    64    63    1
    10    20    14   am
    11    17    19    1
    12    15    14    2
    13    14    13    1
    14    13    12    1
    15    63    62    1
    16    12     3   am
    17    32    31    1
    18    32    26    1
    19    31    30    1
    20    61    62    1
    21    61    58    1
    22    43    42    2
    23    36    35    2
    24    48    47    2
    25     3     4    2
    26     3     2    1
    27    58    57    1
    28    58    59    1
    29     1     2    1
    30    26    27    1
    31    55    54    1
    32    57    51   am
    33    30    27    1
    34    42    41    1
    35    42    45   am
    36    10    11   ar
    37    10     8   ar
    38    53    54    1
    39    53    50    1
    40    47    46    1
    41    47    49   am
    42    35    34    1
    43    35    40   am
    44     2     5    1
    45    11     9   ar
    46     8     6   ar
    47    72    74   ar
    48    72    70   ar
    49    41    40    1
    50    41    44    1
    51    46    45    1
    52    69    70    1
    53    69    66    1
    54    51    52    2
    55    51    50    1
    56    74    75   ar
    57    27    28    1
    58    54    56    1
    59    70    71   ar
    60    59    60    2
    61    34    37    1
    62    34    33    1
    63    75    73   ar
    64    71    73   ar
    65     9     7   ar
    66    50    49    1
    67     6     7   ar
    68     6     5    1
    69    37    38    1
    70    68    67    2
    71    67    66    1
    72    66    65    1
    73    28    29    2
    74    33    39    1
    75    38    39    1
