@<TRIPOS>MOLECULE
tmp/5oy0X31.pdb
 208 203 0 0 0
SMALL
GASTEIGER

@<TRIPOS>ATOM
      1  N        193.6540  -90.8370   76.0220 N.3   344  SER344     -0.1217
      2  CA       194.6500  -91.8640   75.7420 C.3   344  SER344      0.1889
      3  C        194.7160  -92.8910   76.8670 C.2   344  SER344      0.2288
      4  O        194.9220  -94.0820   76.6080 O.2   344  SER344     -0.2866
      5  CB       196.0170  -91.2170   75.5140 C.3   344  SER344      0.2089
      6  OG       196.2420  -90.1670   76.4390 O.3   344  SER344     -0.2183
      7  N        194.1640  -96.8930   76.5950 N.3   348  GLN348     -0.1245
      8  CA       195.1330  -97.8900   77.0390 C.3   348  GLN348      0.1566
      9  C        194.5360  -98.8550   78.0570 C.2   348  GLN348      0.2260
     10  O        194.9770 -100.0050   78.1480 O.2   348  GLN348     -0.2867
     11  CB       196.3690  -97.2080   77.6250 C.3   348  GLN348      0.0367
     12  CG       197.1520  -96.3490   76.6430 C.3   348  GLN348      0.0905
     13  CD       197.9860  -97.1530   75.6620 C.2   348  GLN348      0.2608
     14  OE1      197.6320  -98.2690   75.2880 O.2   348  GLN348     -0.2717
     15  NE2      199.1070  -96.5810   75.2400 N.am  348  GLN348     -0.0878
     16  N        191.4740 -101.7470   76.3580 N.3   351  TYR351     -0.1241
     17  CA       191.8660 -102.9570   75.6460 C.3   351  TYR351      0.1605
     18  C        192.5220 -103.9640   76.5780 C.2   351  TYR351      0.2264
     19  O        192.3680 -105.1740   76.3820 O.2   351  TYR351     -0.2867
     20  CB       192.8010 -102.6200   74.4790 C.3   351  TYR351      0.0534
     21  CG       194.2710 -102.4670   74.8300 C.ar  351  TYR351     -0.0201
     22  CD1      195.1490 -103.5410   74.7240 C.ar  351  TYR351     -0.0009
     23  CD2      194.7850 -101.2440   75.2390 C.ar  351  TYR351     -0.0009
     24  CE1      196.4920 -103.4050   75.0300 C.ar  351  TYR351      0.0417
     25  CE2      196.1270 -101.0990   75.5460 C.ar  351  TYR351      0.0417
     26  CZ       196.9740 -102.1810   75.4420 C.ar  351  TYR351      0.1957
     27  OH       198.3060 -102.0270   75.7490 O.3   351  TYR351     -0.2866
     28  N        190.0010  -98.5220   70.4820 N.3   370  TYR370     -0.1241
     29  CA       191.3410  -98.0340   70.7900 C.3   370  TYR370      0.1605
     30  C        191.7720  -96.9720   69.7880 C.2   370  TYR370      0.2264
     31  O        192.2520  -95.8960   70.1710 O.2   370  TYR370     -0.2867
     32  CB       192.3380  -99.1970   70.8180 C.3   370  TYR370      0.0534
     33  CG       193.7140  -98.7990   71.3080 C.ar  370  TYR370     -0.0201
     34  CD1      194.0350  -98.8610   72.6560 C.ar  370  TYR370     -0.0009
     35  CD2      194.6880  -98.3520   70.4240 C.ar  370  TYR370     -0.0009
     36  CE1      195.2850  -98.4920   73.1110 C.ar  370  TYR370      0.0417
     37  CE2      195.9400  -97.9790   70.8680 C.ar  370  TYR370      0.0417
     38  CZ       196.2350  -98.0530   72.2120 C.ar  370  TYR370      0.1957
     39  OH       197.4850  -97.6850   72.6560 O.3   370  TYR370     -0.2866
     40  N        192.3920  -92.9980   70.7680 N.3   374  GLN374     -0.1245
     41  CA       193.7330  -92.4480   70.5910 C.3   374  GLN374      0.1566
     42  C        193.7240  -91.2860   69.6010 C.2   374  GLN374      0.2260
     43  O        194.4540  -90.3020   69.7840 O.2   374  GLN374     -0.2867
     44  CB       194.7050  -93.5450   70.1490 C.3   374  GLN374      0.0367
     45  CG       195.1130  -94.5210   71.2620 C.3   374  GLN374      0.0905
     46  CD       196.1140  -93.9300   72.2520 C.2   374  GLN374      0.2608
     47  OE1      196.4540  -92.7500   72.1850 O.2   374  GLN374     -0.2717
     48  NE2      196.5940  -94.7600   73.1750 N.am  374  GLN374     -0.0878
     49  N        213.5100 -102.8070   80.5340 N.3   457  PHE457     -0.1227
     50  CA       212.8940 -101.9610   81.5530 C.3   457  PHE457      0.1736
     51  C        211.3920 -102.2080   81.6470 C.2   457  PHE457      0.2595
     52  O        210.8400 -102.3240   82.7490 O.2   457  PHE457     -0.2718
     53  CB       213.1730 -100.4840   81.2580 C.3   457  PHE457      0.0547
     54  CG       214.6370 -100.1440   81.1280 C.ar  457  PHE457     -0.0202
     55  CD1      215.6140 -100.9470   81.6970 C.ar  457  PHE457     -0.0042
     56  CD2      215.0330  -99.0080   80.4390 C.ar  457  PHE457     -0.0042
     57  CE1      216.9550 -100.6290   81.5710 C.ar  457  PHE457     -0.0003
     58  CE2      216.3710  -98.6830   80.3120 C.ar  457  PHE457     -0.0003
     59  CZ       217.3330  -99.4940   80.8800 C.ar  457  PHE457     -0.0000
     60  N        210.7130 -102.3080   80.5010 N.am  458  ALA458     -0.1980
     61  CA       209.2660 -102.5020   80.5170 C.3   458  ALA458      0.1597
     62  C        208.8850 -103.9120   80.9540 C.2   458  ALA458      0.2287
     63  O        207.8610 -104.0940   81.6220 O.2   458  ALA458     -0.2864
     64  CB       208.6770 -102.1930   79.1430 C.3   458  ALA458      0.0319
     65  N        210.6470 -105.5720   83.1340 N.3   460  TRP460     -0.1227
     66  CA       210.8420 -105.4700   84.5770 C.3   460  TRP460      0.1737
     67  C        209.6480 -104.7940   85.2390 C.2   460  TRP460      0.2595
     68  O        209.2160 -105.2000   86.3260 O.2   460  TRP460     -0.2718
     69  CB       212.1370 -104.7070   84.8650 C.3   460  TRP460      0.0564
     70  CG       212.5820 -104.7000   86.3000 C.ar  460  TRP460      0.0003
     71  CD1      213.3170 -105.6600   86.9360 C.ar  460  TRP460      0.0946
     72  CD2      212.3520 -103.6670   87.2670 C.ar  460  TRP460      0.0152
     73  NE1      213.5440 -105.2960   88.2400 N.ar  460  TRP460     -0.2442
     74  CE2      212.9620 -104.0770   88.4690 C.ar  460  TRP460      0.0810
     75  CE3      211.6820 -102.4410   87.2350 C.ar  460  TRP460      0.0012
     76  CZ2      212.9240 -103.3030   89.6270 C.ar  460  TRP460      0.0191
     77  CZ3      211.6440 -101.6750   88.3870 C.ar  460  TRP460      0.0001
     78  CH2      212.2610 -102.1090   89.5660 C.ar  460  TRP460      0.0015
     79  N        209.0960 -103.7650   84.5890 N.am  461  ILE461     -0.1966
     80  CA       207.9080 -103.0910   85.1130 C.3   461  ILE461      0.1727
     81  C        206.7230 -104.0480   85.1500 C.2   461  ILE461      0.2616
     82  O        205.9650 -104.0820   86.1280 O.2   461  ILE461     -0.2715
     83  CB       207.5950 -101.8320   84.2840 C.3   461  ILE461      0.0290
     84  CG1      208.5000 -100.6750   84.7090 C.3   461  ILE461      0.0022
     85  CG2      206.1270 -101.4420   84.4180 C.3   461  ILE461      0.0023
     86  CD1      207.9800  -99.3180   84.2960 C.3   461  ILE461      0.0001
     87  N        206.5370 -104.8290   84.0840 N.am  462  GLN462     -0.1977
     88  CA       205.5060 -105.8630   84.0920 C.3   462  GLN462      0.1601
     89  C        205.7000 -106.8200   85.2590 C.2   462  GLN462      0.2287
     90  O        204.7410 -107.1700   85.9550 O.2   462  GLN462     -0.2864
     91  CB       205.5180 -106.6370   82.7760 C.3   462  GLN462      0.0394
     92  CG       205.0690 -105.8530   81.5670 C.3   462  GLN462      0.0908
     93  CD       204.9050 -106.7340   80.3460 C.2   462  GLN462      0.2608
     94  OE1      205.3220 -107.8930   80.3470 O.2   462  GLN462     -0.2717
     95  NE2      204.2910 -106.1930   79.2980 N.am  462  GLN462     -0.0878
     96  N        198.8390 -106.7120   80.0880 N.3   506  PHE506     -0.1227
     97  CA       200.3000 -106.6880   80.0810 C.3   506  PHE506      0.1736
     98  C        200.8800 -107.6870   79.0870 C.2   506  PHE506      0.2595
     99  O        201.3990 -108.7380   79.4780 O.2   506  PHE506     -0.2718
    100  CB       200.8450 -106.9460   81.4880 C.3   506  PHE506      0.0547
    101  CG       200.7680 -105.7480   82.3920 C.ar  506  PHE506     -0.0202
    102  CD1      201.8270 -104.8610   82.4800 C.ar  506  PHE506     -0.0042
    103  CD2      199.6340 -105.5030   83.1450 C.ar  506  PHE506     -0.0042
    104  CE1      201.7590 -103.7550   83.3080 C.ar  506  PHE506     -0.0003
    105  CE2      199.5600 -104.3990   83.9740 C.ar  506  PHE506     -0.0003
    106  CZ       200.6230 -103.5240   84.0560 C.ar  506  PHE506     -0.0000
    107  N        200.8020 -107.3530   77.8020 N.am  507  LEU507     -0.1980
    108  CA       201.2050 -108.2740   76.7500 C.3   507  LEU507      0.1596
    109  C        202.7200 -108.4470   76.7200 C.2   507  LEU507      0.2287
    110  O        203.4770 -107.4930   76.9200 O.2   507  LEU507     -0.2864
    111  CB       200.7060 -107.7690   75.3960 C.3   507  LEU507      0.0297
    112  CG       199.1900 -107.6170   75.2530 C.3   507  LEU507      0.0022
    113  CD1      198.8640 -106.6270   74.1570 C.3   507  LEU507      0.0001
    114  CD2      198.5460 -108.9590   74.9580 C.3   507  LEU507      0.0001
    115  N        206.3400 -108.5960   75.4080 N.3   509  ILE509     -0.1245
    116  CA       206.9760 -107.7110   74.4420 C.3   509  ILE509      0.1561
    117  C        208.3200 -108.2960   74.0310 C.2   509  ILE509      0.2260
    118  O        209.0260 -108.8980   74.8480 O.2   509  ILE509     -0.2867
    119  CB       207.1510 -106.2910   75.0180 C.3   509  ILE509      0.0252
    120  CG1      207.7610 -106.3640   76.4190 C.3   509  ILE509      0.0019
    121  CG2      205.8170 -105.5490   75.0370 C.3   509  ILE509      0.0019
    122  CD1      207.8000 -105.0420   77.1390 C.3   509  ILE509      0.0001
    123  N        208.3100  -98.5200   70.3430 N.3   517  HIS517     -0.1241
    124  CA       208.1620  -97.5390   71.4120 C.3   517  HIS517      0.1621
    125  C        209.1490  -96.3960   71.2450 C.2   517  HIS517      0.2264
    126  O        208.8380  -95.2520   71.5900 O.2   517  HIS517     -0.2867
    127  CB       208.3300  -98.2020   72.7780 C.3   517  HIS517      0.0745
    128  CG       207.1150  -98.9490   73.2330 C.ar  517  HIS517      0.0817
    129  ND1      206.8090 -100.2140   72.7820 N.ar  517  HIS517     -0.2268
    130  CD2      206.1220  -98.6010   74.0850 C.ar  517  HIS517      0.1154
    131  CE1      205.6840 -100.6180   73.3440 C.ar  517  HIS517      0.1986
    132  NE2      205.2460  -99.6580   74.1370 N.ar  517  HIS517     -0.2212
    133  N        207.4860  -94.2550   68.6850 N.3   520  ILE520     -0.1245
    134  CA       206.4500  -93.4610   69.3420 C.3   520  ILE520      0.1561
    135  C        207.0740  -92.2950   70.0990 C.2   520  ILE520      0.2260
    136  O        206.5340  -91.1790   70.1130 O.2   520  ILE520     -0.2867
    137  CB       205.6100  -94.3570   70.2720 C.3   520  ILE520      0.0252
    138  CG1      204.8680  -95.4220   69.4630 C.3   520  ILE520      0.0019
    139  CG2      204.6410  -93.5250   71.0930 C.3   520  ILE520      0.0019
    140  CD1      204.1320  -96.4320   70.3100 C.3   520  ILE520      0.0001
    141  N        206.1730  -88.3440   69.4610 N.3   524  LEU524     -0.1245
    142  CA       205.7470  -87.4190   70.5070 C.3   524  LEU524      0.1561
    143  C        206.7230  -86.2580   70.6440 C.2   524  LEU524      0.2260
    144  O        206.3110  -85.0930   70.7080 O.2   524  LEU524     -0.2867
    145  CB       205.6010  -88.1570   71.8390 C.3   524  LEU524      0.0270
    146  CG       204.3810  -89.0630   72.0000 C.3   524  LEU524      0.0019
    147  CD1      204.2700  -89.5580   73.4330 C.3   524  LEU524      0.0001
    148  CD2      203.1210  -88.3270   71.5860 C.3   524  LEU524      0.0001
    149  N        202.1510  -90.0040   64.3060 N.3   583  THR583     -0.1218
    150  CA       202.3240  -90.6670   65.5920 C.3   583  THR583      0.1862
    151  C        201.1710  -91.6210   65.8700 C.2   583  THR583      0.2287
    152  O        201.3850  -92.7540   66.3190 O.2   583  THR583     -0.2866
    153  CB       202.4420  -89.6240   66.7030 C.3   583  THR583      0.1770
    154  OG1      203.4930  -88.7030   66.3820 O.3   583  THR583     -0.2211
    155  CG2      202.7410  -90.2950   68.0380 C.3   583  THR583      0.0375
    156  N        201.2530  -95.6700   66.4280 N.3   587  LEU587     -0.1245
    157  CA       200.4820  -96.2690   67.5150 C.3   587  LEU587      0.1561
    158  C        199.5630  -97.3730   67.0110 C.2   587  LEU587      0.2260
    159  O        199.6350  -98.5200   67.4660 O.2   587  LEU587     -0.2867
    160  CB       199.6500  -95.1920   68.2140 C.3   587  LEU587      0.0270
    161  CG       200.1870  -94.4800   69.4500 C.3   587  LEU587      0.0019
    162  CD1      201.5620  -93.9090   69.1850 C.3   587  LEU587      0.0001
    163  CD2      199.2190  -93.3850   69.8710 C.3   587  LEU587      0.0001
    164  N        201.2080 -100.4810   65.2970 N.3   590  TYR590     -0.1227
    165  CA       201.7540 -101.3590   66.3270 C.3   590  TYR590      0.1736
    166  C        200.6460 -102.1350   67.0290 C.2   590  TYR590      0.2595
    167  O        200.6830 -103.3730   67.1000 O.2   590  TYR590     -0.2718
    168  CB       202.5610 -100.5220   67.3240 C.3   590  TYR590      0.0548
    169  CG       203.0540 -101.2530   68.5520 C.ar  590  TYR590     -0.0200
    170  CD1      203.4180 -102.5920   68.5010 C.ar  590  TYR590     -0.0009
    171  CD2      203.1590 -100.5930   69.7670 C.ar  590  TYR590     -0.0009
    172  CE1      203.8660 -103.2500   69.6290 C.ar  590  TYR590      0.0417
    173  CE2      203.6110 -101.2400   70.8930 C.ar  590  TYR590      0.0417
    174  CZ       203.9600 -102.5690   70.8220 C.ar  590  TYR590      0.1957
    175  OH       204.4070 -103.2170   71.9490 O.3   590  TYR590     -0.2866
    176  N        199.6480 -101.4150   67.5480 N.am  591  TRP591     -0.1976
    177  CA       198.5650 -102.0470   68.2950 C.3   591  TRP591      0.1640
    178  C        197.8760 -103.1130   67.4580 C.2   591  TRP591      0.2290
    179  O        197.6770 -104.2430   67.9160 O.2   591  TRP591     -0.2864
    180  CB       197.5600 -100.9850   68.7470 C.3   591  TRP591      0.0576
    181  CG       196.5320 -101.4590   69.7430 C.ar  591  TRP591      0.0006
    182  CD1      196.5070 -101.1900   71.0800 C.ar  591  TRP591      0.0946
    183  CD2      195.3750 -102.2690   69.4790 C.ar  591  TRP591      0.0152
    184  NE1      195.4140 -101.7800   71.6650 N.ar  591  TRP591     -0.2442
    185  CE2      194.7030 -102.4490   70.7040 C.ar  591  TRP591      0.0810
    186  CE3      194.8440 -102.8590   68.3270 C.ar  591  TRP591      0.0012
    187  CZ2      193.5310 -103.1950   70.8100 C.ar  591  TRP591      0.0191
    188  CZ3      193.6840 -103.6010   68.4350 C.ar  591  TRP591      0.0001
    189  CH2      193.0390 -103.7610   69.6660 C.ar  591  TRP591      0.0015
    190  N        200.1930 -106.2450   66.4880 N.3   594  LYS594     -0.1231
    191  CA       200.4300 -107.0870   67.6550 C.3   594  LYS594      0.1693
    192  C        199.1500 -107.7820   68.1010 C.2   594  LYS594      0.2592
    193  O        199.1770 -108.9570   68.4840 O.2   594  LYS594     -0.2718
    194  CB       201.0280 -106.2590   68.7940 C.3   594  LYS594      0.0285
    195  CG       201.2430 -107.0480   70.0750 C.3   594  LYS594      0.0035
    196  CD       202.3720 -106.4710   70.9110 C.3   594  LYS594      0.0206
    197  CE       202.7010 -107.3840   72.0830 C.3   594  LYS594      0.1093
    198  NZ       203.9630 -106.9860   72.7570 N.3   594  LYS594     -0.1314
    199  N        198.0090 -107.0930   68.0230 N.am  595  HIS595     -0.1976
    200  CA       196.7630 -107.7020   68.4680 C.3   595  HIS595      0.1656
    201  C        196.2310 -108.7260   67.4780 C.2   595  HIS595      0.2291
    202  O        195.6230 -109.7110   67.8980 O.2   595  HIS595     -0.2864
    203  CB       195.7120 -106.6280   68.7350 C.3   595  HIS595      0.0771
    204  CG       195.6460 -106.2000   70.1660 C.ar  595  HIS595      0.0820
    205  ND1      196.5190 -105.2840   70.7100 N.ar  595  HIS595     -0.2267
    206  CD2      194.8170 -106.5730   71.1700 C.ar  595  HIS595      0.1154
    207  CE1      196.2290 -105.1070   71.9870 C.ar  595  HIS595      0.1986
    208  NE2      195.1990 -105.8770   72.2900 N.ar  595  HIS595     -0.2212
@<TRIPOS>BOND
     1   149   150    1
     2   164   165    1
     3   150   151    1
     4   150   153    1
     5   151   152    2
     6   165   166    1
     7   165   168    1
     8   154   153    1
     9   156   157    1
    10   190   191    1
    11   153   155    1
    12   158   159    2
    13   158   157    1
    14   166   167    2
    15   166   176   am
    16   168   169    1
    17   178   179    2
    18   178   177    1
    19   201   202    2
    20   201   200    1
    21   157   160    1
    22   176   177    1
    23   191   192    1
    24   191   194    1
    25   199   192   am
    26   199   200    1
    27   192   193    2
    28   160   161    1
    29   177   180    1
    30   186   188   ar
    31   186   183   ar
    32   188   189   ar
    33   200   203    1
    34   170   169   ar
    35   170   172   ar
    36   169   171   ar
    37   133   134    1
    38   203   204    1
    39   180   181    1
    40   194   195    1
    41   162   161    1
    42   134   135    1
    43   134   137    1
    44   161   163    1
    45   141   142    1
    46   138   137    1
    47   138   140    1
    48   183   181   ar
    49   183   185   ar
    50    42    43    2
    51    42    41    1
    52   172   174   ar
    53   189   187   ar
    54   181   182   ar
    55   171   173   ar
    56    30    31    2
    57    30    29    1
    58   195   196    1
    59   135   136    2
    60    44    41    1
    61    44    45    1
    62   204   205   ar
    63   204   206   ar
    64   137   139    1
    65   123   124    1
    66    35    37   ar
    67    35    33   ar
    68    28    29    1
    69   142   143    1
    70   142   145    1
    71    41    40    1
    72   143   144    2
    73   185   187   ar
    74   185   184   ar
    75   205   207   ar
    76    29    32    1
    77    32    33    1
    78   174   173   ar
    79   174   175    1
    80    37    38   ar
    81   196   197    1
    82   182   184   ar
    83   206   208   ar
    84   125   124    1
    85   125   126    2
    86    45    46    1
    87    33    34   ar
    88   124   127    1
    89   148   146    1
    90   145   146    1
    91   207   208   ar
    92   146   147    1
    93   197   198    1
    94    47    46    2
    95    38    39    1
    96    38    36   ar
    97    46    48   am
    98    34    36   ar
    99   127   128    1
   100   129   128   ar
   101   129   131   ar
   102   128   130   ar
   103   131   132   ar
   104   117   116    1
   105   117   118    2
   106   130   132   ar
   107   113   112    1
   108   116   119    1
   109   116   115    1
   110    20    21    1
   111    20    17    1
   112    22    21   ar
   113    22    24   ar
   114    21    23   ar
   115   114   112    1
   116   119   121    1
   117   119   120    1
   118    24    26   ar
   119    23    25   ar
   120    15    13   am
   121   112   111    1
   122    14    13    2
   123   111   108    1
   124    26    25   ar
   125    26    27    1
   126     5     2    1
   127     5     6    1
   128    17    16    1
   129    17    18    1
   130    13    12    1
   131     2     1    1
   132     2     3    1
   133    19    18    2
   134   120   122    1
   135     7     8    1
   136     4     3    2
   137    12    11    1
   138   109   108    1
   139   109   110    2
   140   108   107    1
   141     8    11    1
   142     8     9    1
   143   107    98   am
   144     9    10    2
   145    98    99    2
   146    98    97    1
   147    64    61    1
   148    95    93   am
   149    97    96    1
   150    97   100    1
   151    58    56   ar
   152    58    59   ar
   153    93    94    2
   154    93    92    1
   155    56    54   ar
   156    60    61    1
   157    60    51   am
   158    61    62    1
   159    49    50    1
   160    59    57   ar
   161    62    63    2
   162    54    53    1
   163    54    55   ar
   164    53    50    1
   165   100   101    1
   166    50    51    1
   167    92    91    1
   168    57    55   ar
   169    51    52    2
   170   101   102   ar
   171   101   103   ar
   172   102   104   ar
   173    91    88    1
   174    65    66    1
   175   103   105   ar
   176   104   106   ar
   177   105   106   ar
   178    87    88    1
   179    87    81   am
   180    88    89    1
   181    83    85    1
   182    83    84    1
   183    83    80    1
   184    86    84    1
   185    66    69    1
   186    66    67    1
   187    79    80    1
   188    79    67   am
   189    69    70    1
   190    80    81    1
   191    81    82    2
   192    67    68    2
   193    89    90    2
   194    70    71   ar
   195    70    72   ar
   196    71    73   ar
   197    75    72   ar
   198    75    77   ar
   199    72    74   ar
   200    73    74   ar
   201    77    78   ar
   202    74    76   ar
   203    78    76   ar
