@<TRIPOS>MOLECULE
tmp/5oy0J04.pdb
 94 93 0 0 0
SMALL
GASTEIGER

@<TRIPOS>ATOM
      1  N        113.2040  -42.9870   14.4660 N.3     5  ASN5       -0.1225
      2  CA       113.0250  -44.4080   14.7230 C.3     5  ASN5        0.1785
      3  C        114.1020  -45.2420   14.0470 C.2     5  ASN5        0.2597
      4  O        114.0880  -46.4720   14.1770 O.2     5  ASN5       -0.2718
      5  CB       111.6440  -44.8680   14.2460 C.3     5  ASN5        0.1169
      6  CG       111.5860  -45.0930   12.7420 C.2     5  ASN5        0.2627
      7  OD1      112.1960  -44.3560   11.9650 O.2     5  ASN5       -0.2716
      8  ND2      110.8520  -46.1190   12.3270 N.am    5  ASN5       -0.0877
      9  N        115.0290  -44.5960   13.3400 N.am    6  GLN6       -0.1965
     10  CA       115.9930  -45.3010   12.5090 C.3     6  GLN6        0.1733
     11  C        117.0160  -46.0440   13.3560 C.2     6  GLN6        0.2616
     12  O        117.5360  -45.5170   14.3430 O.2     6  GLN6       -0.2715
     13  CB       116.6970  -44.3200   11.5730 C.3     6  GLN6        0.0408
     14  CG       115.7880  -43.7250   10.5070 C.3     6  GLN6        0.0908
     15  CD       115.2690  -44.7640    9.5200 C.2     6  GLN6        0.2608
     16  OE1      116.0010  -45.2290    8.6450 O.2     6  GLN6       -0.2717
     17  NE2      114.0000  -45.1320    9.6600 N.am    6  GLN6       -0.0878
     18  N        117.3080  -47.2760   12.9450 N.am    7  VAL7       -0.1977
     19  CA       118.1890  -48.1590   13.7000 C.3     7  VAL7        0.1596
     20  C        119.6430  -48.0740   13.2440 C.2     7  VAL7        0.2287
     21  O        120.5430  -48.4910   13.9880 O.2     7  VAL7       -0.2864
     22  CB       117.6680  -49.6050   13.5870 C.3     7  VAL7        0.0276
     23  CG1      117.9440  -50.1550   12.2060 C.3     7  VAL7        0.0022
     24  CG2      118.2770  -50.4970   14.6380 C.3     7  VAL7        0.0022
     25  N        125.3270  -50.1290   13.0230 N.3    22  THR22      -0.1204
     26  CA       124.2370  -51.0520   12.7540 C.3    22  THR22       0.1979
     27  C        124.0210  -51.9690   13.9510 C.2    22  THR22       0.2460
     28  O        124.8810  -52.0600   14.8360 O.2    22  THR22      -0.2732
     29  CB       124.5310  -51.8930   11.5020 C.3    22  THR22       0.1783
     30  OG1      125.5400  -52.8680   11.7990 O.3    22  THR22      -0.2211
     31  CG2      125.0080  -51.0030   10.3710 C.3    22  THR22       0.0376
     32  N        122.8730  -52.6530   14.0230 N.am   23  PRO23      -0.2717
     33  CA       122.6560  -53.5890   15.1410 C.3    23  PRO23       0.1535
     34  C        123.7140  -54.6720   15.2480 C.2    23  PRO23       0.2598
     35  O        123.9470  -55.1840   16.3480 O.2    23  PRO23      -0.2715
     36  CB       121.2750  -54.1820   14.8360 C.3    23  PRO23       0.0310
     37  CG       120.5850  -53.1260   14.0490 C.3    23  PRO23       0.0237
     38  CD       121.6480  -52.4630   13.2220 C.3    23  PRO23       0.0939
     39  N        124.3580  -55.0490   14.1490 N.am   24  ILE24      -0.1978
     40  CA       125.4310  -56.0330   14.2320 C.3    24  ILE24       0.1596
     41  C        126.7610  -55.3620   14.5460 C.2    24  ILE24       0.2287
     42  O        127.5590  -55.8900   15.3250 O.2    24  ILE24      -0.2864
     43  CB       125.5040  -56.8690   12.9340 C.3    24  ILE24       0.0276
     44  CG1      124.4810  -58.0070   12.9580 C.3    24  ILE24       0.0022
     45  CG2      126.8830  -57.4650   12.7450 C.3    24  ILE24       0.0022
     46  CD1      123.0710  -57.5870   12.6320 C.3    24  ILE24       0.0001
     47  N        127.3430  -52.2260   16.0040 N.3    26  ASP26      -0.1225
     48  CA       127.4870  -51.2680   17.0940 C.3    26  ASP26       0.1805
     49  C        126.2210  -51.2150   17.9470 C.2    26  ASP26       0.2598
     50  O        125.7950  -50.1420   18.3860 O.2    26  ASP26      -0.2718
     51  CB       127.8500  -49.8820   16.5520 C.3    26  ASP26       0.1424
     52  CG       128.3110  -48.9300   17.6330 C.2    26  ASP26       0.3668
     53  OD1      127.7450  -47.8220   17.7210 O.co2  26  ASP26      -0.2456
     54  OD2      129.2210  -49.2920   18.4060 O.co2  26  ASP26      -0.2456
     55  N        125.6130  -52.3670   18.2040 N.am   27  SER27      -0.1938
     56  CA       124.5610  -52.3830   19.2050 C.3    27  SER27       0.2055
     57  C        125.1730  -52.5230   20.5970 C.2    27  SER27       0.2643
     58  O        126.3510  -52.8530   20.7570 O.2    27  SER27      -0.2714
     59  CB       123.5750  -53.5190   18.9460 C.3    27  SER27       0.2130
     60  OG       124.1120  -54.7540   19.3810 O.3    27  SER27      -0.2179
     61  N        124.3540  -52.2710   21.6210 N.am   28  ALA28      -0.1963
     62  CA       124.8370  -52.4180   22.9910 C.3    28  ALA28       0.1728
     63  C        125.2990  -53.8460   23.2600 C.2    28  ALA28       0.2616
     64  O        126.3390  -54.0620   23.8960 O.2    28  ALA28      -0.2715
     65  CB       123.7490  -52.0010   23.9820 C.3    28  ALA28       0.0334
     66  N        124.5530  -54.8330   22.7580 N.am   29  PHE29      -0.1960
     67  CA       124.9350  -56.2240   22.9730 C.3    29  PHE29       0.1771
     68  C        126.2890  -56.5300   22.3470 C.2    29  PHE29       0.2620
     69  O        127.1440  -57.1490   22.9840 O.2    29  PHE29      -0.2715
     70  CB       123.8740  -57.1750   22.4210 C.3    29  PHE29       0.0574
     71  CG       124.3410  -58.5970   22.3400 C.ar   29  PHE29      -0.0200
     72  CD1      124.3280  -59.4060   23.4650 C.ar   29  PHE29      -0.0042
     73  CD2      124.8200  -59.1200   21.1490 C.ar   29  PHE29      -0.0042
     74  CE1      124.7790  -60.7120   23.4040 C.ar   29  PHE29      -0.0003
     75  CE2      125.2680  -60.4270   21.0800 C.ar   29  PHE29      -0.0003
     76  CZ       125.2470  -61.2240   22.2110 C.ar   29  PHE29      -0.0000
     77  N        126.5020  -56.1260   21.0920 N.am   30  THR30      -0.1937
     78  CA       127.7770  -56.4570   20.4620 C.3    30  THR30       0.2028
     79  C        128.9200  -55.6850   21.1060 C.2    30  THR30       0.2642
     80  O        130.0120  -56.2300   21.2850 O.2    30  THR30      -0.2714
     81  CB       127.7470  -56.1990   18.9520 C.3    30  THR30       0.1808
     82  OG1      128.0210  -54.8210   18.6940 O.3    30  THR30      -0.2208
     83  CG2      126.4000  -56.5730   18.3510 C.3    30  THR30       0.0379
     84  N        128.6880  -54.4270   21.4830 N.am   31  ARG31      -0.1977
     85  CA       129.7260  -53.6690   22.1760 C.3    31  ARG31       0.1597
     86  C        130.1410  -54.3640   23.4670 C.2    31  ARG31       0.2287
     87  O        131.3370  -54.5410   23.7340 O.2    31  ARG31      -0.2864
     88  CB       129.2440  -52.2450   22.4520 C.3    31  ARG31       0.0334
     89  CG       129.1130  -51.3950   21.2040 C.3    31  ARG31       0.0492
     90  CD       128.9970  -49.9270   21.5540 C.3    31  ARG31       0.2205
     91  NE       127.8010  -49.6490   22.3370 N.pl3  31  ARG31      -0.0865
     92  CZ       126.6660  -49.1940   21.8210 C.cat  31  ARG31       0.5346
     93  NH1      126.5770  -48.9620   20.5190 N.pl3  31  ARG31       0.1354
     94  NH2      125.6220  -48.9670   22.6070 N.pl3  31  ARG31       0.1354
@<TRIPOS>BOND
     1    16    15    2
     2    15    17   am
     3    15    14    1
     4    31    29    1
     5    14    13    1
     6    29    30    1
     7    29    26    1
     8    13    10    1
     9     7     6    2
    10    23    22    1
    11     8     6   am
    12    10     9    1
    13    10    11    1
    14    46    44    1
    15     6     5    1
    16    45    43    1
    17    26    25    1
    18    26    27    1
    19    43    44    1
    20    43    40    1
    21    18    11   am
    22    18    19    1
    23    38    32    1
    24    38    37    1
    25    20    19    1
    26    20    21    2
    27     9     3   am
    28    11    12    2
    29    22    19    1
    30    22    24    1
    31    27    32   am
    32    27    28    2
    33    32    33    1
    34     3     4    2
    35     3     2    1
    36    37    36    1
    37    39    40    1
    38    39    34   am
    39    40    41    1
    40     5     2    1
    41     1     2    1
    42    41    42    2
    43    36    33    1
    44    33    34    1
    45    34    35    2
    46    47    48    1
    47    51    48    1
    48    51    52    1
    49    48    49    1
    50    52    53   ar
    51    52    54   ar
    52    49    55   am
    53    49    50    2
    54    55    56    1
    55    83    81    1
    56    82    81    1
    57    59    56    1
    58    59    60    1
    59    81    78    1
    60    56    57    1
    61    78    77    1
    62    78    79    1
    63    93    92    1
    64    57    58    2
    65    57    61   am
    66    75    73   ar
    67    75    76   ar
    68    77    68   am
    69    79    80    2
    70    79    84   am
    71    73    71   ar
    72    89    90    1
    73    89    88    1
    74    84    85    1
    75    90    91    1
    76    61    62    1
    77    92    91    2
    78    92    94    1
    79    85    88    1
    80    85    86    1
    81    76    74   ar
    82    71    70    1
    83    71    72   ar
    84    68    67    1
    85    68    69    2
    86    70    67    1
    87    66    67    1
    88    66    63   am
    89    62    63    1
    90    62    65    1
    91    63    64    2
    92    74    72   ar
    93    86    87    2
