@<TRIPOS>MOLECULE
tmp/5oy0W05.pdb
 94 92 0 0 0
SMALL
GASTEIGER

@<TRIPOS>ATOM
      1  N        228.6710 -108.0980   17.3470 N.3   145  PHE145     -0.1241
      2  CA       229.7930 -108.3780   18.2270 C.3   145  PHE145      0.1605
      3  C        229.8640 -109.8680   18.5260 C.2   145  PHE145      0.2264
      4  O        228.8710 -110.4840   18.9260 O.2   145  PHE145     -0.2867
      5  CB       229.6730 -107.5730   19.5180 C.3   145  PHE145      0.0534
      6  CG       230.2670 -106.2010   19.4230 C.ar  145  PHE145     -0.0203
      7  CD1      231.5480 -106.0260   18.9310 C.ar  145  PHE145     -0.0042
      8  CD2      229.5410 -105.0860   19.8000 C.ar  145  PHE145     -0.0042
      9  CE1      232.1010 -104.7660   18.8340 C.ar  145  PHE145     -0.0003
     10  CE2      230.0900 -103.8230   19.7050 C.ar  145  PHE145     -0.0003
     11  CZ       231.3720 -103.6650   19.2220 C.ar  145  PHE145     -0.0000
     12  N        233.2330 -111.2010   19.8990 N.3   147  ASP147     -0.1239
     13  CA       234.3090 -111.4030   20.8560 C.3   147  ASP147      0.1674
     14  C        234.3770 -110.2370   21.8320 C.2   147  ASP147      0.2266
     15  O        234.2760 -109.0720   21.4330 O.2   147  ASP147     -0.2867
     16  CB       235.6590 -111.5600   20.1440 C.3   147  ASP147      0.1410
     17  CG       236.7830 -111.9200   21.0960 C.2   147  ASP147      0.3668
     18  OD1      236.4930 -112.4340   22.1980 O.co2 147  ASP147     -0.2456
     19  OD2      237.9570 -111.6800   20.7450 O.co2 147  ASP147     -0.2456
     20  N        236.8620 -109.0290   23.2220 N.3   149  TYR149     -0.1227
     21  CA       237.9500 -108.1270   22.8580 C.3   149  TYR149      0.1736
     22  C        237.4470 -106.9620   22.0160 C.2   149  TYR149      0.2595
     23  O        237.9820 -105.8510   22.1070 O.2   149  TYR149     -0.2718
     24  CB       239.0450 -108.8970   22.1150 C.3   149  TYR149      0.0548
     25  CG       240.1720 -108.0300   21.5940 C.ar  149  TYR149     -0.0200
     26  CD1      241.0260 -107.3660   22.4680 C.ar  149  TYR149     -0.0009
     27  CD2      240.3880 -107.8830   20.2270 C.ar  149  TYR149     -0.0009
     28  CE1      242.0590 -106.5720   21.9960 C.ar  149  TYR149      0.0417
     29  CE2      241.4200 -107.0920   19.7450 C.ar  149  TYR149      0.0417
     30  CZ       242.2510 -106.4400   20.6340 C.ar  149  TYR149      0.1957
     31  OH       243.2750 -105.6530   20.1570 O.3   149  TYR149     -0.2866
     32  N        236.4040 -107.1830   21.2170 N.am  150  GLN150     -0.1979
     33  CA       235.8550 -106.1020   20.4060 C.3   150  GLN150      0.1601
     34  C        235.0930 -105.0970   21.2640 C.2   150  GLN150      0.2287
     35  O        235.1230 -103.8920   20.9900 O.2   150  GLN150     -0.2864
     36  CB       234.9640 -106.6860   19.3160 C.3   150  GLN150      0.0394
     37  CG       235.6120 -107.8440   18.5820 C.3   150  GLN150      0.0908
     38  CD       234.6470 -108.5720   17.6730 C.2   150  GLN150      0.2608
     39  OE1      233.7700 -109.3010   18.1360 O.2   150  GLN150     -0.2717
     40  NE2      234.8020 -108.3780   16.3690 N.am  150  GLN150     -0.0878
     41  N        237.7790 -103.0250   22.6470 N.3   153  CYS153     -0.1221
     42  CA       238.2620 -102.0690   21.6510 C.3   153  CYS153      0.1808
     43  C        237.2950 -100.9040   21.4850 C.2   153  CYS153      0.2601
     44  O        237.7190  -99.7540   21.3070 O.2   153  CYS153     -0.2717
     45  CB       238.4810 -102.7690   20.3100 C.3   153  CYS153      0.0970
     46  SG       239.8220 -103.9790   20.2910 S.3   153  CYS153     -0.0800
     47  N        235.9900 -101.1820   21.5300 N.am  154  THR154     -0.1953
     48  CA       235.0050 -100.1080   21.4790 C.3   154  THR154      0.1897
     49  C        235.1190  -99.2030   22.7000 C.2   154  THR154      0.2313
     50  O        234.9900  -97.9800   22.5870 O.2   154  THR154     -0.2863
     51  CB       233.5950 -100.6880   21.3700 C.3   154  THR154      0.1794
     52  OG1      233.5560 -101.6620   20.3180 O.3   154  THR154     -0.2208
     53  CG2      232.5930  -99.5850   21.0650 C.3   154  THR154      0.0378
     54  N        235.5160 -113.5260   11.1310 N.3   231  LEU231     -0.1231
     55  CA       235.5250 -112.1760   11.6650 C.3   231  LEU231      0.1678
     56  C        234.8170 -111.2190   10.7050 C.2   231  LEU231      0.2434
     57  O        234.6800 -111.5110    9.5140 O.2   231  LEU231     -0.2733
     58  CB       236.9630 -111.7290   11.9210 C.3   231  LEU231      0.0284
     59  CG       237.6760 -112.5840   12.9700 C.3   231  LEU231      0.0019
     60  CD1      239.0680 -112.0490   13.2610 C.3   231  LEU231      0.0001
     61  CD2      236.8470 -112.6670   14.2450 C.3   231  LEU231      0.0001
     62  N        234.3380 -110.0760   11.2100 N.am  232  PRO232     -0.2718
     63  CA       233.5820 -109.1540   10.3420 C.3   232  PRO232      0.1535
     64  C        234.3610 -108.6760    9.1300 C.2   232  PRO232      0.2598
     65  O        233.7590 -108.4150    8.0800 O.2   232  PRO232     -0.2715
     66  CB       233.2400 -107.9900   11.2830 C.3   232  PRO232      0.0310
     67  CG       233.2850 -108.5810   12.6520 C.3   232  PRO232      0.0237
     68  CD       234.3670 -109.6150   12.6110 C.3   232  PRO232      0.0939
     69  N        235.6830 -108.5580    9.2400 N.am  233  HIS233     -0.1974
     70  CA       236.5090 -108.0670    8.1470 C.3   233  HIS233      0.1656
     71  C        236.9210 -109.1570    7.1670 C.2   233  HIS233      0.2291
     72  O        237.3650 -108.8370    6.0570 O.2   233  HIS233     -0.2864
     73  CB       237.7570 -107.3860    8.7070 C.3   233  HIS233      0.0771
     74  CG       238.4370 -108.1690    9.7850 C.ar  233  HIS233      0.0820
     75  ND1      239.3020 -109.2090    9.5180 N.ar  233  HIS233     -0.2267
     76  CD2      238.3730 -108.0710   11.1350 C.ar  233  HIS233      0.1154
     77  CE1      239.7450 -109.7130   10.6550 C.ar  233  HIS233      0.1986
     78  NE2      239.1970 -109.0410   11.6510 N.ar  233  HIS233     -0.2212
     79  N        235.0180 -108.6030    4.1870 N.3   236  ILE236     -0.1231
     80  CA       235.5130 -107.5700    3.2870 C.3   236  ILE236      0.1692
     81  C        236.7480 -108.0440    2.5240 C.2   236  ILE236      0.2591
     82  O        236.9440 -107.6640    1.3640 O.2   236  ILE236     -0.2718
     83  CB       235.8060 -106.2810    4.0750 C.3   236  ILE236      0.0266
     84  CG1      234.6100 -105.9190    4.9590 C.3   236  ILE236      0.0019
     85  CG2      236.1310 -105.1330    3.1280 C.3   236  ILE236      0.0020
     86  CD1      234.8730 -104.7750    5.9170 C.3   236  ILE236      0.0001
     87  N        237.5830 -108.8770    3.1510 N.am  237  LEU237     -0.1980
     88  CA       238.7520 -109.4190    2.4650 C.3   237  LEU237      0.1596
     89  C        238.3630 -110.4630    1.4250 C.2   237  LEU237      0.2287
     90  O        239.0290 -110.5820    0.3910 O.2   237  LEU237     -0.2864
     91  CB       239.7240 -110.0150    3.4820 C.3   237  LEU237      0.0297
     92  CG       240.4150 -109.0180    4.4160 C.3   237  LEU237      0.0022
     93  CD1      241.0500 -109.7330    5.5970 C.3   237  LEU237      0.0001
     94  CD2      241.4570 -108.2160    3.6540 C.3   237  LEU237      0.0001
@<TRIPOS>BOND
     1    90    89    2
     2    82    81    2
     3    89    88    1
     4    88    87    1
     5    88    91    1
     6    81    87   am
     7    81    80    1
     8    85    83    1
     9    80    83    1
    10    80    79    1
    11    91    92    1
    12    94    92    1
    13    83    84    1
    14    92    93    1
    15    84    86    1
    16    72    71    2
    17    71    70    1
    18    65    64    2
    19    70    73    1
    20    70    69    1
    21    73    74    1
    22    64    69   am
    23    64    63    1
    24    57    56    2
    25    75    74   ar
    26    75    77   ar
    27    74    76   ar
    28    63    62    1
    29    63    66    1
    30    77    78   ar
    31    56    62   am
    32    56    55    1
    33    54    55    1
    34    76    78   ar
    35    62    68    1
    36    66    67    1
    37    55    58    1
    38    58    59    1
    39    68    67    1
    40    59    60    1
    41    59    61    1
    42    40    38   am
    43     1     2    1
    44    38    39    2
    45    38    37    1
    46     2     3    1
    47     2     5    1
    48     3     4    2
    49    37    36    1
    50     9     7   ar
    51     9    11   ar
    52     7     6   ar
    53    11    10   ar
    54    36    33    1
    55     6     5    1
    56     6     8   ar
    57    10     8   ar
    58    29    27   ar
    59    29    30   ar
    60    12    13    1
    61    16    13    1
    62    16    17    1
    63    31    30    1
    64    27    25   ar
    65    46    45    1
    66    45    42    1
    67    52    51    1
    68    33    32    1
    69    33    34    1
    70    30    28   ar
    71    19    17   ar
    72    13    14    1
    73    35    34    2
    74    53    51    1
    75    17    18   ar
    76    32    22   am
    77    44    43    2
    78    51    48    1
    79    15    14    2
    80    48    47    1
    81    48    49    1
    82    43    47   am
    83    43    42    1
    84    25    24    1
    85    25    26   ar
    86    42    41    1
    87    28    26   ar
    88    22    23    2
    89    22    21    1
    90    24    21    1
    91    50    49    2
    92    21    20    1
