@<TRIPOS>MOLECULE
tmp/5oy0I03.pdb
 67 62 0 0 0
SMALL
GASTEIGER

@<TRIPOS>ATOM
      1  N         80.1560  -55.7990    0.5640 N.3    26  ALA26      -0.1245
      2  CA        81.1440  -55.0910   -0.2430 C.3    26  ALA26       0.1562
      3  C         80.7520  -53.6320   -0.4240 C.2    26  ALA26       0.2260
      4  O         81.6070  -52.7420   -0.3690 O.2    26  ALA26      -0.2867
      5  CB        81.3150  -55.7760   -1.5980 C.3    26  ALA26       0.0290
      6  N         81.8350  -51.8990    2.9570 N.3    29  ILE29      -0.1231
      7  CA        83.2560  -51.6370    3.1900 C.3    29  ILE29       0.1692
      8  C         83.8290  -50.7400    2.0970 C.2    29  ILE29       0.2592
      9  O         84.7920  -50.0050    2.3410 O.2    29  ILE29      -0.2718
     10  CB        84.0840  -52.9320    3.3550 C.3    29  ILE29       0.0266
     11  CG1       84.8790  -53.2660    2.0900 C.3    29  ILE29       0.0019
     12  CG2       83.2240  -54.0880    3.8220 C.3    29  ILE29       0.0020
     13  CD1       86.3760  -53.2850    2.3190 C.3    29  ILE29       0.0001
     14  N         83.2430  -50.7400    0.8960 N.am   30  GLY30      -0.1957
     15  CA        83.6770  -49.7910   -0.1160 C.3    30  GLY30       0.1869
     16  C         83.2450  -48.3740    0.2070 C.2    30  GLY30       0.2309
     17  O         84.0280  -47.4280    0.0760 O.2    30  GLY30      -0.2863
     18  N         85.6370  -47.2750    2.7210 N.3    33  ALA33      -0.1231
     19  CA        87.0510  -47.5320    2.4650 C.3    33  ALA33       0.1694
     20  C         87.6030  -46.9730    1.1590 C.2    33  ALA33       0.2591
     21  O         88.8290  -46.9340    1.0100 O.2    33  ALA33      -0.2718
     22  CB        87.3320  -49.0430    2.4930 C.3    33  ALA33       0.0304
     23  N         86.7670  -46.5580    0.2130 N.am   34  ILE34      -0.1980
     24  CA        87.2670  -46.0850   -1.0760 C.3    34  ILE34       0.1595
     25  C         87.6320  -44.6110   -0.9530 C.2    34  ILE34       0.2287
     26  O         86.7960  -43.7860   -0.5730 O.2    34  ILE34      -0.2864
     27  CB        86.2350  -46.3100   -2.1920 C.3    34  ILE34       0.0276
     28  CG1       85.9030  -47.7950   -2.3260 C.3    34  ILE34       0.0022
     29  CG2       86.7550  -45.7770   -3.5210 C.3    34  ILE34       0.0022
     30  CD1       84.7990  -48.0850   -3.3190 C.3    34  ILE34       0.0001
     31  N         82.7690  -51.2950   -9.1990 N.3    61  ALA61      -0.1231
     32  CA        83.8830  -51.9680   -8.5420 C.3    61  ALA61       0.1694
     33  C         83.4280  -52.6830   -7.2820 C.2    61  ALA61       0.2592
     34  O         83.7940  -53.8410   -7.0500 O.2    61  ALA61      -0.2718
     35  CB        84.9890  -50.9660   -8.2160 C.3    61  ALA61       0.0304
     36  N         82.6420  -52.0070   -6.4410 N.am   62  THR62      -0.1953
     37  CA        82.1510  -52.6680   -5.2430 C.3    62  THR62       0.1897
     38  C         81.2410  -53.8370   -5.5980 C.2    62  THR62       0.2313
     39  O         81.1830  -54.8200   -4.8560 O.2    62  THR62      -0.2863
     40  CB        81.4400  -51.6580   -4.3390 C.3    62  THR62       0.1794
     41  OG1       81.4060  -52.1560   -2.9970 O.3    62  THR62      -0.2208
     42  CG2       80.0250  -51.4080   -4.8150 C.3    62  THR62       0.0378
     43  N         81.6080  -55.7980   -8.4540 N.3    64  SER64      -0.1202
     44  CA        82.5310  -56.8560   -8.8430 C.3    64  SER64       0.2020
     45  C         83.1660  -57.5000   -7.6160 C.2    64  SER64       0.2618
     46  O         83.3280  -58.7260   -7.5550 O.2    64  SER64      -0.2717
     47  CB        83.5950  -56.2830   -9.7740 C.3    64  SER64       0.2103
     48  OG        83.0040  -55.5110  -10.8070 O.3    64  SER64      -0.2182
     49  N         83.5120  -56.6870   -6.6140 N.am   65  PHE65      -0.1975
     50  CA        84.0870  -57.2250   -5.3870 C.3    65  PHE65       0.1639
     51  C         83.0690  -58.0530   -4.6180 C.2    65  PHE65       0.2290
     52  O         83.4090  -59.0990   -4.0510 O.2    65  PHE65      -0.2864
     53  CB        84.6180  -56.0890   -4.5180 C.3    65  PHE65       0.0560
     54  CG        85.3120  -56.5550   -3.2730 C.ar   65  PHE65      -0.0200
     55  CD1       86.4280  -57.3720   -3.3500 C.ar   65  PHE65      -0.0042
     56  CD2       84.8560  -56.1640   -2.0250 C.ar   65  PHE65      -0.0042
     57  CE1       87.0720  -57.7990   -2.2020 C.ar   65  PHE65      -0.0003
     58  CE2       85.4970  -56.5830   -0.8720 C.ar   65  PHE65      -0.0003
     59  CZ        86.6060  -57.4020   -0.9600 C.ar   65  PHE65      -0.0000
     60  N         82.9480  -61.3750   -6.3430 N.3    68  ILE68      -0.1245
     61  CA        84.0810  -62.2040   -5.9370 C.3    68  ILE68       0.1561
     62  C         83.8240  -62.8080   -4.5590 C.2    68  ILE68       0.2260
     63  O         83.9760  -64.0210   -4.3460 O.2    68  ILE68      -0.2867
     64  CB        85.3830  -61.3830   -5.9640 C.3    68  ILE68       0.0252
     65  CG1       85.6770  -60.9090   -7.3870 C.3    68  ILE68       0.0019
     66  CG2       86.5430  -62.1980   -5.4090 C.3    68  ILE68       0.0019
     67  CD1       87.0150  -60.2170   -7.5340 C.3    68  ILE68       0.0001
@<TRIPOS>BOND
     1    48    47    1
     2    47    44    1
     3    31    32    1
     4    44    43    1
     5    44    45    1
     6    32    35    1
     7    32    33    1
     8    45    46    2
     9    45    49   am
    10    67    65    1
    11    65    64    1
    12    33    34    2
    13    33    36   am
    14    49    50    1
    15    36    37    1
    16    60    61    1
    17    64    61    1
    18    64    66    1
    19    61    62    1
    20    38    37    1
    21    38    39    2
    22    50    51    1
    23    50    53    1
    24    37    40    1
    25    42    40    1
    26    51    52    2
    27    62    63    2
    28    53    54    1
    29    40    41    1
    30    29    27    1
    31    55    54   ar
    32    55    57   ar
    33    30    28    1
    34    54    56   ar
    35    28    27    1
    36    57    59   ar
    37    27    24    1
    38    56    58   ar
    39     5     2    1
    40    24    25    1
    41    24    23    1
    42    59    58   ar
    43    25    26    2
    44     3     4    2
    45     3     2    1
    46     2     1    1
    47    15    16    1
    48    15    14    1
    49    17    16    2
    50    23    20   am
    51    14     8   am
    52    21    20    2
    53    20    19    1
    54    11    13    1
    55    11    10    1
    56     8     9    2
    57     8     7    1
    58    19    22    1
    59    19    18    1
    60     6     7    1
    61     7    10    1
    62    10    12    1
