@<TRIPOS>MOLECULE
tmp/5oy0M13.pdb
 187 184 0 0 0
SMALL
GASTEIGER

@<TRIPOS>ATOM
      1  N         83.6840  -62.9770   23.6520 N.3   183  VAL183     -0.1245
      2  CA        84.0410  -63.6650   22.4150 C.3   183  VAL183      0.1561
      3  C         84.9740  -64.8410   22.6960 C.2   183  VAL183      0.2260
      4  O         84.9470  -65.8430   21.9760 O.2   183  VAL183     -0.2867
      5  CB        84.6400  -62.6570   21.4140 C.3   183  VAL183      0.0252
      6  CG1       85.2180  -63.3580   20.2000 C.3   183  VAL183      0.0019
      7  CG2       83.5740  -61.6750   20.9750 C.3   183  VAL183      0.0019
      8  N         82.6330  -67.5420   23.7110 N.3   186  LEU186     -0.1231
      9  CA        81.9390  -67.9610   22.4980 C.3   186  LEU186      0.1693
     10  C         82.8140  -68.8850   21.6560 C.2   186  LEU186      0.2591
     11  O         82.3750  -69.9570   21.2210 O.2   186  LEU186     -0.2718
     12  CB        81.5230  -66.7240   21.6990 C.3   186  LEU186      0.0284
     13  CG        80.7330  -66.9300   20.4070 C.3   186  LEU186      0.0019
     14  CD1       79.4460  -67.6700   20.6960 C.3   186  LEU186      0.0001
     15  CD2       80.4510  -65.6060   19.7120 C.3   186  LEU186      0.0001
     16  N         84.0620  -68.4780   21.4140 N.am  187  ALA187     -0.1980
     17  CA        84.9960  -69.3020   20.6590 C.3   187  ALA187      0.1597
     18  C         85.2500  -70.6320   21.3500 C.2   187  ALA187      0.2287
     19  O         85.4390  -71.6540   20.6820 O.2   187  ALA187     -0.2864
     20  CB        86.3090  -68.5450   20.4570 C.3   187  ALA187      0.0319
     21  N         83.0430  -72.2470   23.3020 N.3   189  ALA189     -0.1231
     22  CA        81.8560  -73.0400   23.0070 C.3   189  ALA189      0.1694
     23  C         81.9120  -73.5870   21.5870 C.2   189  ALA189      0.2592
     24  O         81.4630  -74.7120   21.3300 O.2   189  ALA189     -0.2718
     25  CB        80.5970  -72.1980   23.2180 C.3   189  ALA189      0.0304
     26  N         82.4820  -72.8140   20.6620 N.am  190  GLY190     -0.1957
     27  CA        82.6580  -73.2990   19.3030 C.3   190  GLY190      0.1869
     28  C         83.6400  -74.4530   19.2100 C.2   190  GLY190      0.2309
     29  O         83.4150  -75.4090   18.4660 O.2   190  GLY190     -0.2863
     30  N         81.7620  -77.5320   20.6820 N.3   193  VAL193     -0.1231
     31  CA        80.7510  -78.0470   19.7780 C.3   193  VAL193      0.1692
     32  C         81.3830  -78.6440   18.5230 C.2   193  VAL193      0.2592
     33  O         80.8830  -79.6370   17.9820 O.2   193  VAL193     -0.2718
     34  CB        79.7660  -76.9000   19.4830 C.3   193  VAL193      0.0266
     35  CG1       79.4280  -76.8120   18.0130 C.3   193  VAL193      0.0020
     36  CG2       78.5230  -77.0360   20.3560 C.3   193  VAL193      0.0020
     37  N         82.5090  -78.0930   18.0710 N.am  194  HIS194     -0.1976
     38  CA        83.1490  -78.5230   16.8330 C.3   194  HIS194      0.1656
     39  C         84.1260  -79.6770   17.0100 C.2   194  HIS194      0.2291
     40  O         84.2670  -80.4990   16.0990 O.2   194  HIS194     -0.2864
     41  CB        83.9000  -77.3530   16.1980 C.3   194  HIS194      0.0771
     42  CG        83.0810  -76.5710   15.2260 C.ar  194  HIS194      0.0820
     43  ND1       82.9770  -76.9210   13.8980 N.ar  194  HIS194     -0.2267
     44  CD2       82.3210  -75.4630   15.3860 C.ar  194  HIS194      0.1154
     45  CE1       82.1900  -76.0590   13.2790 C.ar  194  HIS194      0.1986
     46  NE2       81.7810  -75.1650   14.1600 N.ar  194  HIS194     -0.2212
     47  N         87.6640  -79.9690    9.5730 N.3   210  PHE210     -0.1227
     48  CA        86.6340  -79.2630   10.3320 C.3   210  PHE210      0.1736
     49  C         85.7920  -78.3340    9.4690 C.2   210  PHE210      0.2595
     50  O         84.6800  -77.9750    9.8720 O.2   210  PHE210     -0.2718
     51  CB        87.2640  -78.4800   11.4910 C.3   210  PHE210      0.0547
     52  CG        87.8150  -77.1280   11.1060 C.ar  210  PHE210     -0.0202
     53  CD1       87.1290  -75.9660   11.4330 C.ar  210  PHE210     -0.0042
     54  CD2       89.0300  -77.0180   10.4490 C.ar  210  PHE210     -0.0042
     55  CE1       87.6390  -74.7230   11.0980 C.ar  210  PHE210     -0.0003
     56  CE2       89.5420  -75.7760   10.1080 C.ar  210  PHE210     -0.0003
     57  CZ        88.8480  -74.6300   10.4350 C.ar  210  PHE210     -0.0000
     58  N         86.2790  -77.9470    8.2910 N.am  211  LEU211     -0.1980
     59  CA        85.4510  -77.1430    7.4000 C.3   211  LEU211      0.1596
     60  C         84.2770  -77.9500    6.8530 C.2   211  LEU211      0.2287
     61  O         83.1570  -77.4360    6.7610 O.2   211  LEU211     -0.2864
     62  CB        86.2930  -76.5770    6.2570 C.3   211  LEU211      0.0297
     63  CG        87.4330  -75.6200    6.6230 C.3   211  LEU211      0.0022
     64  CD1       88.1360  -75.1170    5.3690 C.3   211  LEU211      0.0001
     65  CD2       86.9350  -74.4490    7.4590 C.3   211  LEU211      0.0001
     66  N         82.8370  -80.9030    7.9510 N.3   213  THR213     -0.1204
     67  CA        82.0450  -81.7590    8.8360 C.3   213  THR213      0.1979
     68  C         81.3550  -80.9040    9.8900 C.2   213  THR213      0.2460
     69  O         81.9880  -80.5020   10.8810 O.2   213  THR213     -0.2732
     70  CB        82.8890  -82.8530    9.4870 C.3   213  THR213      0.1783
     71  OG1       82.3550  -83.1770   10.7780 O.3   213  THR213     -0.2211
     72  CG2       84.3160  -82.4250    9.6360 C.3   213  THR213      0.0376
     73  N         80.0660  -80.6180    9.7150 N.am  214  PRO214     -0.2718
     74  CA        79.3380  -79.7680   10.6640 C.3   214  PRO214      0.1520
     75  C         79.2700  -80.3930   12.0440 C.2   214  PRO214      0.2440
     76  O         79.4070  -81.6170   12.1920 O.2   214  PRO214     -0.2731
     77  CB        77.9390  -79.6680   10.0380 C.3   214  PRO214      0.0310
     78  CG        78.1520  -79.9420    8.5910 C.3   214  PRO214      0.0237
     79  CD        79.2470  -80.9620    8.5430 C.3   214  PRO214      0.0939
     80  N         79.0620  -79.5810   13.0850 N.am  215  PRO215     -0.2716
     81  CA        78.8260  -80.1520   14.4190 C.3   215  PRO215      0.1536
     82  C         77.4830  -80.8450   14.5510 C.2   215  PRO215      0.2598
     83  O         77.3380  -81.7360   15.3970 O.2   215  PRO215     -0.2715
     84  CB        78.9090  -78.9300   15.3420 C.3   215  PRO215      0.0310
     85  CG        79.6040  -77.8810   14.5490 C.3   215  PRO215      0.0237
     86  CD        79.2270  -78.1190   13.1320 C.3   215  PRO215      0.0939
     87  N         76.4900  -80.4550   13.7560 N.am  216  HIS216     -0.1974
     88  CA        75.1670  -81.0460   13.8230 C.3   216  HIS216      0.1656
     89  C         74.6890  -81.3650   12.4150 C.2   216  HIS216      0.2291
     90  O         74.9770  -80.6110   11.4780 O.2   216  HIS216     -0.2864
     91  CB        74.1720  -80.1010   14.5130 C.3   216  HIS216      0.0771
     92  CG        72.9390  -80.7850   15.0140 C.ar  216  HIS216      0.0820
     93  ND1       71.8600  -81.0670   14.2030 N.ar  216  HIS216     -0.2267
     94  CD2       72.6160  -81.2470   16.2450 C.ar  216  HIS216      0.1154
     95  CE1       70.9260  -81.6750   14.9130 C.ar  216  HIS216      0.1986
     96  NE2       71.3600  -81.7980   16.1540 N.ar  216  HIS216     -0.2212
     97  N         72.7500  -78.2120   10.9460 N.3   219  GLY219     -0.1210
     98  CA        73.6980  -77.1750   10.5780 C.3   219  GLY219      0.1956
     99  C         73.1340  -75.8030   10.2580 C.2   219  GLY219      0.2611
    100  O         72.7530  -75.5340    9.1150 O.2   219  GLY219     -0.2717
    101  N         73.0640  -74.9360   11.2690 N.am  220  LEU220     -0.1979
    102  CA        72.8250  -73.5020   11.1020 C.3   220  LEU220      0.1596
    103  C         71.4150  -73.1510   10.6340 C.2   220  LEU220      0.2287
    104  O         70.9210  -72.0620   10.9420 O.2   220  LEU220     -0.2864
    105  CB        73.8570  -72.8960   10.1460 C.3   220  LEU220      0.0297
    106  CG        75.2900  -72.8910   10.6900 C.3   220  LEU220      0.0022
    107  CD1       76.1780  -71.9710    9.8720 C.3   220  LEU220      0.0001
    108  CD2       75.3300  -72.5130   12.1720 C.3   220  LEU220      0.0001
    109  N         69.3960  -72.4850   13.6340 N.3   223  PHE223     -0.1227
    110  CA        69.8900  -71.3120   14.3490 C.3   223  PHE223      0.1736
    111  C         69.2420  -70.0310   13.8340 C.2   223  PHE223      0.2595
    112  O         68.6150  -69.2840   14.5940 O.2   223  PHE223     -0.2718
    113  CB        71.4120  -71.2220   14.2300 C.3   223  PHE223      0.0547
    114  CG        72.0010  -70.0130   14.9090 C.ar  223  PHE223     -0.0202
    115  CD1       72.2930  -70.0360   16.2630 C.ar  223  PHE223     -0.0042
    116  CD2       72.2530  -68.8510   14.1950 C.ar  223  PHE223     -0.0042
    117  CE1       72.8290  -68.9230   16.8940 C.ar  223  PHE223     -0.0003
    118  CE2       72.7870  -67.7360   14.8190 C.ar  223  PHE223     -0.0003
    119  CZ        73.0760  -67.7730   16.1700 C.ar  223  PHE223     -0.0000
    120  N         69.3910  -69.7580   12.5360 N.am  224  PHE224     -0.1976
    121  CA        68.9100  -68.5070   11.9650 C.3   224  PHE224      0.1639
    122  C         67.3930  -68.4560   11.8250 C.2   224  PHE224      0.2290
    123  O         66.8550  -67.3780   11.5550 O.2   224  PHE224     -0.2864
    124  CB        69.5760  -68.2680   10.6100 C.3   224  PHE224      0.0560
    125  CG        71.0490  -67.9910   10.7060 C.ar  224  PHE224     -0.0200
    126  CD1       71.5090  -66.7090   10.9520 C.ar  224  PHE224     -0.0042
    127  CD2       71.9710  -69.0100   10.5550 C.ar  224  PHE224     -0.0042
    128  CE1       72.8600  -66.4470   11.0440 C.ar  224  PHE224     -0.0003
    129  CE2       73.3260  -68.7550   10.6450 C.ar  224  PHE224     -0.0003
    130  CZ        73.7710  -67.4700   10.8910 C.ar  224  PHE224     -0.0000
    131  N         65.3030  -73.7010   17.6660 N.3   228  TRP228     -0.1241
    132  CA        66.5650  -73.9290   18.3630 C.3   228  TRP228      0.1605
    133  C         66.6070  -75.2810   19.0610 C.2   228  TRP228      0.2264
    134  O         67.7000  -75.7960   19.3200 O.2   228  TRP228     -0.2867
    135  CB        66.8270  -72.8180   19.3820 C.3   228  TRP228      0.0550
    136  CG        67.4370  -71.5830   18.7920 C.ar  228  TRP228      0.0003
    137  CD1       67.6540  -71.3280   17.4710 C.ar  228  TRP228      0.0946
    138  CD2       67.9170  -70.4360   19.5060 C.ar  228  TRP228      0.0152
    139  NE1       68.2320  -70.0920   17.3150 N.ar  228  TRP228     -0.2442
    140  CE2       68.4060  -69.5240   18.5500 C.ar  228  TRP228      0.0810
    141  CE3       67.9780  -70.0910   20.8600 C.ar  228  TRP228      0.0012
    142  CZ2       68.9500  -68.2900   18.9050 C.ar  228  TRP228      0.0191
    143  CZ3       68.5200  -68.8660   21.2100 C.ar  228  TRP228      0.0001
    144  CH2       68.9980  -67.9810   20.2370 C.ar  228  TRP228      0.0015
    145  N         68.9790  -78.4460   18.3650 N.3   231  TYR231     -0.1241
    146  CA        70.3080  -78.6300   18.9290 C.3   231  TYR231      0.1605
    147  C         70.2860  -79.3040   20.2960 C.2   231  TYR231      0.2264
    148  O         71.3190  -79.8300   20.7250 O.2   231  TYR231     -0.2867
    149  CB        71.0250  -77.2810   19.0110 C.3   231  TYR231      0.0534
    150  CG        71.1700  -76.6090   17.6640 C.ar  231  TYR231     -0.0201
    151  CD1       71.5570  -77.3370   16.5450 C.ar  231  TYR231     -0.0009
    152  CD2       70.9000  -75.2560   17.5050 C.ar  231  TYR231     -0.0009
    153  CE1       71.6850  -76.7350   15.3100 C.ar  231  TYR231      0.0417
    154  CE2       71.0230  -74.6450   16.2720 C.ar  231  TYR231      0.0417
    155  CZ        71.4170  -75.3900   15.1790 C.ar  231  TYR231      0.1957
    156  OH        71.5430  -74.7900   13.9500 O.3   231  TYR231     -0.2866
    157  N         74.2050  -80.8360   20.5940 N.3   252  ILE252     -0.1231
    158  CA        75.3640  -79.9930   20.8390 C.3   252  ILE252      0.1692
    159  C         75.1580  -79.0300   22.0000 C.2   252  ILE252      0.2591
    160  O         76.1510  -78.5120   22.5360 O.2   252  ILE252     -0.2718
    161  CB        75.7560  -79.2170   19.5640 C.3   252  ILE252      0.0266
    162  CG1       74.6130  -78.2960   19.1280 C.3   252  ILE252      0.0019
    163  CG2       76.1250  -80.1850   18.4500 C.3   252  ILE252      0.0020
    164  CD1       74.9650  -77.4120   17.9610 C.3   252  ILE252      0.0001
    165  N         73.9180  -78.7750   22.4210 N.am  253  LEU253     -0.1980
    166  CA        73.6080  -77.8180   23.4840 C.3   253  LEU253      0.1596
    167  C         72.5030  -78.4280   24.3330 C.2   253  LEU253      0.2287
    168  O         71.3400  -78.4470   23.9160 O.2   253  LEU253     -0.2864
    169  CB        73.1660  -76.4800   22.9060 C.3   253  LEU253      0.0297
    170  CG        74.1100  -75.7570   21.9600 C.3   253  LEU253      0.0022
    171  CD1       73.4140  -74.5570   21.3410 C.3   253  LEU253      0.0001
    172  CD2       75.3620  -75.3350   22.7110 C.3   253  LEU253      0.0001
    173  N         78.1040  -70.8070   25.6890 N.3   276  LEU276     -0.1245
    174  CA        77.3240  -69.9920   24.7590 C.3   276  LEU276      0.1561
    175  C         76.4780  -68.9590   25.5070 C.2   276  LEU276      0.2260
    176  O         76.4350  -67.7790   25.1290 O.2   276  LEU276     -0.2867
    177  CB        76.4460  -70.8940   23.8870 C.3   276  LEU276      0.0270
    178  CG        75.6050  -70.2440   22.7850 C.3   276  LEU276      0.0019
    179  CD1       76.4480  -69.3180   21.9380 C.3   276  LEU276      0.0001
    180  CD2       74.9660  -71.3140   21.9150 C.3   276  LEU276      0.0001
    181  N         76.7810  -64.8260   25.4640 N.3   280  VAL280     -0.1245
    182  CA        75.7050  -63.8820   25.1670 C.3   280  VAL280      0.1561
    183  C         75.6430  -62.7980   26.2370 C.2   280  VAL280      0.2260
    184  O         75.5930  -61.5960   25.9360 O.2   280  VAL280     -0.2867
    185  CB        74.3620  -64.6200   25.0350 C.3   280  VAL280      0.0252
    186  CG1       73.2430  -63.6250   24.7990 C.3   280  VAL280      0.0019
    187  CG2       74.4230  -65.6340   23.9060 C.3   280  VAL280      0.0019
@<TRIPOS>BOND
     1    64    63    1
     2    62    63    1
     3    62    59    1
     4    63    65    1
     5    61    60    2
     6    60    59    1
     7    59    58    1
     8    66    67    1
     9    58    49   am
    10    79    78    1
    11    79    73    1
    12    78    77    1
    13    67    70    1
    14    67    68    1
    15   100    99    2
    16    49    50    2
    17    49    48    1
    18    70    72    1
    19    70    71    1
    20    47    48    1
    21    73    68   am
    22    73    74    1
    23   107   106    1
    24    68    69    2
    25    77    74    1
    26    56    57   ar
    27    56    54   ar
    28   105   106    1
    29   105   102    1
    30    99    98    1
    31    99   101   am
    32    48    51    1
    33    57    55   ar
    34    54    52   ar
    35   127   129   ar
    36   127   125   ar
    37    98    97    1
    38   124   125    1
    39   124   121    1
    40   103   104    2
    41   103   102    1
    42   129   130   ar
    43    74    75    1
    44   106   108    1
    45   125   126   ar
    46   130   128   ar
    47   126   128   ar
    48    55    53   ar
    49   102   101    1
    50    52    53   ar
    51    52    51    1
    52    90    89    2
    53   123   122    2
    54   122   121    1
    55   121   120    1
    56    75    76    2
    57    75    80   am
    58    89    88    1
    59   120   111   am
    60    80    86    1
    61    80    81    1
    62    86    85    1
    63    45    43   ar
    64    45    46   ar
    65   109   110    1
    66    87    88    1
    67    87    82   am
    68    88    91    1
    69   111   110    1
    70   111   112    2
    71    43    42   ar
    72   156   155    1
    73    46    44   ar
    74   116   118   ar
    75   116   114   ar
    76    93    95   ar
    77    93    92   ar
    78   113   110    1
    79   113   114    1
    80    81    82    1
    81    81    84    1
    82    91    92    1
    83    85    84    1
    84    82    83    2
    85   118   119   ar
    86   114   115   ar
    87    95    96   ar
    88    92    94   ar
    89   155   153   ar
    90   155   154   ar
    91    42    44   ar
    92    42    41    1
    93   153   151   ar
    94    40    39    2
    95    96    94   ar
    96   119   117   ar
    97    41    38    1
    98   115   117   ar
    99   154   152   ar
   100   151   150   ar
   101    38    39    1
   102    38    37    1
   103   139   137   ar
   104   139   140   ar
   105   137   136   ar
   106   152   150   ar
   107   150   149    1
   108   131   132    1
   109   164   162    1
   110    33    32    2
   111    35    34    1
   112    37    32   am
   113   132   133    1
   114   132   135    1
   115   145   146    1
   116   163   161    1
   117    29    28    2
   118    32    31    1
   119   140   142   ar
   120   140   138   ar
   121   136   135    1
   122   136   138   ar
   123   142   144   ar
   124   146   149    1
   125   146   147    1
   126   133   134    2
   127   162   161    1
   128    28    27    1
   129    27    26    1
   130    34    31    1
   131    34    36    1
   132   138   141   ar
   133   161   158    1
   134    15    13    1
   135    31    30    1
   136     6     5    1
   137   144   143   ar
   138   147   148    2
   139    13    14    1
   140    13    12    1
   141    20    17    1
   142   157   158    1
   143    17    18    1
   144    17    16    1
   145    26    23   am
   146    19    18    2
   147   158   159    1
   148   141   143   ar
   149     7     5    1
   150    11    10    2
   151    24    23    2
   152   171   170    1
   153    16    10   am
   154     5     2    1
   155    23    22    1
   156    10     9    1
   157    12     9    1
   158   180   178    1
   159   179   178    1
   160   170   172    1
   161   170   169    1
   162     4     3    2
   163   159   165   am
   164   159   160    2
   165     2     3    1
   166     2     1    1
   167   165   166    1
   168     9     8    1
   169   178   177    1
   170   169   166    1
   171    22    25    1
   172    22    21    1
   173   166   167    1
   174   177   174    1
   175   187   185    1
   176   168   167    2
   177   174   175    1
   178   174   173    1
   179   186   185    1
   180   185   182    1
   181   176   175    2
   182   182   181    1
   183   182   183    1
   184   184   183    2
