@<TRIPOS>MOLECULE
tmp/5oy0B46.pdb
 96 96 0 0 0
SMALL
GASTEIGER

@<TRIPOS>ATOM
      1  N        181.4480  -88.5000   -7.1460 N.3   141  PHE141     -0.1241
      2  CA       182.3860  -87.6750   -7.8970 C.3   141  PHE141      0.1605
      3  C        181.7320  -86.3880   -8.3730 C.2   141  PHE141      0.2264
      4  O        182.3630  -85.3260   -8.3730 O.2   141  PHE141     -0.2867
      5  CB       182.9410  -88.4480   -9.0890 C.3   141  PHE141      0.0534
      6  CG       183.6410  -87.5790  -10.0850 C.ar  141  PHE141     -0.0203
      7  CD1      184.8270  -86.9490   -9.7550 C.ar  141  PHE141     -0.0042
      8  CD2      183.1110  -87.3830  -11.3480 C.ar  141  PHE141     -0.0042
      9  CE1      185.4760  -86.1430  -10.6660 C.ar  141  PHE141     -0.0003
     10  CE2      183.7570  -86.5780  -12.2650 C.ar  141  PHE141     -0.0003
     11  CZ       184.9400  -85.9570  -11.9230 C.ar  141  PHE141     -0.0000
     12  N        182.6610  -82.5380   -7.8370 N.3   145  LEU145     -0.1245
     13  CA       182.7700  -81.5870   -8.9430 C.3   145  LEU145      0.1561
     14  C        181.9190  -80.3470   -8.6930 C.2   145  LEU145      0.2260
     15  O        182.3540  -79.2120   -8.9470 O.2   145  LEU145     -0.2867
     16  CB       182.3490  -82.2580  -10.2520 C.3   145  LEU145      0.0270
     17  CG       183.3880  -82.4460  -11.3610 C.3   145  LEU145      0.0019
     18  CD1      182.7710  -83.1630  -12.5560 C.3   145  LEU145      0.0001
     19  CD2      183.9780  -81.1150  -11.7840 C.3   145  LEU145      0.0001
     20  N        183.6890  -78.2340   -6.3120 N.3   148  LEU148     -0.1245
     21  CA       184.7580  -77.4960   -6.9780 C.3   148  LEU148      0.1561
     22  C        184.2210  -76.2460   -7.6600 C.2   148  LEU148      0.2260
     23  O        184.7970  -75.1580   -7.5350 O.2   148  LEU148     -0.2867
     24  CB       185.4580  -78.3960   -7.9960 C.3   148  LEU148      0.0270
     25  CG       186.7920  -79.0150   -7.5850 C.3   148  LEU148      0.0019
     26  CD1      187.1520  -80.1510   -8.5230 C.3   148  LEU148      0.0001
     27  CD2      187.8890  -77.9590   -7.5700 C.3   148  LEU148      0.0001
     28  N        183.1370  -73.5620   -5.1800 N.3   151  PHE151     -0.1241
     29  CA       184.2990  -72.8430   -4.6750 C.3   151  PHE151      0.1605
     30  C        184.8660  -71.8950   -5.7240 C.2   151  PHE151      0.2264
     31  O        185.3090  -70.7960   -5.3860 O.2   151  PHE151     -0.2867
     32  CB       185.3820  -73.8120   -4.2060 C.3   151  PHE151      0.0534
     33  CG       186.6230  -73.1210   -3.7240 C.ar  151  PHE151     -0.0203
     34  CD1      186.6840  -72.5960   -2.4460 C.ar  151  PHE151     -0.0042
     35  CD2      187.7190  -72.9700   -4.5580 C.ar  151  PHE151     -0.0042
     36  CE1      187.8240  -71.9460   -2.0000 C.ar  151  PHE151     -0.0003
     37  CE2      188.8590  -72.3210   -4.1210 C.ar  151  PHE151     -0.0003
     38  CZ       188.9110  -71.8080   -2.8400 C.ar  151  PHE151     -0.0000
     39  N        182.7470  -68.8170   -5.7890 N.3   154  TRP154     -0.1227
     40  CA       183.0240  -67.9930   -4.6160 C.3   154  TRP154      0.1737
     41  C        184.3640  -67.2780   -4.7480 C.2   154  TRP154      0.2595
     42  O        184.4750  -66.0830   -4.4480 O.2   154  TRP154     -0.2718
     43  CB       183.0020  -68.8480   -3.3500 C.3   154  TRP154      0.0564
     44  CG       183.2900  -68.0630   -2.1060 C.ar  154  TRP154      0.0003
     45  CD1      182.3800  -67.4610   -1.2900 C.ar  154  TRP154      0.0946
     46  CD2      184.5780  -67.7860   -1.5420 C.ar  154  TRP154      0.0152
     47  NE1      183.0190  -66.8290   -0.2500 N.ar  154  TRP154     -0.2442
     48  CE2      184.3690  -67.0120   -0.3830 C.ar  154  TRP154      0.0810
     49  CE3      185.8880  -68.1200   -1.9030 C.ar  154  TRP154      0.0012
     50  CZ2      185.4190  -66.5670    0.4180 C.ar  154  TRP154      0.0191
     51  CZ3      186.9280  -67.6770   -1.1070 C.ar  154  TRP154      0.0001
     52  CH2      186.6870  -66.9100    0.0400 C.ar  154  TRP154      0.0015
     53  N        185.3890  -67.9980   -5.2070 N.am  155  LEU155     -0.1980
     54  CA       186.7330  -67.4440   -5.2960 C.3   155  LEU155      0.1596
     55  C        186.7800  -66.2650   -6.2520 C.2   155  LEU155      0.2287
     56  O        187.4520  -65.2630   -5.9820 O.2   155  LEU155     -0.2864
     57  CB       187.7100  -68.5330   -5.7410 C.3   155  LEU155      0.0297
     58  CG       189.1700  -68.1310   -5.9620 C.3   155  LEU155      0.0022
     59  CD1      189.8790  -67.9240   -4.6330 C.3   155  LEU155      0.0001
     60  CD2      189.8980  -69.1620   -6.8140 C.3   155  LEU155      0.0001
     61  N        186.1700  -62.6260   -4.9500 N.3   158  GLN158     -0.1231
     62  CA       187.1470  -62.0210   -4.0640 C.3   158  GLN158      0.1683
     63  C        187.9850  -60.9950   -4.8240 C.2   158  GLN158      0.2434
     64  O        188.2670  -61.1740   -6.0120 O.2   158  GLN158     -0.2733
     65  CB       188.0500  -63.0940   -3.4620 C.3   158  GLN158      0.0380
     66  CG       187.2850  -64.2650   -2.8580 C.3   158  GLN158      0.0905
     67  CD       186.1420  -63.8130   -1.9650 C.2   158  GLN158      0.2608
     68  OE1      186.3340  -63.0120   -1.0500 O.2   158  GLN158     -0.2717
     69  NE2      184.9420  -64.3170   -2.2370 N.am  158  GLN158     -0.0878
     70  N        188.3970  -59.9150   -4.1510 N.am  159  PRO159     -0.2718
     71  CA       189.0310  -58.7890   -4.8670 C.3   159  PRO159      0.1535
     72  C        190.1690  -59.1720   -5.8060 C.2   159  PRO159      0.2598
     73  O        190.2090  -58.6900   -6.9460 O.2   159  PRO159     -0.2715
     74  CB       189.5110  -57.8960   -3.7160 C.3   159  PRO159      0.0310
     75  CG       188.5320  -58.1600   -2.6180 C.3   159  PRO159      0.0237
     76  CD       188.1830  -59.6170   -2.7230 C.3   159  PRO159      0.0939
     77  N        191.0950  -60.0280   -5.3640 N.am  160  LYS160     -0.1964
     78  CA       192.2290  -60.3940   -6.2110 C.3   160  LYS160      0.1728
     79  C        191.7830  -61.1900   -7.4310 C.2   160  LYS160      0.2616
     80  O        192.3050  -60.9920   -8.5350 O.2   160  LYS160     -0.2715
     81  CB       193.2460  -61.2060   -5.4100 C.3   160  LYS160      0.0311
     82  CG       194.6460  -60.6260   -5.3820 C.3   160  LYS160      0.0038
     83  CD       194.8170  -59.6970   -4.1990 C.3   160  LYS160      0.0206
     84  CE       196.2790  -59.4130   -3.9170 C.3   160  LYS160      0.1093
     85  NZ       196.4500  -58.7120   -2.6150 N.3   160  LYS160     -0.1314
     86  N        190.8190  -62.0930   -7.2510 N.am  161  PHE161     -0.1974
     87  CA       190.4700  -63.0840   -8.2580 C.3   161  PHE161      0.1639
     88  C        189.2490  -62.6840   -9.0830 C.2   161  PHE161      0.2290
     89  O        188.6380  -63.5430   -9.7280 O.2   161  PHE161     -0.2864
     90  CB       190.2430  -64.4430   -7.5900 C.3   161  PHE161      0.0560
     91  CG       191.4120  -64.9200   -6.7670 C.ar  161  PHE161     -0.0200
     92  CD1      192.3310  -65.8100   -7.2960 C.ar  161  PHE161     -0.0042
     93  CD2      191.5910  -64.4790   -5.4640 C.ar  161  PHE161     -0.0042
     94  CE1      193.4060  -66.2500   -6.5440 C.ar  161  PHE161     -0.0003
     95  CE2      192.6660  -64.9140   -4.7100 C.ar  161  PHE161     -0.0003
     96  CZ       193.5740  -65.8000   -5.2530 C.ar  161  PHE161     -0.0000
@<TRIPOS>BOND
     1    18    17    1
     2    10    11   ar
     3    10     8   ar
     4    11     9   ar
     5    19    17    1
     6    17    16    1
     7     8     6   ar
     8     9     7   ar
     9    16    13    1
    10     6     7   ar
    11     6     5    1
    12    89    88    2
    13     5     2    1
    14    88    87    1
    15    15    14    2
    16    13    14    1
    17    13    12    1
    18    80    79    2
    19    26    25    1
    20     4     3    2
    21     3     2    1
    22    87    90    1
    23    87    86    1
    24    24    25    1
    25    24    21    1
    26     2     1    1
    27    22    23    2
    28    22    21    1
    29    90    91    1
    30    25    27    1
    31    79    86   am
    32    79    78    1
    33    92    91   ar
    34    92    94   ar
    35    21    20    1
    36    73    72    2
    37    60    58    1
    38    91    93   ar
    39    94    96   ar
    40    55    56    2
    41    55    54    1
    42    78    81    1
    43    78    77    1
    44    64    63    2
    45    58    57    1
    46    58    59    1
    47    72    77   am
    48    72    71    1
    49    39    40    1
    50    57    54    1
    51    30    31    2
    52    30    29    1
    53    93    95   ar
    54    81    82    1
    55    82    83    1
    56    54    53    1
    57    96    95   ar
    58    53    41   am
    59    28    29    1
    60    61    62    1
    61    71    70    1
    62    71    74    1
    63    63    70   am
    64    63    62    1
    65    41    40    1
    66    41    42    2
    67    29    32    1
    68    40    43    1
    69    35    37   ar
    70    35    33   ar
    71    32    33    1
    72    83    84    1
    73    70    76    1
    74    37    38   ar
    75    62    65    1
    76    84    85    1
    77    33    34   ar
    78    74    75    1
    79    65    66    1
    80    43    44    1
    81    66    67    1
    82    38    36   ar
    83    76    75    1
    84    34    36   ar
    85    69    67   am
    86    44    46   ar
    87    44    45   ar
    88    67    68    2
    89    49    46   ar
    90    49    51   ar
    91    46    48   ar
    92    45    47   ar
    93    51    52   ar
    94    48    47   ar
    95    48    50   ar
    96    52    50   ar
