@<TRIPOS>MOLECULE
tmp/5oy0I02.pdb
 87 81 0 0 0
SMALL
GASTEIGER

@<TRIPOS>ATOM
      1  N         76.6380  -60.7510    0.4410 N.3    22  CYS22      -0.1235
      2  CA        78.0420  -60.4260    0.2150 C.3    22  CYS22       0.1677
      3  C         78.1850  -59.1450   -0.5950 C.2    22  CYS22       0.2270
      4  O         79.1030  -58.3500   -0.3610 O.2    22  CYS22      -0.2867
      5  CB        78.7440  -61.5890   -0.4850 C.3    22  CYS22       0.0956
      6  SG        78.7720  -63.1120    0.4760 S.3    22  CYS22      -0.0801
      7  N         77.6620  -56.3420    1.7830 N.3    25  PHE25      -0.1241
      8  CA        78.8630  -56.1880    2.6010 C.3    25  PHE25       0.1605
      9  C         79.9570  -55.4490    1.8370 C.2    25  PHE25       0.2264
     10  O         80.6300  -54.5690    2.3930 O.2    25  PHE25      -0.2867
     11  CB        79.3550  -57.5580    3.0730 C.3    25  PHE25       0.0534
     12  CG        80.7650  -57.5520    3.6030 C.ar   25  PHE25      -0.0203
     13  CD1       81.0380  -57.1180    4.8910 C.ar   25  PHE25      -0.0042
     14  CD2       81.8180  -57.9870    2.8120 C.ar   25  PHE25      -0.0042
     15  CE1       82.3360  -57.1130    5.3780 C.ar   25  PHE25      -0.0003
     16  CE2       83.1170  -57.9830    3.2910 C.ar   25  PHE25      -0.0003
     17  CZ        83.3760  -57.5460    4.5760 C.ar   25  PHE25      -0.0000
     18  N         81.8350  -51.8990    2.9570 N.3    29  ILE29      -0.1245
     19  CA        83.2560  -51.6370    3.1900 C.3    29  ILE29       0.1561
     20  C         83.8290  -50.7400    2.0970 C.2    29  ILE29       0.2260
     21  O         84.7920  -50.0050    2.3410 O.2    29  ILE29      -0.2867
     22  CB        84.0840  -52.9320    3.3550 C.3    29  ILE29       0.0252
     23  CG1       84.8790  -53.2660    2.0900 C.3    29  ILE29       0.0019
     24  CG2       83.2240  -54.0880    3.8220 C.3    29  ILE29       0.0019
     25  CD1       86.3760  -53.2850    2.3190 C.3    29  ILE29       0.0001
     26  N         85.6370  -47.2750    2.7210 N.3    33  ALA33      -0.1231
     27  CA        87.0510  -47.5320    2.4650 C.3    33  ALA33       0.1694
     28  C         87.6030  -46.9730    1.1590 C.2    33  ALA33       0.2592
     29  O         88.8290  -46.9340    1.0100 O.2    33  ALA33      -0.2718
     30  CB        87.3320  -49.0430    2.4930 C.3    33  ALA33       0.0304
     31  N         86.7670  -46.5580    0.2130 N.am   34  ILE34      -0.1966
     32  CA        87.2670  -46.0850   -1.0760 C.3    34  ILE34       0.1727
     33  C         87.6320  -44.6110   -0.9530 C.2    34  ILE34       0.2616
     34  O         86.7960  -43.7860   -0.5730 O.2    34  ILE34      -0.2715
     35  CB        86.2350  -46.3100   -2.1920 C.3    34  ILE34       0.0290
     36  CG1       85.9030  -47.7950   -2.3260 C.3    34  ILE34       0.0022
     37  CG2       86.7550  -45.7770   -3.5210 C.3    34  ILE34       0.0023
     38  CD1       84.7990  -48.0850   -3.3190 C.3    34  ILE34       0.0001
     39  N         88.8840  -44.2800   -1.2840 N.am   35  GLN35      -0.1977
     40  CA        89.3500  -42.8990   -1.1870 C.3    35  GLN35       0.1601
     41  C         88.5860  -41.9890   -2.1410 C.2    35  GLN35       0.2287
     42  O         88.0360  -40.9600   -1.7320 O.2    35  GLN35      -0.2864
     43  CB        90.8500  -42.8300   -1.4820 C.3    35  GLN35       0.0394
     44  CG        91.6800  -43.9060   -0.8080 C.3    35  GLN35       0.0908
     45  CD        92.0320  -43.5730    0.6270 C.2    35  GLN35       0.2608
     46  OE1       91.8670  -42.4360    1.0750 O.2    35  GLN35      -0.2717
     47  NE2       92.5270  -44.5670    1.3580 N.am   35  GLN35      -0.0878
     48  N         82.7690  -51.2950   -9.1990 N.3    61  ALA61      -0.1245
     49  CA        83.8830  -51.9680   -8.5420 C.3    61  ALA61       0.1562
     50  C         83.4280  -52.6830   -7.2820 C.2    61  ALA61       0.2260
     51  O         83.7940  -53.8410   -7.0500 O.2    61  ALA61      -0.2867
     52  CB        84.9890  -50.9660   -8.2160 C.3    61  ALA61       0.0290
     53  N         83.5120  -56.6870   -6.6140 N.3    65  PHE65      -0.1241
     54  CA        84.0870  -57.2250   -5.3870 C.3    65  PHE65       0.1605
     55  C         83.0690  -58.0530   -4.6180 C.2    65  PHE65       0.2264
     56  O         83.4090  -59.0990   -4.0510 O.2    65  PHE65      -0.2867
     57  CB        84.6180  -56.0890   -4.5180 C.3    65  PHE65       0.0534
     58  CG        85.3120  -56.5550   -3.2730 C.ar   65  PHE65      -0.0203
     59  CD1       86.4280  -57.3720   -3.3500 C.ar   65  PHE65      -0.0042
     60  CD2       84.8560  -56.1640   -2.0250 C.ar   65  PHE65      -0.0042
     61  CE1       87.0720  -57.7990   -2.2020 C.ar   65  PHE65      -0.0003
     62  CE2       85.4970  -56.5830   -0.8720 C.ar   65  PHE65      -0.0003
     63  CZ        86.6060  -57.4020   -0.9600 C.ar   65  PHE65      -0.0000
     64  N         82.9480  -61.3750   -6.3430 N.3    68  ILE68      -0.1231
     65  CA        84.0810  -62.2040   -5.9370 C.3    68  ILE68       0.1692
     66  C         83.8240  -62.8080   -4.5590 C.2    68  ILE68       0.2591
     67  O         83.9760  -64.0210   -4.3460 O.2    68  ILE68      -0.2718
     68  CB        85.3830  -61.3830   -5.9640 C.3    68  ILE68       0.0266
     69  CG1       85.6770  -60.9090   -7.3870 C.3    68  ILE68       0.0019
     70  CG2       86.5430  -62.1980   -5.4090 C.3    68  ILE68       0.0020
     71  CD1       87.0150  -60.2170   -7.5340 C.3    68  ILE68       0.0001
     72  N         83.4140  -61.9650   -3.6070 N.am   69  LEU69      -0.1980
     73  CA        83.0770  -62.4360   -2.2660 C.3    69  LEU69       0.1596
     74  C         81.9820  -63.4960   -2.3050 C.2    69  LEU69       0.2287
     75  O         82.0820  -64.5330   -1.6400 O.2    69  LEU69      -0.2864
     76  CB        82.6370  -61.2580   -1.3980 C.3    69  LEU69       0.0297
     77  CG        83.7120  -60.3450   -0.8210 C.3    69  LEU69       0.0022
     78  CD1       83.0730  -59.0740   -0.3030 C.3    69  LEU69       0.0001
     79  CD2       84.4470  -61.0620    0.2940 C.3    69  LEU69       0.0001
     80  N         82.1530  -67.3780   -1.2040 N.3    73  MET73      -0.1245
     81  CA        81.3800  -67.8360   -0.0540 C.3    73  MET73       0.1570
     82  C         80.3990  -68.9420   -0.4330 C.2    73  MET73       0.2261
     83  O         80.2620  -69.9280    0.3010 O.2    73  MET73      -0.2867
     84  CB        80.6480  -66.6600    0.5870 C.3    73  MET73       0.0387
     85  CG        79.9600  -67.0320    1.8830 C.3    73  MET73       0.0595
     86  SD        79.7270  -65.6340    2.9880 S.3    73  MET73      -0.1393
     87  CE        79.5260  -66.4890    4.5480 C.3    73  MET73       0.0692
@<TRIPOS>BOND
     1    48    49    1
     2    49    52    1
     3    49    50    1
     4    71    69    1
     5    69    68    1
     6    50    51    2
     7    53    54    1
     8    64    65    1
     9    68    65    1
    10    68    70    1
    11    65    66    1
    12    54    55    1
    13    54    57    1
    14    55    56    2
    15    66    67    2
    16    66    72   am
    17    57    58    1
    18    72    73    1
    19    37    35    1
    20    59    58   ar
    21    59    61   ar
    22    38    36    1
    23    58    60   ar
    24    36    35    1
    25    74    73    1
    26    74    75    2
    27    73    76    1
    28    61    63   ar
    29    35    32    1
    30    41    42    2
    31    41    40    1
    32    60    62   ar
    33    43    40    1
    34    43    44    1
    35    76    77    1
    36    39    40    1
    37    39    33   am
    38    80    81    1
    39    32    33    1
    40    32    31    1
    41    63    62   ar
    42    33    34    2
    43    77    78    1
    44    77    79    1
    45    44    45    1
    46     3     4    2
    47     3     2    1
    48     5     2    1
    49     5     6    1
    50    82    81    1
    51    82    83    2
    52    81    84    1
    53    31    28   am
    54     2     1    1
    55    84    85    1
    56    45    46    2
    57    45    47   am
    58    29    28    2
    59    28    27    1
    60     7     8    1
    61     9    10    2
    62     9     8    1
    63    85    86    1
    64    23    25    1
    65    23    22    1
    66    20    21    2
    67    20    19    1
    68    27    30    1
    69    27    26    1
    70     8    11    1
    71    14    16   ar
    72    14    12   ar
    73    18    19    1
    74    86    87    1
    75    11    12    1
    76    19    22    1
    77    16    17   ar
    78    22    24    1
    79    12    13   ar
    80    17    15   ar
    81    13    15   ar
