@<TRIPOS>MOLECULE
tmp/5oy0M21.pdb
 109 101 0 0 0
SMALL
GASTEIGER

@<TRIPOS>ATOM
      1  N         80.6870  -44.0890   34.0650 N.3   299  ILE299     -0.1245
      2  CA        80.8480  -44.6510   35.4050 C.3   299  ILE299      0.1561
      3  C         80.8820  -43.5400   36.4480 C.2   299  ILE299      0.2260
      4  O         80.3430  -43.6830   37.5540 O.2   299  ILE299     -0.2867
      5  CB        82.1150  -45.5250   35.4590 C.3   299  ILE299      0.0252
      6  CG1       82.0110  -46.6630   34.4410 C.3   299  ILE299      0.0019
      7  CG2       82.3370  -46.0750   36.8640 C.3   299  ILE299      0.0019
      8  CD1       83.2980  -47.4090   34.2340 C.3   299  ILE299      0.0001
      9  N         77.3440  -42.4930   37.3170 N.3   302  ILE302     -0.1231
     10  CA        76.6870  -43.5100   38.1340 C.3   302  ILE302      0.1692
     11  C         77.1550  -43.4090   39.5790 C.2   302  ILE302      0.2591
     12  O         76.3460  -43.4050   40.5140 O.2   302  ILE302     -0.2718
     13  CB        76.9450  -44.9130   37.5600 C.3   302  ILE302      0.0266
     14  CG1       76.5390  -44.9740   36.0910 C.3   302  ILE302      0.0019
     15  CG2       76.1820  -45.9550   38.3530 C.3   302  ILE302      0.0020
     16  CD1       76.7610  -46.3290   35.4740 C.3   302  ILE302      0.0001
     17  N         78.4730  -43.3230   39.7830 N.am  303  LEU303     -0.1980
     18  CA        79.0050  -43.2420   41.1390 C.3   303  LEU303      0.1596
     19  C         78.5570  -41.9620   41.8360 C.2   303  LEU303      0.2287
     20  O         78.1880  -41.9870   43.0160 O.2   303  LEU303     -0.2864
     21  CB        80.5300  -43.3360   41.1090 C.3   303  LEU303      0.0297
     22  CG        81.1050  -44.7100   40.7570 C.3   303  LEU303      0.0022
     23  CD1       82.5840  -44.6030   40.4320 C.3   303  LEU303      0.0001
     24  CD2       80.8740  -45.7000   41.8940 C.3   303  LEU303      0.0001
     25  N         74.8660  -41.8890   43.3050 N.3   306  HIS306     -0.1241
     26  CA        74.4960  -42.8250   44.3650 C.3   306  HIS306      0.1621
     27  C         74.9290  -42.2600   45.7160 C.2   306  HIS306      0.2264
     28  O         75.9690  -42.6220   46.2680 O.2   306  HIS306     -0.2867
     29  CB        75.1120  -44.1920   44.1050 C.3   306  HIS306      0.0745
     30  CG        74.4860  -44.9240   42.9650 C.ar  306  HIS306      0.0817
     31  ND1       74.5390  -44.4660   41.6650 N.ar  306  HIS306     -0.2268
     32  CD2       73.7780  -46.0770   42.9300 C.ar  306  HIS306      0.1154
     33  CE1       73.8950  -45.3090   40.8790 C.ar  306  HIS306      0.1986
     34  NE2       73.4270  -46.2960   41.6210 N.ar  306  HIS306     -0.2212
     35  N         74.9390  -42.1030   54.2850 N.3   311  THR311     -0.1218
     36  CA        76.2980  -42.4050   53.8480 C.3   311  THR311      0.1862
     37  C         77.0420  -41.1560   53.3910 C.2   311  THR311      0.2287
     38  O         78.0550  -41.2700   52.6930 O.2   311  THR311     -0.2866
     39  CB        76.2990  -43.4460   52.7270 C.3   311  THR311      0.1770
     40  OG1       75.2990  -43.1080   51.7580 O.3   311  THR311     -0.2211
     41  CG2       76.0340  -44.8330   53.2910 C.3   311  THR311      0.0375
     42  N         79.2880  -42.1360   46.7520 N.3   315  HIS315     -0.1241
     43  CA        80.4140  -42.6000   45.9530 C.3   315  HIS315      0.1621
     44  C         81.0770  -41.4690   45.1780 C.2   315  HIS315      0.2264
     45  O         81.7830  -41.7340   44.2000 O.2   315  HIS315     -0.2867
     46  CB        79.9750  -43.6940   44.9780 C.3   315  HIS315      0.0745
     47  CG        79.1930  -44.8020   45.6090 C.ar  315  HIS315      0.0817
     48  ND1       77.8460  -44.7020   45.8780 N.ar  315  HIS315     -0.2268
     49  CD2       79.5660  -46.0410   46.0100 C.ar  315  HIS315      0.1154
     50  CE1       77.4230  -45.8270   46.4240 C.ar  315  HIS315      0.1986
     51  NE2       78.4470  -46.6550   46.5170 N.ar  315  HIS315     -0.2212
     52  N         84.7010  -41.3510   43.4950 N.3   318  LEU318     -0.1245
     53  CA        85.2960  -42.6830   43.5180 C.3   318  LEU318      0.1561
     54  C         85.8530  -43.0680   42.1580 C.2   318  LEU318      0.2260
     55  O         86.7940  -43.8650   42.0770 O.2   318  LEU318     -0.2867
     56  CB        84.2720  -43.7220   43.9720 C.3   318  LEU318      0.0270
     57  CG        83.9920  -43.7950   45.4700 C.3   318  LEU318      0.0019
     58  CD1       83.2660  -45.0900   45.7990 C.3   318  LEU318      0.0001
     59  CD2       85.2860  -43.6780   46.2610 C.3   318  LEU318      0.0001
     60  N         89.6290  -44.4210   42.1010 N.3   322  ILE322     -0.1245
     61  CA        90.0410  -45.7280   41.6080 C.3   322  ILE322      0.1561
     62  C         90.8490  -45.5970   40.3220 C.2   322  ILE322      0.2260
     63  O         91.8490  -46.2980   40.1320 O.2   322  ILE322     -0.2867
     64  CB        88.8100  -46.6310   41.4170 C.3   322  ILE322      0.0252
     65  CG1       88.0390  -46.7600   42.7310 C.3   322  ILE322      0.0019
     66  CG2       89.2280  -47.9980   40.9280 C.3   322  ILE322      0.0019
     67  CD1       86.7700  -47.5730   42.6070 C.3   322  ILE322      0.0001
     68  N         94.6670  -49.2720   44.3480 N.3   328  PHE328     -0.1241
     69  CA        93.2400  -49.5650   44.4810 C.3   328  PHE328      0.1605
     70  C         92.7940  -50.5800   43.4290 C.2   328  PHE328      0.2264
     71  O         92.1250  -51.5740   43.7480 O.2   328  PHE328     -0.2867
     72  CB        92.4450  -48.2600   44.3570 C.3   328  PHE328      0.0534
     73  CG        91.0820  -48.2880   45.0020 C.ar  328  PHE328     -0.0203
     74  CD1       90.6940  -47.2620   45.8490 C.ar  328  PHE328     -0.0042
     75  CD2       90.1770  -49.3040   44.7370 C.ar  328  PHE328     -0.0042
     76  CE1       89.4430  -47.2600   46.4400 C.ar  328  PHE328     -0.0003
     77  CE2       88.9210  -49.3080   45.3240 C.ar  328  PHE328     -0.0003
     78  CZ        88.5550  -48.2840   46.1760 C.ar  328  PHE328     -0.0000
     79  N         91.5480  -54.4330   44.2100 N.3   332  LEU332     -0.1245
     80  CA        90.2550  -54.9330   43.7460 C.3   332  LEU332      0.1561
     81  C         90.4200  -56.1900   42.8990 C.2   332  LEU332      0.2260
     82  O         89.7220  -57.1930   43.1070 O.2   332  LEU332     -0.2867
     83  CB        89.5270  -53.8510   42.9480 C.3   332  LEU332      0.0270
     84  CG        88.8980  -52.6990   43.7240 C.3   332  LEU332      0.0019
     85  CD1       88.2230  -51.7470   42.7580 C.3   332  LEU332      0.0001
     86  CD2       87.9010  -53.2290   44.7400 C.3   332  LEU332      0.0001
     87  N         81.9370  -42.8850   51.1410 N.3   403  VAL403     -0.1231
     88  CA        81.9940  -44.1640   51.8480 C.3   403  VAL403      0.1692
     89  C         83.4370  -44.5400   52.1720 C.2   403  VAL403      0.2591
     90  O         83.7240  -45.0960   53.2410 O.2   403  VAL403     -0.2718
     91  CB        81.2840  -45.2590   51.0290 C.3   403  VAL403      0.0266
     92  CG1       79.7820  -45.0110   51.0060 C.3   403  VAL403      0.0020
     93  CG2       81.8350  -45.3150   49.6070 C.3   403  VAL403      0.0020
     94  N         84.3680  -44.2300   51.2640 N.am  404  LEU404     -0.1980
     95  CA        85.7790  -44.5250   51.4990 C.3   404  LEU404      0.1596
     96  C         86.2810  -43.8310   52.7600 C.2   404  LEU404      0.2287
     97  O         86.8560  -44.4700   53.6500 O.2   404  LEU404     -0.2864
     98  CB        86.6080  -44.0940   50.2870 C.3   404  LEU404      0.0297
     99  CG        87.7510  -44.9840   49.7930 C.3   404  LEU404      0.0022
    100  CD1       88.8300  -44.1330   49.1260 C.3   404  LEU404      0.0001
    101  CD2       88.3330  -45.8540   50.9020 C.3   404  LEU404      0.0001
    102  N         84.7410  -45.0380   56.0110 N.3   407  MET407     -0.1245
    103  CA        85.3300  -46.2610   56.5480 C.3   407  MET407      0.1570
    104  C         86.4710  -45.9460   57.5080 C.2   407  MET407      0.2261
    105  O         86.6370  -46.6220   58.5300 O.2   407  MET407     -0.2867
    106  CB        85.8090  -47.1570   55.4100 C.3   407  MET407      0.0387
    107  CG        84.6830  -47.6540   54.5360 C.3   407  MET407      0.0595
    108  SD        83.4470  -48.5600   55.4740 S.3   407  MET407     -0.1393
    109  CE        84.4260  -49.9110   56.1190 C.3   407  MET407      0.0692
@<TRIPOS>BOND
     1     1     2    1
     2     8     6    1
     3     6     5    1
     4     2     5    1
     5     2     3    1
     6     5     7    1
     7    16    14    1
     8    14    13    1
     9     3     4    2
    10     9    10    1
    11    13    10    1
    12    13    15    1
    13    10    11    1
    14    11    17   am
    15    11    12    2
    16    17    18    1
    17    63    62    2
    18    62    61    1
    19    23    22    1
    20    22    21    1
    21    22    24    1
    22    33    34   ar
    23    33    31   ar
    24    66    64    1
    25    21    18    1
    26    18    19    1
    27    64    61    1
    28    64    65    1
    29    61    60    1
    30    34    32   ar
    31    31    30   ar
    32    19    20    2
    33    55    54    2
    34    54    53    1
    35    67    65    1
    36    85    84    1
    37    81    82    2
    38    81    80    1
    39    32    30   ar
    40    83    84    1
    41    83    80    1
    42    30    29    1
    43    25    26    1
    44    70    71    2
    45    70    69    1
    46    52    53    1
    47    53    56    1
    48    84    86    1
    49    80    79    1
    50    56    57    1
    51    29    26    1
    52    45    44    2
    53    68    69    1
    54    72    69    1
    55    72    73    1
    56    26    27    1
    57    75    73   ar
    58    75    77   ar
    59    46    47    1
    60    46    43    1
    61    73    74   ar
    62    44    43    1
    63    77    78   ar
    64    57    58    1
    65    57    59    1
    66    47    48   ar
    67    47    49   ar
    68    27    28    2
    69    74    76   ar
    70    48    50   ar
    71    43    42    1
    72    49    51   ar
    73    78    76   ar
    74    50    51   ar
    75   100    99    1
    76    93    91    1
    77    99    98    1
    78    99   101    1
    79    98    95    1
    80    92    91    1
    81    91    88    1
    82    87    88    1
    83    94    95    1
    84    94    89   am
    85    95    96    1
    86    40    39    1
    87    88    89    1
    88    89    90    2
    89    38    37    2
    90    39    41    1
    91    39    36    1
    92    96    97    2
    93    37    36    1
    94    36    35    1
    95   107   106    1
    96   107   108    1
    97   106   103    1
    98   108   109    1
    99   102   103    1
   100   103   104    1
   101   104   105    2
