@<TRIPOS>MOLECULE
tmp/5oy0A40.pdb
 124 121 0 0 0
SMALL
GASTEIGER

@<TRIPOS>ATOM
      1  N        123.9370  -86.1220    2.4980 N.3   479  GLN479     -0.1245
      2  CA       122.5570  -86.3150    2.0510 C.3   479  GLN479      0.1566
      3  C        121.8140  -84.9840    2.0250 C.2   479  GLN479      0.2260
      4  O        121.8610  -84.2360    3.0080 O.2   479  GLN479     -0.2867
      5  CB       121.8190  -87.3020    2.9570 C.3   479  GLN479      0.0367
      6  CG       122.2990  -88.7400    2.8390 C.3   479  GLN479      0.0905
      7  CD       122.1100  -89.3060    1.4410 C.2   479  GLN479      0.2608
      8  OE1      121.2290  -88.8750    0.6980 O.2   479  GLN479     -0.2717
      9  NE2      122.9440  -90.2760    1.0760 N.am  479  GLN479     -0.0878
     10  N        118.8870  -83.6830    2.8060 N.3   481  ILE481     -0.1231
     11  CA       117.7330  -84.2040    3.5330 C.3   481  ILE481      0.1692
     12  C        116.5290  -83.2770    3.4190 C.2   481  ILE481      0.2592
     13  O        115.3800  -83.7280    3.5120 O.2   481  ILE481     -0.2718
     14  CB       118.1140  -84.4700    5.0000 C.3   481  ILE481      0.0266
     15  CG1      118.6110  -83.1910    5.6730 C.3   481  ILE481      0.0019
     16  CG2      119.1810  -85.5540    5.0750 C.3   481  ILE481      0.0020
     17  CD1      118.8200  -83.3360    7.1650 C.3   481  ILE481      0.0001
     18  N        116.7560  -81.9830    3.1960 N.am  482  PHE482     -0.1976
     19  CA       115.6330  -81.0620    3.0680 C.3   482  PHE482      0.1639
     20  C        114.9090  -81.2550    1.7410 C.2   482  PHE482      0.2290
     21  O        113.6720  -81.2260    1.6910 O.2   482  PHE482     -0.2864
     22  CB       116.1200  -79.6240    3.2240 C.3   482  PHE482      0.0560
     23  CG       116.8600  -79.3770    4.5060 C.ar  482  PHE482     -0.0200
     24  CD1      116.2360  -79.5650    5.7290 C.ar  482  PHE482     -0.0042
     25  CD2      118.1780  -78.9520    4.4890 C.ar  482  PHE482     -0.0042
     26  CE1      116.9130  -79.3370    6.9110 C.ar  482  PHE482     -0.0003
     27  CE2      118.8610  -78.7260    5.6660 C.ar  482  PHE482     -0.0003
     28  CZ       118.2280  -78.9180    6.8790 C.ar  482  PHE482     -0.0000
     29  N        114.8750  -84.0980    0.0690 N.3   484  GLN484     -0.1231
     30  CA       114.1920  -85.3770    0.2500 C.3   484  GLN484      0.1698
     31  C        112.8940  -85.2000    1.0260 C.2   484  GLN484      0.2592
     32  O        111.8660  -85.8060    0.6920 O.2   484  GLN484     -0.2718
     33  CB       115.1120  -86.3630    0.9770 C.3   484  GLN484      0.0381
     34  CG       116.4440  -86.6200    0.2850 C.3   484  GLN484      0.0905
     35  CD       117.4640  -87.3150    1.1830 C.2   484  GLN484      0.2608
     36  OE1      117.3790  -87.2540    2.4110 O.2   484  GLN484     -0.2717
     37  NE2      118.4400  -87.9750    0.5660 N.am  484  GLN484     -0.0878
     38  N        112.9240  -84.3600    2.0640 N.am  485  TRP485     -0.1976
     39  CA       111.7370  -84.1290    2.8770 C.3   485  TRP485      0.1640
     40  C        110.6460  -83.4250    2.0750 C.2   485  TRP485      0.2290
     41  O        109.4680  -83.7940    2.1650 O.2   485  TRP485     -0.2864
     42  CB       112.1200  -83.3310    4.1250 C.3   485  TRP485      0.0576
     43  CG       110.9730  -83.0060    5.0330 C.ar  485  TRP485      0.0006
     44  CD1      110.2180  -83.8870    5.7520 C.ar  485  TRP485      0.0946
     45  CD2      110.4620  -81.7020    5.3320 C.ar  485  TRP485      0.0152
     46  NE1      109.2610  -83.2120    6.4720 N.ar  485  TRP485     -0.2442
     47  CE2      109.3890  -81.8700    6.2320 C.ar  485  TRP485      0.0810
     48  CE3      110.8040  -80.4090    4.9240 C.ar  485  TRP485      0.0012
     49  CZ2      108.6580  -80.7930    6.7310 C.ar  485  TRP485      0.0191
     50  CZ3      110.0770  -79.3420    5.4190 C.ar  485  TRP485      0.0001
     51  CH2      109.0160  -79.5410    6.3130 C.ar  485  TRP485      0.0015
     52  N        110.3050  -83.5440   -1.1930 N.3   487  GLN487     -0.1231
     53  CA       109.8150  -84.5330   -2.1500 C.3   487  GLN487      0.1698
     54  C        108.7930  -85.4590   -1.5050 C.2   487  GLN487      0.2592
     55  O        107.7510  -85.7700   -2.1020 O.2   487  GLN487     -0.2718
     56  CB       110.9790  -85.3490   -2.7110 C.3   487  GLN487      0.0381
     57  CG       111.8030  -84.6450   -3.7690 C.3   487  GLN487      0.0905
     58  CD       112.8270  -85.5680   -4.4020 C.2   487  GLN487      0.2608
     59  OE1      113.1950  -86.5930   -3.8270 O.2   487  GLN487     -0.2717
     60  NE2      113.2860  -85.2140   -5.5960 N.am  487  GLN487     -0.0878
     61  N        109.0820  -85.9140   -0.2850 N.am  488  HIS488     -0.1962
     62  CA       108.1220  -86.7360    0.4430 C.3   488  HIS488      0.1787
     63  C        106.8250  -85.9740    0.6840 C.2   488  HIS488      0.2620
     64  O        105.7310  -86.5300    0.5290 O.2   488  HIS488     -0.2715
     65  CB       108.7360  -87.2010    1.7640 C.3   488  HIS488      0.0785
     66  CG       107.8730  -88.1510    2.5310 C.ar  488  HIS488      0.0821
     67  ND1      107.2570  -89.2360    1.9450 N.ar  488  HIS488     -0.2267
     68  CD2      107.5240  -88.1810    3.8380 C.ar  488  HIS488      0.1154
     69  CE1      106.5640  -89.8920    2.8580 C.ar  488  HIS488      0.1986
     70  NE2      106.7110  -89.2740    4.0160 N.ar  488  HIS488     -0.2212
     71  N        106.9290  -84.6950    1.0560 N.am  489  LEU489     -0.1977
     72  CA       105.7370  -83.8780    1.2640 C.3   489  LEU489      0.1596
     73  C        104.8990  -83.7900   -0.0050 C.2   489  LEU489      0.2287
     74  O        103.6670  -83.8830    0.0470 O.2   489  LEU489     -0.2864
     75  CB       106.1340  -82.4810    1.7410 C.3   489  LEU489      0.0297
     76  CG       106.5840  -82.3770    3.1980 C.3   489  LEU489      0.0022
     77  CD1      107.1900  -81.0120    3.4850 C.3   489  LEU489      0.0001
     78  CD2      105.4050  -82.6350    4.1080 C.3   489  LEU489      0.0001
     79  N        103.0790  -87.1620   -0.5130 N.3   492  LEU492     -0.1245
     80  CA       101.9500  -87.3210    0.3910 C.3   492  LEU492      0.1561
     81  C        100.8220  -86.3450    0.0960 C.2   492  LEU492      0.2260
     82  O         99.6900  -86.5730    0.5410 O.2   492  LEU492     -0.2867
     83  CB       102.4080  -87.1340    1.8370 C.3   492  LEU492      0.0270
     84  CG       103.4820  -88.0950    2.3400 C.3   492  LEU492      0.0019
     85  CD1      103.7960  -87.8100    3.7980 C.3   492  LEU492      0.0001
     86  CD2      103.0370  -89.5390    2.1450 C.3   492  LEU492      0.0001
     87  N         96.5230  -85.5440    1.4030 N.3   496  ALA496     -0.1231
     88  CA        96.4420  -84.7730    2.6380 C.3   496  ALA496      0.1694
     89  C         96.3010  -83.2840    2.3580 C.2   496  ALA496      0.2592
     90  O         95.2070  -82.7210    2.4730 O.2   496  ALA496     -0.2718
     91  CB        97.6750  -85.0280    3.5080 C.3   496  ALA496      0.0304
     92  N         97.4050  -82.6380    1.9970 N.am  497  THR497     -0.1953
     93  CA        97.4200  -81.2050    1.7530 C.3   497  THR497      0.1897
     94  C         97.1240  -80.8550    0.2950 C.2   497  THR497      0.2313
     95  O         97.4650  -79.7600   -0.1600 O.2   497  THR497     -0.2863
     96  CB        98.7630  -80.6280    2.1910 C.3   497  THR497      0.1794
     97  OG1       99.8140  -81.3260    1.5160 O.3   497  THR497     -0.2208
     98  CG2       98.9340  -80.8080    3.6900 C.3   497  THR497      0.0378
     99  N        109.1540  -85.9950   -7.9300 N.3   509  PHE509     -0.1241
    100  CA       109.1530  -85.9800   -6.4710 C.3   509  PHE509      0.1605
    101  C        108.9620  -87.3710   -5.8830 C.2   509  PHE509      0.2264
    102  O        109.3010  -87.5900   -4.7140 O.2   509  PHE509     -0.2867
    103  CB       108.0550  -85.0530   -5.9320 C.3   509  PHE509      0.0534
    104  CG       108.1320  -83.6360   -6.4410 C.ar  509  PHE509     -0.0203
    105  CD1      109.2590  -82.8550   -6.2160 C.ar  509  PHE509     -0.0042
    106  CD2      107.0610  -83.0750   -7.1240 C.ar  509  PHE509     -0.0042
    107  CE1      109.3240  -81.5460   -6.6830 C.ar  509  PHE509     -0.0003
    108  CE2      107.1170  -81.7690   -7.5890 C.ar  509  PHE509     -0.0003
    109  CZ       108.2490  -81.0020   -7.3650 C.ar  509  PHE509     -0.0000
    110  N        115.6120  -89.3860   -7.5130 N.3   526  THR526     -0.1203
    111  CA       116.1680  -89.4310   -6.1720 C.3   526  THR526      0.1994
    112  C        117.3970  -88.5350   -6.0610 C.2   526  THR526      0.2617
    113  O        118.0880  -88.2590   -7.0460 O.2   526  THR526     -0.2717
    114  CB       116.5230  -90.8680   -5.8040 C.3   526  THR526      0.1784
    115  OG1      117.5610  -91.3400   -6.6720 O.3   526  THR526     -0.2211
    116  CG2      115.2980  -91.7520   -5.9720 C.3   526  THR526      0.0376
    117  N        117.6630  -88.0770   -4.8390 N.am  527  LEU527     -0.1979
    118  CA       118.7210  -87.1120   -4.5820 C.3   527  LEU527      0.1596
    119  C        119.6550  -87.6510   -3.5090 C.2   527  LEU527      0.2287
    120  O        119.2030  -88.0630   -2.4350 O.2   527  LEU527     -0.2864
    121  CB       118.1300  -85.7630   -4.1620 C.3   527  LEU527      0.0297
    122  CG       117.1450  -85.1610   -5.1670 C.3   527  LEU527      0.0022
    123  CD1      116.4070  -84.0000   -4.5480 C.3   527  LEU527      0.0001
    124  CD2      117.8530  -84.7280   -6.4460 C.3   527  LEU527      0.0001
@<TRIPOS>BOND
     1    99   100    1
     2   108   109   ar
     3   108   106   ar
     4   110   111    1
     5   109   107   ar
     6   106   104   ar
     7   113   112    2
     8   107   105   ar
     9   115   114    1
    10   100   103    1
    11   100   101    1
    12   124   122    1
    13   104   105   ar
    14   104   103    1
    15   111   112    1
    16   111   114    1
    17   112   117   am
    18   116   114    1
    19   101   102    2
    20    60    58   am
    21   122   123    1
    22   122   121    1
    23   117   118    1
    24   118   121    1
    25   118   119    1
    26    58    59    2
    27    58    57    1
    28    57    56    1
    29   119   120    2
    30    56    53    1
    31    53    54    1
    32    53    52    1
    33    55    54    2
    34    54    61   am
    35    79    80    1
    36    61    62    1
    37    95    94    2
    38    73    74    2
    39    73    72    1
    40    29    30    1
    41    81    80    1
    42    81    82    2
    43    30    33    1
    44    30    31    1
    45    34    33    1
    46    34    35    1
    47    94    93    1
    48    80    83    1
    49    62    63    1
    50    62    65    1
    51    64    63    2
    52    37    35   am
    53    63    71   am
    54    32    31    2
    55     8     7    2
    56    31    38   am
    57    71    72    1
    58     9     7   am
    59    35    36    2
    60    72    75    1
    61    87    88    1
    62     7     6    1
    63    97    96    1
    64    21    20    2
    65    75    76    1
    66    20    19    1
    67    93    92    1
    68    93    96    1
    69    65    66    1
    70    83    84    1
    71    67    66   ar
    72    67    69   ar
    73    92    89   am
    74     3     2    1
    75     3     4    2
    76     2     1    1
    77     2     5    1
    78    38    39    1
    79    40    41    2
    80    40    39    1
    81    86    84    1
    82    96    98    1
    83    84    85    1
    84    89    90    2
    85    89    88    1
    86    66    68   ar
    87    88    91    1
    88    10    11    1
    89     6     5    1
    90    69    70   ar
    91    39    42    1
    92    19    18    1
    93    19    22    1
    94    18    12   am
    95    76    77    1
    96    76    78    1
    97    22    23    1
    98    12    13    2
    99    12    11    1
   100    11    14    1
   101    68    70   ar
   102    42    43    1
   103    25    23   ar
   104    25    27   ar
   105    23    24   ar
   106    48    45   ar
   107    48    50   ar
   108    14    16    1
   109    14    15    1
   110    43    45   ar
   111    43    44   ar
   112    45    47   ar
   113    50    51   ar
   114    27    28   ar
   115    15    17    1
   116    24    26   ar
   117    44    46   ar
   118    47    46   ar
   119    47    49   ar
   120    51    49   ar
   121    28    26   ar
