@<TRIPOS>MOLECULE
tmp/5oy0J17.pdb
 108 106 0 0 0
SMALL
GASTEIGER

@<TRIPOS>ATOM
      1  N        124.3580  -55.0490   14.1490 N.3    24  ILE24      -0.1245
      2  CA       125.4310  -56.0330   14.2320 C.3    24  ILE24       0.1561
      3  C        126.7610  -55.3620   14.5460 C.2    24  ILE24       0.2260
      4  O        127.5590  -55.8900   15.3250 O.2    24  ILE24      -0.2867
      5  CB       125.5040  -56.8690   12.9340 C.3    24  ILE24       0.0252
      6  CG1      124.4810  -58.0070   12.9580 C.3    24  ILE24       0.0019
      7  CG2      126.8830  -57.4650   12.7450 C.3    24  ILE24       0.0019
      8  CD1      123.0710  -57.5870   12.6320 C.3    24  ILE24       0.0001
      9  N        129.6420  -57.5660   24.2510 N.3    33  PHE33      -0.1227
     10  CA       130.0500  -58.9520   24.0470 C.3    33  PHE33       0.1736
     11  C        131.4320  -59.0330   23.4110 C.2    33  PHE33       0.2595
     12  O        132.3100  -59.7480   23.9070 O.2    33  PHE33      -0.2718
     13  CB       129.0060  -59.6840   23.1930 C.3    33  PHE33       0.0547
     14  CG       129.4690  -61.0180   22.6840 C.ar   33  PHE33      -0.0202
     15  CD1      129.5370  -62.1130   23.5280 C.ar   33  PHE33      -0.0042
     16  CD2      129.8470  -61.1740   21.3620 C.ar   33  PHE33      -0.0042
     17  CE1      129.9750  -63.3370   23.0620 C.ar   33  PHE33      -0.0003
     18  CE2      130.2870  -62.3950   20.8920 C.ar   33  PHE33      -0.0003
     19  CZ       130.3520  -63.4770   21.7420 C.ar   33  PHE33      -0.0000
     20  N        131.6410  -58.3100   22.3090 N.am   34  ILE34      -0.1980
     21  CA       132.9670  -58.2200   21.7110 C.3    34  ILE34       0.1595
     22  C        133.9430  -57.5590   22.6760 C.2    34  ILE34       0.2287
     23  O        135.0730  -58.0320   22.8570 O.2    34  ILE34      -0.2864
     24  CB       132.8830  -57.4670   20.3700 C.3    34  ILE34       0.0276
     25  CG1      132.0810  -58.2880   19.3580 C.3    34  ILE34       0.0022
     26  CG2      134.2630  -57.1530   19.8310 C.3    34  ILE34       0.0022
     27  CD1      132.5930  -59.7040   19.1810 C.3    34  ILE34       0.0001
     28  N        135.3070  -60.0660   25.2910 N.3    37  LEU37      -0.1231
     29  CA       136.0850  -61.2170   24.8810 C.3    37  LEU37       0.1678
     30  C        137.5280  -61.0400   25.3530 C.2    37  LEU37       0.2434
     31  O        137.9650  -59.9170   25.6210 O.2    37  LEU37      -0.2733
     32  CB       136.0190  -61.3790   23.3620 C.3    37  LEU37       0.0284
     33  CG       134.7000  -61.8970   22.7760 C.3    37  LEU37       0.0019
     34  CD1      134.6940  -61.7080   21.2720 C.3    37  LEU37       0.0001
     35  CD2      134.4880  -63.3620   23.1170 C.3    37  LEU37       0.0001
     36  N        138.2840  -62.1360   25.4810 N.am   38  PRO38      -0.2718
     37  CA       139.6720  -62.0140   25.9610 C.3    38  PRO38       0.1535
     38  C        140.4990  -61.0040   25.1880 C.2    38  PRO38       0.2598
     39  O        141.4200  -60.4040   25.7560 O.2    38  PRO38      -0.2715
     40  CB       140.2340  -63.4290   25.7850 C.3    38  PRO38       0.0310
     41  CG       139.0640  -64.3090   25.6960 C.3    38  PRO38       0.0237
     42  CD       137.9250  -63.5290   25.1620 C.3    38  PRO38       0.0939
     43  N        140.1940  -60.7890   23.9090 N.am   39  ALA39      -0.1978
     44  CA       141.0130  -59.8880   23.1100 C.3    39  ALA39       0.1597
     45  C        140.8980  -58.4470   23.5880 C.2    39  ALA39       0.2287
     46  O        141.8800  -57.6980   23.5380 O.2    39  ALA39      -0.2864
     47  CB       140.6210  -59.9980   21.6370 C.3    39  ALA39       0.0319
     48  N        143.2670  -67.6450   27.5520 N.3    52  GLU52      -0.1231
     49  CA       141.8460  -67.9220   27.3530 C.3    52  GLU52       0.1699
     50  C        141.5440  -68.2610   25.8920 C.2    52  GLU52       0.2592
     51  O        140.8270  -69.2340   25.5990 O.2    52  GLU52      -0.2718
     52  CB       141.0210  -66.7240   27.8210 C.3    52  GLU52       0.0402
     53  CG       139.5530  -67.0170   28.0460 C.3    52  GLU52       0.1161
     54  CD       138.7950  -65.8110   28.5720 C.2    52  GLU52       0.3649
     55  OE1      139.3640  -65.0340   29.3690 O.co2  52  GLU52      -0.2457
     56  OE2      137.6330  -65.6240   28.1620 O.co2  52  GLU52      -0.2457
     57  N        142.0820  -67.4620   24.9620 N.am   53  VAL53      -0.1980
     58  CA       141.8610  -67.7270   23.5410 C.3    53  VAL53       0.1595
     59  C        142.4020  -69.1010   23.1670 C.2    53  VAL53       0.2287
     60  O        141.7530  -69.8700   22.4420 O.2    53  VAL53      -0.2864
     61  CB       142.4970  -66.6170   22.6830 C.3    53  VAL53       0.0276
     62  CG1      142.2930  -66.9090   21.2090 C.3    53  VAL53       0.0022
     63  CG2      141.9140  -65.2600   23.0480 C.3    53  VAL53       0.0022
     64  N        140.0860  -71.9720   24.4800 N.3    56  ALA56      -0.1231
     65  CA       138.9180  -72.1690   23.6230 C.3    56  ALA56       0.1694
     66  C        139.2970  -72.8520   22.3090 C.2    56  ALA56       0.2592
     67  O        138.6690  -73.8420   21.8950 O.2    56  ALA56      -0.2718
     68  CB       138.2380  -70.8260   23.3620 C.3    56  ALA56       0.0304
     69  N        140.3570  -72.3630   21.6610 N.am   57  HIS57      -0.1976
     70  CA       140.7030  -72.8510   20.3310 C.3    57  HIS57       0.1656
     71  C        141.2740  -74.2620   20.3620 C.2    57  HIS57       0.2291
     72  O        140.8950  -75.1060   19.5440 O.2    57  HIS57      -0.2864
     73  CB       141.6810  -71.8930   19.6780 C.3    57  HIS57       0.0771
     74  CG       141.0190  -70.6720   19.1530 C.ar   57  HIS57       0.0820
     75  ND1      140.4300  -69.7370   19.9760 N.ar   57  HIS57      -0.2267
     76  CD2      140.7990  -70.2580   17.8860 C.ar   57  HIS57       0.1154
     77  CE1      139.9040  -68.7800   19.2360 C.ar   57  HIS57       0.1986
     78  NE2      140.1150  -69.0740   17.9660 N.ar   57  HIS57      -0.2212
     79  N        138.4110  -76.7220   20.9630 N.3    60  PHE60      -0.1227
     80  CA       137.4980  -77.0670   19.8760 C.3    60  PHE60       0.1736
     81  C        138.2140  -77.6280   18.6480 C.2    60  PHE60       0.2595
     82  O        137.5750  -78.3060   17.8360 O.2    60  PHE60      -0.2718
     83  CB       136.6030  -75.8640   19.5120 C.3    60  PHE60       0.0547
     84  CG       137.1460  -74.9690   18.4220 C.ar   60  PHE60      -0.0202
     85  CD1      137.0630  -75.3350   17.0840 C.ar   60  PHE60      -0.0042
     86  CD2      137.6780  -73.7310   18.7330 C.ar   60  PHE60      -0.0042
     87  CE1      137.5540  -74.5170   16.0950 C.ar   60  PHE60      -0.0003
     88  CE2      138.1630  -72.9000   17.7410 C.ar   60  PHE60      -0.0003
     89  CZ       138.1000  -73.2940   16.4210 C.ar   60  PHE60      -0.0000
     90  N        139.5190  -77.3920   18.4930 N.am   61  LEU61      -0.1980
     91  CA       140.2140  -77.8630   17.2990 C.3    61  LEU61       0.1596
     92  C        140.4300  -79.3680   17.2790 C.2    61  LEU61       0.2287
     93  O        140.8510  -79.8960   16.2450 O.2    61  LEU61      -0.2864
     94  CB       141.5650  -77.1590   17.1620 C.3    61  LEU61       0.0297
     95  CG       141.5210  -75.7760   16.5130 C.3    61  LEU61       0.0022
     96  CD1      142.8660  -75.0790   16.6240 C.3    61  LEU61       0.0001
     97  CD2      141.0860  -75.8870   15.0570 C.3    61  LEU61       0.0001
     98  N        151.0000  -62.6110   24.5910 N.3   123  PHE123     -0.1241
     99  CA       149.7990  -63.2130   24.0240 C.3   123  PHE123      0.1605
    100  C        150.1200  -64.5460   23.3690 C.2   123  PHE123      0.2264
    101  O        149.3780  -65.5170   23.5320 O.2   123  PHE123     -0.2867
    102  CB       149.1430  -62.2710   23.0100 C.3   123  PHE123      0.0534
    103  CG       147.8080  -62.7630   22.5110 C.ar  123  PHE123     -0.0203
    104  CD1      146.6400  -62.4650   23.2040 C.ar  123  PHE123     -0.0042
    105  CD2      147.7200  -63.5490   21.3690 C.ar  123  PHE123     -0.0042
    106  CE1      145.4120  -62.9320   22.7640 C.ar  123  PHE123     -0.0003
    107  CE2      146.4930  -64.0220   20.9230 C.ar  123  PHE123     -0.0003
    108  CZ       145.3390  -63.7120   21.6230 C.ar  123  PHE123     -0.0000
@<TRIPOS>BOND
     1     8     6    1
     2     7     5    1
     3     5     6    1
     4     5     2    1
     5     1     2    1
     6     2     3    1
     7     3     4    2
     8    97    95    1
     9    87    89   ar
    10    87    85   ar
    11    93    92    2
    12    89    88   ar
    13    95    96    1
    14    95    94    1
    15    85    84   ar
    16    94    91    1
    17    92    91    1
    18    91    90    1
    19    88    86   ar
    20    82    81    2
    21    76    78   ar
    22    76    74   ar
    23    78    77   ar
    24    84    86   ar
    25    84    83    1
    26    90    81   am
    27    81    80    1
    28    74    73    1
    29    74    75   ar
    30    27    25    1
    31    77    75   ar
    32    25    24    1
    33    83    80    1
    34    72    71    2
    35    73    70    1
    36    26    24    1
    37    80    79    1
    38    70    71    1
    39    70    69    1
    40    24    21    1
    41    18    16   ar
    42    18    19   ar
    43   107   105   ar
    44   107   108   ar
    45    62    61    1
    46    34    33    1
    47    16    14   ar
    48   105   103   ar
    49   108   106   ar
    50    47    44    1
    51    69    66   am
    52    21    20    1
    53    21    22    1
    54    19    17   ar
    55    67    66    2
    56    66    65    1
    57    20    11   am
    58    60    59    2
    59   103   102    1
    60   103   104   ar
    61    22    23    2
    62    61    63    1
    63    61    58    1
    64    14    13    1
    65    14    15   ar
    66   106   104   ar
    67    33    35    1
    68    33    32    1
    69   102    99    1
    70    17    15   ar
    71    44    45    1
    72    44    43    1
    73    59    58    1
    74    13    10    1
    75    68    65    1
    76    32    29    1
    77   100   101    2
    78   100    99    1
    79    11    12    2
    80    11    10    1
    81    46    45    2
    82    58    57    1
    83    65    64    1
    84    43    38   am
    85    99    98    1
    86    10     9    1
    87    29    28    1
    88    29    30    1
    89    57    50   am
    90    42    36    1
    91    42    41    1
    92    38    39    2
    93    38    37    1
    94    30    36   am
    95    30    31    2
    96    36    37    1
    97    51    50    2
    98    41    40    1
    99    40    37    1
   100    50    49    1
   101    49    48    1
   102    49    52    1
   103    52    53    1
   104    53    54    1
   105    56    54   ar
   106    54    55   ar
