@<TRIPOS>MOLECULE
tmp/5oy0A00.pdb
 125 121 0 0 0
SMALL
GASTEIGER

@<TRIPOS>ATOM
      1  N         90.4930  -41.3110  -33.5050 N.3     8  ARG8       -0.1245
      2  CA        90.5260  -42.5310  -32.7020 C.3     8  ARG8        0.1563
      3  C         90.9500  -42.2870  -31.2560 C.2     8  ARG8        0.2260
      4  O         91.9490  -42.8470  -30.7930 O.2     8  ARG8       -0.2867
      5  CB        91.4390  -43.5780  -33.3470 C.3     8  ARG8        0.0307
      6  CG        90.6900  -44.7360  -33.9730 C.3     8  ARG8        0.0489
      7  CD        90.2960  -45.7660  -32.9280 C.3     8  ARG8        0.2205
      8  NE        91.4510  -46.5010  -32.4170 N.pl3   8  ARG8       -0.0865
      9  CZ        92.0610  -47.4830  -33.0770 C.cat   8  ARG8        0.5346
     10  NH1       93.1020  -48.1080  -32.5400 N.pl3   8  ARG8        0.1354
     11  NH2       91.6310  -47.8380  -34.2800 N.pl3   8  ARG8        0.1354
     12  N         88.5490  -41.8720  -27.4270 N.3    10  ALA10      -0.1231
     13  CA        87.1940  -41.9330  -26.8650 C.3    10  ALA10       0.1694
     14  C         87.2750  -41.5820  -25.3820 C.2    10  ALA10       0.2592
     15  O         87.2310  -42.4670  -24.5240 O.2    10  ALA10      -0.2718
     16  CB        86.5730  -43.3120  -27.0940 C.3    10  ALA10       0.0304
     17  N         87.3630  -40.2810  -25.0910 N.am   11  LYS11      -0.1966
     18  CA        87.6650  -39.7860  -23.7470 C.3    11  LYS11       0.1728
     19  C         88.8400  -40.5540  -23.1520 C.2    11  LYS11       0.2616
     20  O         88.8220  -40.9780  -21.9940 O.2    11  LYS11      -0.2715
     21  CB        86.4420  -39.8530  -22.8300 C.3    11  LYS11       0.0311
     22  CG        86.2450  -38.6150  -21.9490 C.3    11  LYS11       0.0038
     23  CD        87.5240  -38.1930  -21.2240 C.3    11  LYS11       0.0206
     24  CE        88.0760  -36.8810  -21.7770 C.3    11  LYS11       0.1093
     25  NZ        89.3570  -36.4740  -21.1290 N.3    11  LYS11      -0.1314
     26  N         89.8660  -40.7440  -23.9670 N.am   12  ALA12      -0.1963
     27  CA        91.0370  -41.5100  -23.5880 C.3    12  ALA12       0.1728
     28  C         92.1880  -40.5820  -23.2350 C.2    12  ALA12       0.2616
     29  O         92.2460  -39.4260  -23.6640 O.2    12  ALA12      -0.2715
     30  CB        91.4520  -42.4570  -24.7170 C.3    12  ALA12       0.0334
     31  N         93.1130  -41.1080  -22.4420 N.am   13  LYS13      -0.1963
     32  CA        94.3620  -40.4230  -22.1530 C.3    13  LYS13       0.1728
     33  C         95.3220  -40.4590  -23.3320 C.2    13  LYS13       0.2616
     34  O         96.4890  -40.0670  -23.1970 O.2    13  LYS13      -0.2715
     35  CB        95.0050  -41.0440  -20.9140 C.3    13  LYS13       0.0311
     36  CG        93.9940  -41.5040  -19.8740 C.3    13  LYS13       0.0038
     37  CD        94.6750  -41.8750  -18.5660 C.3    13  LYS13       0.0206
     38  CE        94.6000  -40.7420  -17.5460 C.3    13  LYS13       0.1093
     39  NZ        95.2320  -39.4770  -18.0080 N.3    13  LYS13      -0.1314
     40  N         94.8030  -40.9420  -24.4650 N.am   14  VAL14      -0.1977
     41  CA        95.5620  -40.9580  -25.7070 C.3    14  VAL14       0.1596
     42  C         95.9460  -39.5380  -26.0890 C.2    14  VAL14       0.2287
     43  O         95.1030  -38.6330  -26.1230 O.2    14  VAL14      -0.2864
     44  CB        94.7480  -41.6270  -26.8250 C.3    14  VAL14       0.0276
     45  CG1       95.4720  -41.4950  -28.1580 C.3    14  VAL14       0.0022
     46  CG2       94.4860  -43.0890  -26.4990 C.3    14  VAL14       0.0022
     47  N        101.7450  -40.3730  -22.5650 N.3   189  TRP189     -0.1241
     48  CA       101.0210  -41.6180  -22.8030 C.3   189  TRP189      0.1605
     49  C        101.8070  -42.8240  -22.3010 C.2   189  TRP189      0.2264
     50  O        101.2300  -43.7390  -21.7010 O.2   189  TRP189     -0.2867
     51  CB       100.7040  -41.7560  -24.2940 C.3   189  TRP189      0.0550
     52  CG        99.9940  -43.0290  -24.6720 C.ar  189  TRP189      0.0003
     53  CD1       98.6540  -43.2790  -24.5890 C.ar  189  TRP189      0.0946
     54  CD2      100.5890  -44.2130  -25.2170 C.ar  189  TRP189      0.0152
     55  NE1       98.3800  -44.5490  -25.0390 N.ar  189  TRP189     -0.2442
     56  CE2       99.5520  -45.1440  -25.4270 C.ar  189  TRP189      0.0810
     57  CE3      101.8970  -44.5780  -25.5400 C.ar  189  TRP189      0.0012
     58  CZ2       99.7860  -46.4160  -25.9450 C.ar  189  TRP189      0.0191
     59  CZ3      102.1240  -45.8380  -26.0570 C.ar  189  TRP189      0.0001
     60  CH2      101.0750  -46.7410  -26.2570 C.ar  189  TRP189      0.0015
     61  N        101.7620  -43.7680  -18.4100 N.3   192  ASN192     -0.1240
     62  CA       100.5380  -44.2690  -17.7760 C.3   192  ASN192      0.1653
     63  C        100.7510  -45.7140  -17.3210 C.2   192  ASN192      0.2266
     64  O        100.1770  -46.6650  -17.8570 O.2   192  ASN192     -0.2867
     65  CB        99.3570  -44.1720  -18.7290 C.3   192  ASN192      0.1155
     66  CG        98.8430  -42.7610  -18.8840 C.2   192  ASN192      0.2627
     67  OD1       99.2420  -42.0380  -19.7970 O.2   192  ASN192     -0.2716
     68  ND2       97.9380  -42.3630  -17.9970 N.am  192  ASN192     -0.0877
     69  N         97.5370  -47.7310  -15.8380 N.3   195  SER195     -0.1217
     70  CA        96.6750  -48.2460  -16.8980 C.3   195  SER195      0.1889
     71  C         97.3640  -49.3550  -17.6870 C.2   195  SER195      0.2288
     72  O         96.7440  -50.3770  -18.0090 O.2   195  SER195     -0.2866
     73  CB        96.2580  -47.1020  -17.8210 C.3   195  SER195      0.2089
     74  OG        95.5790  -47.5810  -18.9650 O.3   195  SER195     -0.2183
     75  N         95.9820  -53.2140  -18.0360 N.3   199  HIS199     -0.1241
     76  CA        95.7060  -53.8340  -19.3280 C.3   199  HIS199      0.1621
     77  C         96.5740  -55.0610  -19.5610 C.2   199  HIS199      0.2264
     78  O         96.1090  -56.0510  -20.1370 O.2   199  HIS199     -0.2867
     79  CB        95.9040  -52.8240  -20.4560 C.3   199  HIS199      0.0745
     80  CG        94.8760  -51.7410  -20.4740 C.ar  199  HIS199      0.0817
     81  ND1       95.0240  -50.5650  -19.7720 N.ar  199  HIS199     -0.2268
     82  CD2       93.6750  -51.6620  -21.0920 C.ar  199  HIS199      0.1154
     83  CE1       93.9630  -49.8030  -19.9640 C.ar  199  HIS199      0.1986
     84  NE2       93.1290  -50.4480  -20.7570 N.ar  199  HIS199     -0.2212
     85  N         94.1370  -57.8640  -19.5960 N.3   203  GLY203     -0.1225
     86  CA        93.9220  -57.9770  -21.0280 C.3   203  GLY203      0.1811
     87  C         94.9090  -58.8340  -21.7950 C.2   203  GLY203      0.2280
     88  O         94.5030  -59.6360  -22.6400 O.2   203  GLY203     -0.2866
     89  N         93.0400  -62.2710  -20.6130 N.3   207  LEU207     -0.1245
     90  CA        92.2690  -62.6580  -21.7870 C.3   207  LEU207      0.1561
     91  C         93.0390  -63.6370  -22.6640 C.2   207  LEU207      0.2260
     92  O         92.4250  -64.4610  -23.3490 O.2   207  LEU207     -0.2867
     93  CB        91.8640  -61.4220  -22.5860 C.3   207  LEU207      0.0270
     94  CG        90.8550  -60.4850  -21.9190 C.3   207  LEU207      0.0019
     95  CD1       90.3240  -59.4800  -22.9190 C.3   207  LEU207      0.0001
     96  CD2       89.7170  -61.2770  -21.2980 C.3   207  LEU207      0.0001
     97  N         92.9540  -45.4450  -12.5780 N.3   313  THR313     -0.1203
     98  CA        93.1190  -44.7700  -13.8590 C.3   313  THR313      0.1994
     99  C         92.1800  -43.5730  -13.9560 C.2   313  THR313      0.2618
    100  O         92.5080  -42.4860  -13.4700 O.2   313  THR313     -0.2717
    101  CB        92.8790  -45.7350  -15.0220 C.3   313  THR313      0.1784
    102  OG1       91.5350  -46.2240  -14.9720 O.3   313  THR313     -0.2211
    103  CG2       93.8460  -46.9110  -14.9530 C.3   313  THR313      0.0376
    104  N         91.0070  -43.7570  -14.5640 N.am  314  ASN314     -0.1960
    105  CA        90.0930  -42.6550  -14.8390 C.3   314  ASN314      0.1819
    106  C         88.8690  -42.6470  -13.9350 C.2   314  ASN314      0.2621
    107  O         87.9080  -41.9210  -14.2210 O.2   314  ASN314     -0.2715
    108  CB        89.6380  -42.6940  -16.2990 C.3   314  ASN314      0.1195
    109  CG        90.7770  -42.4950  -17.2680 C.2   314  ASN314      0.2630
    110  OD1       91.8320  -41.9780  -16.9030 O.2   314  ASN314     -0.2716
    111  ND2       90.5680  -42.8940  -18.5170 N.am  314  ASN314     -0.0877
    112  N         88.8680  -43.4240  -12.8510 N.am  315  TRP315     -0.1974
    113  CA        87.6110  -43.6050  -12.1340 C.3   315  TRP315      0.1640
    114  C         87.7580  -43.6160  -10.6140 C.2   315  TRP315      0.2290
    115  O         86.8360  -44.0560   -9.9180 O.2   315  TRP315     -0.2864
    116  CB        86.9320  -44.8790  -12.6410 C.3   315  TRP315      0.0576
    117  CG        86.4140  -44.6890  -14.0390 C.ar  315  TRP315      0.0006
    118  CD1       85.2880  -44.0090  -14.4090 C.ar  315  TRP315      0.0946
    119  CD2       87.0260  -45.1380  -15.2540 C.ar  315  TRP315      0.0152
    120  NE1       85.1510  -44.0250  -15.7730 N.ar  315  TRP315     -0.2442
    121  CE2       86.2070  -44.7070  -16.3170 C.ar  315  TRP315      0.0810
    122  CE3       88.1820  -45.8640  -15.5470 C.ar  315  TRP315      0.0012
    123  CZ2       86.5060  -44.9850  -17.6480 C.ar  315  TRP315      0.0191
    124  CZ3       88.4760  -46.1380  -16.8690 C.ar  315  TRP315      0.0001
    125  CH2       87.6440  -45.6980  -17.9020 C.ar  315  TRP315      0.0015
@<TRIPOS>BOND
     1    11     9    1
     2     6     5    1
     3     6     7    1
     4     1     2    1
     5     5     2    1
     6     9    10    1
     7     9     8    2
     8     7     8    1
     9     2     3    1
    10     3     4    2
    11    45    44    1
    12    12    13    1
    13    16    13    1
    14    13    14    1
    15    44    46    1
    16    44    41    1
    17    60    59   ar
    18    60    58   ar
    19    43    42    2
    20    42    41    1
    21    59    57   ar
    22    58    56   ar
    23    41    40    1
    24    57    54   ar
    25    56    54   ar
    26    56    55   ar
    27    14    17   am
    28    14    15    2
    29    54    52   ar
    30    17    18    1
    31    55    53   ar
    32    30    27    1
    33    52    53   ar
    34    52    51    1
    35    40    33   am
    36    51    48    1
    37    26    27    1
    38    26    19   am
    39    18    19    1
    40    18    21    1
    41    29    28    2
    42    27    28    1
    43    92    91    2
    44    33    34    2
    45    33    32    1
    46    28    31   am
    47    19    20    2
    48    95    94    1
    49    21    22    1
    50    48    47    1
    51    48    49    1
    52    91    90    1
    53    88    87    2
    54    93    94    1
    55    93    90    1
    56    31    32    1
    57    49    50    2
    58    32    35    1
    59    22    23    1
    60    94    96    1
    61    87    86    1
    62    90    89    1
    63    24    23    1
    64    24    25    1
    65    82    84   ar
    66    82    80   ar
    67    86    85    1
    68    35    36    1
    69    84    83   ar
    70    80    79    1
    71    80    81   ar
    72    79    76    1
    73    78    77    2
    74    83    81   ar
    75    36    37    1
    76    67    66    2
    77    77    76    1
    78    76    75    1
    79    74    73    1
    80    66    65    1
    81    66    68   am
    82    65    62    1
    83    37    38    1
    84   111   109   am
    85    61    62    1
    86    72    71    2
    87    39    38    1
    88   125   123   ar
    89   125   124   ar
    90    64    63    2
    91    73    70    1
    92    62    63    1
    93    71    70    1
    94   123   121   ar
    95   109   110    2
    96   109   108    1
    97    70    69    1
    98   124   122   ar
    99   121   120   ar
   100   121   119   ar
   101   108   105    1
   102   120   118   ar
   103   122   119   ar
   104   119   117   ar
   105   101   102    1
   106   101   103    1
   107   101    98    1
   108   105   104    1
   109   105   106    1
   110   104    99   am
   111   118   117   ar
   112   107   106    2
   113   117   116    1
   114    99    98    1
   115    99   100    2
   116   106   112   am
   117    98    97    1
   118   112   113    1
   119   116   113    1
   120   113   114    1
   121   114   115    2
