@<TRIPOS>MOLECULE
tmp/5oy0J00.pdb
 96 93 0 0 0
SMALL
GASTEIGER

@<TRIPOS>ATOM
      1  N        142.0820  -67.4620   24.9620 N.3    53  VAL53      -0.1245
      2  CA       141.8610  -67.7270   23.5410 C.3    53  VAL53       0.1561
      3  C        142.4020  -69.1010   23.1670 C.2    53  VAL53       0.2260
      4  O        141.7530  -69.8700   22.4420 O.2    53  VAL53      -0.2867
      5  CB       142.4970  -66.6170   22.6830 C.3    53  VAL53       0.0252
      6  CG1      142.2930  -66.9090   21.2090 C.3    53  VAL53       0.0019
      7  CG2      141.9140  -65.2600   23.0480 C.3    53  VAL53       0.0019
      8  N        140.3570  -72.3630   21.6610 N.3    57  HIS57      -0.1241
      9  CA       140.7030  -72.8510   20.3310 C.3    57  HIS57       0.1621
     10  C        141.2740  -74.2620   20.3620 C.2    57  HIS57       0.2264
     11  O        140.8950  -75.1060   19.5440 O.2    57  HIS57      -0.2867
     12  CB       141.6810  -71.8930   19.6780 C.3    57  HIS57       0.0745
     13  CG       141.0190  -70.6720   19.1530 C.ar   57  HIS57       0.0817
     14  ND1      140.4300  -69.7370   19.9760 N.ar   57  HIS57      -0.2268
     15  CD2      140.7990  -70.2580   17.8860 C.ar   57  HIS57       0.1154
     16  CE1      139.9040  -68.7800   19.2360 C.ar   57  HIS57       0.1986
     17  NE2      140.1150  -69.0740   17.9660 N.ar   57  HIS57      -0.2212
     18  N        150.2560  -72.4700   14.5110 N.3    92  ALA92      -0.1245
     19  CA       149.5720  -71.2150   14.8040 C.3    92  ALA92       0.1562
     20  C        150.4110  -70.3280   15.7150 C.2    92  ALA92       0.2260
     21  O        150.4450  -69.1040   15.5400 O.2    92  ALA92      -0.2867
     22  CB       148.2090  -71.4970   15.4350 C.3    92  ALA92       0.0290
     23  N        153.0330  -68.7490   13.6890 N.3    95  ALA95      -0.1231
     24  CA       152.4610  -67.6550   12.9090 C.3    95  ALA95       0.1694
     25  C        152.2740  -66.4060   13.7670 C.2    95  ALA95       0.2591
     26  O        152.6380  -65.2950   13.3580 O.2    95  ALA95      -0.2718
     27  CB       151.1340  -68.0970   12.2960 C.3    95  ALA95       0.0304
     28  N        151.7010  -66.5750   14.9620 N.am   96  LEU96      -0.1980
     29  CA       151.4980  -65.4530   15.8750 C.3    96  LEU96       0.1596
     30  C        152.8170  -64.7770   16.2240 C.2    96  LEU96       0.2287
     31  O        152.9100  -63.5400   16.2540 O.2    96  LEU96      -0.2864
     32  CB       150.8110  -65.9420   17.1490 C.3    96  LEU96       0.0297
     33  CG       149.3080  -65.7450   17.3020 C.3    96  LEU96       0.0022
     34  CD1      148.8260  -66.4600   18.5480 C.3    96  LEU96       0.0001
     35  CD2      148.9880  -64.2680   17.3800 C.3    96  LEU96       0.0001
     36  N        155.7730  -64.8960   14.5380 N.3    98  SER98      -0.1202
     37  CA       156.3200  -64.2090   13.3740 C.3    98  SER98       0.2020
     38  C        155.6120  -62.8820   13.1480 C.2    98  SER98       0.2618
     39  O        156.2580  -61.8670   12.8450 O.2    98  SER98      -0.2717
     40  CB       156.2070  -65.1010   12.1410 C.3    98  SER98       0.2103
     41  OG       156.8920  -66.3190   12.3610 O.3    98  SER98      -0.2182
     42  N        154.2830  -62.8720   13.3000 N.am   99  TYR99      -0.1975
     43  CA       153.5310  -61.6260   13.1900 C.3    99  TYR99       0.1639
     44  C        154.0590  -60.5870   14.1690 C.2    99  TYR99       0.2290
     45  O        154.3640  -59.4520   13.7840 O.2    99  TYR99      -0.2864
     46  CB       152.0410  -61.8790   13.4320 C.3    99  TYR99       0.0560
     47  CG       151.2200  -60.6100   13.4020 C.ar   99  TYR99      -0.0198
     48  CD1      150.7280  -60.1100   12.2010 C.ar   99  TYR99      -0.0009
     49  CD2      150.9550  -59.8960   14.5670 C.ar   99  TYR99      -0.0009
     50  CE1      149.9860  -58.9440   12.1590 C.ar   99  TYR99       0.0417
     51  CE2      150.2140  -58.7270   14.5370 C.ar   99  TYR99       0.0417
     52  CZ       149.7330  -58.2570   13.3260 C.ar   99  TYR99       0.1957
     53  OH       148.9920  -57.1000   13.2720 O.3    99  TYR99      -0.2866
     54  N        157.4210  -59.1490   13.1280 N.3   102  VAL102     -0.1245
     55  CA       157.4960  -58.2530   11.9730 C.3   102  VAL102      0.1561
     56  C        156.7590  -56.9320   12.2160 C.2   102  VAL102      0.2260
     57  O        157.1930  -55.8850   11.7230 O.2   102  VAL102     -0.2867
     58  CB       156.9760  -58.9440   10.6970 C.3   102  VAL102      0.0252
     59  CG1      157.8570  -60.1330   10.3140 C.3   102  VAL102      0.0019
     60  CG2      155.5470  -59.3890   10.8770 C.3   102  VAL102      0.0019
     61  N        152.4300  -58.6850   22.4570 N.3   120  TRP120     -0.1241
     62  CA       152.0880  -59.7300   21.4990 C.3   120  TRP120      0.1605
     63  C        152.8550  -61.0110   21.7910 C.2   120  TRP120      0.2264
     64  O        152.3200  -62.1090   21.5940 O.2   120  TRP120     -0.2867
     65  CB       152.3540  -59.2620   20.0670 C.3   120  TRP120      0.0550
     66  CG       151.5860  -60.0500   19.0280 C.ar  120  TRP120      0.0003
     67  CD1      152.0020  -61.1720   18.3700 C.ar  120  TRP120      0.0946
     68  CD2      150.2680  -59.7690   18.5420 C.ar  120  TRP120      0.0152
     69  NE1      151.0250  -61.6050   17.5060 N.ar  120  TRP120     -0.2442
     70  CE2      149.9500  -60.7610   17.5940 C.ar  120  TRP120      0.0810
     71  CE3      149.3250  -58.7750   18.8180 C.ar  120  TRP120      0.0012
     72  CZ2      148.7290  -60.7830   16.9170 C.ar  120  TRP120      0.0191
     73  CZ3      148.1170  -58.8000   18.1460 C.ar  120  TRP120      0.0001
     74  CH2      147.8300  -59.7950   17.2060 C.ar  120  TRP120      0.0015
     75  N        151.0000  -62.6110   24.5910 N.3   123  PHE123     -0.1241
     76  CA       149.7990  -63.2130   24.0240 C.3   123  PHE123      0.1605
     77  C        150.1200  -64.5460   23.3690 C.2   123  PHE123      0.2264
     78  O        149.3780  -65.5170   23.5320 O.2   123  PHE123     -0.2867
     79  CB       149.1430  -62.2710   23.0100 C.3   123  PHE123      0.0534
     80  CG       147.8080  -62.7630   22.5110 C.ar  123  PHE123     -0.0203
     81  CD1      146.6400  -62.4650   23.2040 C.ar  123  PHE123     -0.0042
     82  CD2      147.7200  -63.5490   21.3690 C.ar  123  PHE123     -0.0042
     83  CE1      145.4120  -62.9320   22.7640 C.ar  123  PHE123     -0.0003
     84  CE2      146.4930  -64.0220   20.9230 C.ar  123  PHE123     -0.0003
     85  CZ       145.3390  -63.7120   21.6230 C.ar  123  PHE123     -0.0000
     86  N        148.7520  -68.1160   24.4580 N.3   127  PHE127     -0.1241
     87  CA       147.9910  -68.8660   23.4700 C.3   127  PHE127      0.1605
     88  C        148.5740  -70.2540   23.2770 C.2   127  PHE127      0.2264
     89  O        147.8300  -71.2260   23.1480 O.2   127  PHE127     -0.2867
     90  CB       147.9390  -68.1230   22.1340 C.3   127  PHE127      0.0534
     91  CG       147.2920  -68.9260   21.0310 C.ar  127  PHE127     -0.0203
     92  CD1      145.9110  -68.9560   20.8960 C.ar  127  PHE127     -0.0042
     93  CD2      148.0590  -69.6750   20.1540 C.ar  127  PHE127     -0.0042
     94  CE1      145.3100  -69.7110   19.8980 C.ar  127  PHE127     -0.0003
     95  CE2      147.4650  -70.4290   19.1560 C.ar  127  PHE127     -0.0003
     96  CZ       146.0890  -70.4460   19.0270 C.ar  127  PHE127     -0.0000
@<TRIPOS>BOND
     1    59    58    1
     2    58    60    1
     3    58    55    1
     4    57    56    2
     5    55    56    1
     6    55    54    1
     7    40    41    1
     8    40    37    1
     9    50    48   ar
    10    50    52   ar
    11    48    47   ar
    12    27    24    1
    13    39    38    2
    14    24    23    1
    15    24    25    1
    16    38    42   am
    17    38    37    1
    18    43    42    1
    19    43    46    1
    20    43    44    1
    21    53    52    1
    22    52    51   ar
    23    26    25    2
    24    37    36    1
    25    47    46    1
    26    47    49   ar
    27    25    28   am
    28    45    44    2
    29    18    19    1
    30    51    49   ar
    31    19    22    1
    32    19    20    1
    33    28    29    1
    34    21    20    2
    35    29    30    1
    36    29    32    1
    37    30    31    2
    38    72    74   ar
    39    72    70   ar
    40    32    33    1
    41    74    73   ar
    42    33    35    1
    43    33    34    1
    44    69    70   ar
    45    69    67   ar
    46    70    68   ar
    47    15    17   ar
    48    15    13   ar
    49    17    16   ar
    50    73    71   ar
    51    67    66   ar
    52    68    71   ar
    53    68    66   ar
    54    96    95   ar
    55    96    94   ar
    56    66    65    1
    57    13    12    1
    58    13    14   ar
    59    95    93   ar
    60    16    14   ar
    61    11    10    2
    62    12     9    1
    63    94    92   ar
    64    65    62    1
    65    93    91   ar
    66     9    10    1
    67     9     8    1
    68    92    91   ar
    69    84    82   ar
    70    84    85   ar
    71    91    90    1
    72     6     5    1
    73    82    80   ar
    74    62    63    1
    75    62    61    1
    76    64    63    2
    77    85    83   ar
    78    90    87    1
    79     4     3    2
    80    80    79    1
    81    80    81   ar
    82     5     7    1
    83     5     2    1
    84    83    81   ar
    85    79    76    1
    86    89    88    2
    87     3     2    1
    88    88    87    1
    89    77    78    2
    90    77    76    1
    91    87    86    1
    92     2     1    1
    93    76    75    1
