@<TRIPOS>MOLECULE
tmp/5oy0L24.pdb
 222 215 0 0 0
SMALL
GASTEIGER

@<TRIPOS>ATOM
      1  N        124.4170  -81.8870   85.4080 N.3   364  ILE364     -0.1245
      2  CA       124.5920  -82.7130   84.2130 C.3   364  ILE364      0.1561
      3  C        125.4580  -83.9280   84.5300 C.2   364  ILE364      0.2260
      4  O        125.1700  -85.0550   84.0970 O.2   364  ILE364     -0.2867
      5  CB       125.1920  -81.8780   83.0690 C.3   364  ILE364      0.0252
      6  CG1      124.2260  -80.7680   82.6570 C.3   364  ILE364      0.0019
      7  CG2      125.5340  -82.7700   81.8910 C.3   364  ILE364      0.0019
      8  CD1      124.9010  -79.6150   81.9730 C.3   364  ILE364      0.0001
      9  N        124.4330  -87.9450   84.1220 N.3   368  GLN368     -0.1245
     10  CA       125.2780  -88.8810   83.3860 C.3   368  GLN368      0.1566
     11  C        125.9240  -89.9290   84.2860 C.2   368  GLN368      0.2260
     12  O        126.3360  -90.9820   83.7890 O.2   368  GLN368     -0.2867
     13  CB       126.3680  -88.1240   82.6250 C.3   368  GLN368      0.0367
     14  CG       125.8600  -87.2600   81.4800 C.3   368  GLN368      0.0905
     15  CD       125.9110  -87.9670   80.1350 C.2   368  GLN368      0.2608
     16  OE1      125.9590  -89.1950   80.0610 O.2   368  GLN368     -0.2717
     17  NE2      125.9090  -87.1850   79.0610 N.am  368  GLN368     -0.0878
     18  N        122.6880  -92.4420   85.7030 N.3   371  TYR371     -0.1241
     19  CA       122.0740  -93.3710   84.7570 C.3   371  TYR371      0.1605
     20  C        122.9120  -94.6390   84.5930 C.2   371  TYR371      0.2264
     21  O        122.3640  -95.7470   84.5420 O.2   371  TYR371     -0.2867
     22  CB       121.8210  -92.6850   83.4080 C.3   371  TYR371      0.0534
     23  CG       122.9020  -92.8470   82.3600 C.ar  371  TYR371     -0.0201
     24  CD1      122.9470  -93.9710   81.5380 C.ar  371  TYR371     -0.0009
     25  CD2      123.8560  -91.8600   82.1670 C.ar  371  TYR371     -0.0009
     26  CE1      123.9270  -94.1150   80.5790 C.ar  371  TYR371      0.0417
     27  CE2      124.8380  -91.9930   81.2100 C.ar  371  TYR371      0.0417
     28  CZ       124.8690  -93.1220   80.4180 C.ar  371  TYR371      0.1957
     29  OH       125.8490  -93.2530   79.4610 O.3   371  TYR371     -0.2866
     30  N        117.2200  -88.6440   84.4630 N.3   390  PHE390     -0.1241
     31  CA       118.2690  -88.1830   83.5580 C.3   390  PHE390      0.1605
     32  C        117.8790  -86.8710   82.8870 C.2   390  PHE390      0.2264
     33  O        118.6150  -85.8760   82.9560 O.2   390  PHE390     -0.2867
     34  CB       118.5630  -89.2600   82.5130 C.3   390  PHE390      0.0534
     35  CG       119.5400  -88.8290   81.4570 C.ar  390  PHE390     -0.0203
     36  CD1      120.9030  -88.9760   81.6550 C.ar  390  PHE390     -0.0042
     37  CD2      119.0930  -88.2810   80.2600 C.ar  390  PHE390     -0.0042
     38  CE1      121.8040  -88.5820   80.6810 C.ar  390  PHE390     -0.0003
     39  CE2      119.9870  -87.8790   79.2840 C.ar  390  PHE390     -0.0003
     40  CZ       121.3430  -88.0340   79.4890 C.ar  390  PHE390     -0.0000
     41  N        119.4080  -83.0780   83.4970 N.3   394  MET394     -0.1245
     42  CA       119.9130  -82.3950   82.3100 C.3   394  MET394      0.1570
     43  C        119.3260  -80.9930   82.1910 C.2   394  MET394      0.2261
     44  O        120.0660  -80.0040   82.0820 O.2   394  MET394     -0.2867
     45  CB       119.5970  -83.2200   81.0610 C.3   394  MET394      0.0387
     46  CG       120.6120  -84.3080   80.7570 C.3   394  MET394      0.0595
     47  SD       122.1750  -83.6120   80.1890 S.3   394  MET394     -0.1393
     48  CE       123.1780  -85.0860   80.0180 C.3   394  MET394      0.0692
     49  N        138.6720  -93.3370   70.1670 N.3   482  PHE482     -0.1227
     50  CA       139.2010  -92.9800   71.4800 C.3   482  PHE482      0.1736
     51  C        138.2600  -93.4140   72.5970 C.2   482  PHE482      0.2595
     52  O        138.7050  -93.9340   73.6280 O.2   482  PHE482     -0.2718
     53  CB       139.4620  -91.4760   71.5330 C.3   482  PHE482      0.0547
     54  CG       140.3440  -90.9860   70.4230 C.ar  482  PHE482     -0.0202
     55  CD1      141.5780  -91.5710   70.1960 C.ar  482  PHE482     -0.0042
     56  CD2      139.9290  -89.9630   69.5880 C.ar  482  PHE482     -0.0042
     57  CE1      142.3910  -91.1330   69.1690 C.ar  482  PHE482     -0.0003
     58  CE2      140.7370  -89.5230   68.5580 C.ar  482  PHE482     -0.0003
     59  CZ       141.9690  -90.1080   68.3480 C.ar  482  PHE482     -0.0000
     60  N        136.9550  -93.2130   72.4090 N.am  483  ALA483     -0.1980
     61  CA       135.9910  -93.6350   73.4180 C.3   483  ALA483      0.1597
     62  C        135.9750  -95.1500   73.5680 C.2   483  ALA483      0.2287
     63  O        135.8420  -95.6660   74.6830 O.2   483  ALA483     -0.2864
     64  CB       134.6010  -93.1120   73.0640 C.3   483  ALA483      0.0319
     65  N        138.5690  -97.0710   73.0690 N.3   485  TRP485     -0.1227
     66  CA       139.7980  -97.3840   73.7910 C.3   485  TRP485      0.1737
     67  C        139.6440  -97.1310   75.2850 C.2   485  TRP485      0.2595
     68  O        140.1180  -97.9220   76.1100 O.2   485  TRP485     -0.2718
     69  CB       140.9510  -96.5630   73.2200 C.3   485  TRP485      0.0564
     70  CG       142.2440  -96.7380   73.9420 C.ar  485  TRP485      0.0003
     71  CD1      142.9240  -97.9050   74.1410 C.ar  485  TRP485      0.0946
     72  CD2      143.0310  -95.7060   74.5460 C.ar  485  TRP485      0.0152
     73  NE1      144.0800  -97.6630   74.8400 N.ar  485  TRP485     -0.2442
     74  CE2      144.1700  -96.3200   75.1010 C.ar  485  TRP485      0.0810
     75  CE3      142.8810  -94.3210   74.6760 C.ar  485  TRP485      0.0012
     76  CZ2      145.1540  -95.5990   75.7740 C.ar  485  TRP485      0.0191
     77  CZ3      143.8590  -93.6070   75.3460 C.ar  485  TRP485      0.0001
     78  CH2      144.9800  -94.2470   75.8860 C.ar  485  TRP485      0.0015
     79  N        138.9800  -96.0340   75.6530 N.am  486  VAL486     -0.1966
     80  CA       138.7800  -95.7420   77.0700 C.3   486  VAL486      0.1727
     81  C        137.8250  -96.7520   77.6990 C.2   486  VAL486      0.2616
     82  O        138.0070  -97.1590   78.8530 O.2   486  VAL486     -0.2715
     83  CB       138.2920  -94.2960   77.2620 C.3   486  VAL486      0.0290
     84  CG1      138.0470  -94.0160   78.7360 C.3   486  VAL486      0.0023
     85  CG2      139.3180  -93.3310   76.7160 C.3   486  VAL486      0.0023
     86  N        136.7950  -97.1720   76.9580 N.am  487  GLN487     -0.1977
     87  CA       135.9310  -98.2430   77.4470 C.3   487  GLN487      0.1601
     88  C        136.7340  -99.5080   77.7210 C.2   487  GLN487      0.2287
     89  O        136.5500 -100.1590   78.7580 O.2   487  GLN487     -0.2864
     90  CB       134.8120  -98.5330   76.4450 C.3   487  GLN487      0.0394
     91  CG       133.7070  -97.4900   76.4080 C.3   487  GLN487      0.0908
     92  CD       132.4570  -97.9770   75.6860 C.2   487  GLN487      0.2608
     93  OE1      132.3800  -99.1280   75.2560 O.2   487  GLN487     -0.2717
     94  NE2      131.4700  -97.0990   75.5570 N.am  487  GLN487     -0.0878
     95  N        138.7600  -99.1210   80.8570 N.3   490  HIS490     -0.1241
     96  CA       137.8820  -99.2790   82.0130 C.3   490  HIS490      0.1621
     97  C        137.5800 -100.7450   82.2860 C.2   490  HIS490      0.2264
     98  O        137.5580 -101.1750   83.4460 O.2   490  HIS490     -0.2867
     99  CB       136.5760  -98.5190   81.7990 C.3   490  HIS490      0.0745
    100  CG       136.7020  -97.0390   81.9600 C.ar  490  HIS490      0.0817
    101  ND1      135.6590  -96.1760   81.7030 N.ar  490  HIS490     -0.2268
    102  CD2      137.7410  -96.2670   82.3540 C.ar  490  HIS490      0.1154
    103  CE1      136.0500  -94.9360   81.9300 C.ar  490  HIS490      0.1986
    104  NE2      137.3100  -94.9640   82.3250 N.ar  490  HIS490     -0.2212
    105  N        128.4430 -100.0980   81.8170 N.3   508  ALA508     -0.1231
    106  CA       128.2590  -99.4600   80.5200 C.3   508  ALA508      0.1694
    107  C        129.5560  -99.4110   79.7230 C.2   508  ALA508      0.2592
    108  O        129.5090  -99.3150   78.4920 O.2   508  ALA508     -0.2718
    109  CB       127.6980  -98.0480   80.6950 C.3   508  ALA508      0.0304
    110  N        130.7080  -99.4760   80.3960 N.am  509  PHE509     -0.1976
    111  CA       131.9880  -99.5310   79.7040 C.3   509  PHE509      0.1639
    112  C        132.2900 -100.9140   79.1430 C.2   509  PHE509      0.2290
    113  O        133.1260 -101.0320   78.2400 O.2   509  PHE509     -0.2864
    114  CB       133.1220  -99.1040   80.6410 C.3   509  PHE509      0.0560
    115  CG       132.9000  -97.7730   81.3060 C.ar  509  PHE509     -0.0200
    116  CD1      132.7270  -96.6270   80.5510 C.ar  509  PHE509     -0.0042
    117  CD2      132.8850  -97.6670   82.6890 C.ar  509  PHE509     -0.0042
    118  CE1      132.5300  -95.4010   81.1610 C.ar  509  PHE509     -0.0003
    119  CE2      132.6880  -96.4440   83.3050 C.ar  509  PHE509     -0.0003
    120  CZ       132.5100  -95.3090   82.5400 C.ar  509  PHE509     -0.0000
    121  N        127.6140 -100.6480   76.5930 N.3   525  ILE525     -0.1245
    122  CA       127.0000  -99.7020   75.6650 C.3   525  ILE525      0.1561
    123  C        128.0070  -99.4610   74.5470 C.2   525  ILE525      0.2260
    124  O        128.9070  -98.6220   74.6760 O.2   525  ILE525     -0.2867
    125  CB       126.5970  -98.3920   76.3510 C.3   525  ILE525      0.0252
    126  CG1      125.6150  -98.6730   77.4910 C.3   525  ILE525      0.0019
    127  CG2      125.9880  -97.4210   75.3480 C.3   525  ILE525      0.0019
    128  CD1      125.0270  -97.4270   78.1200 C.3   525  ILE525      0.0001
    129  N        129.7300  -98.2520   71.0360 N.3   527  LEU527     -0.1245
    130  CA       129.7870  -96.9550   70.3750 C.3   527  LEU527      0.1561
    131  C        130.2390  -97.1470   68.9350 C.2   527  LEU527      0.2260
    132  O        131.2410  -97.8230   68.6830 O.2   527  LEU527     -0.2867
    133  CB       130.7370  -95.9980   71.1050 C.3   527  LEU527      0.0270
    134  CG       130.4630  -95.6820   72.5780 C.3   527  LEU527      0.0019
    135  CD1      131.3940  -94.5870   73.0650 C.3   527  LEU527      0.0001
    136  CD2      129.0150  -95.2860   72.8040 C.3   527  LEU527      0.0001
    137  N        126.9330  -93.1240   67.0610 N.3   531  ASP531     -0.1239
    138  CA       127.3220  -92.4780   68.3120 C.3   531  ASP531      0.1674
    139  C        128.3110  -91.3450   68.0630 C.2   531  ASP531      0.2266
    140  O        128.2070  -90.2770   68.6770 O.2   531  ASP531     -0.2867
    141  CB       127.9170  -93.5120   69.2670 C.3   531  ASP531      0.1410
    142  CG       126.9680  -94.6630   69.5450 C.2   531  ASP531      0.3668
    143  OD1      126.0420  -94.4940   70.3660 O.co2 531  ASP531     -0.2456
    144  OD2      127.1380  -95.7330   68.9250 O.co2 531  ASP531     -0.2456
    145  N        127.4520  -87.5160   69.0940 N.3   535  HIS535     -0.1241
    146  CA       128.3460  -86.8290   70.0180 C.3   535  HIS535      0.1621
    147  C        128.8740  -85.5360   69.4150 C.2   535  HIS535      0.2264
    148  O        129.0120  -84.5260   70.1140 O.2   535  HIS535     -0.2867
    149  CB       129.5000  -87.7510   70.4160 C.3   535  HIS535      0.0745
    150  CG       129.1080  -88.8270   71.3800 C.ar  535  HIS535      0.0817
    151  ND1      128.7360  -90.0910   70.9760 N.ar  535  HIS535     -0.2268
    152  CD2      129.0260  -88.8260   72.7310 C.ar  535  HIS535      0.1154
    153  CE1      128.4440  -90.8230   72.0370 C.ar  535  HIS535      0.1986
    154  NE2      128.6110  -90.0780   73.1140 N.ar  535  HIS535     -0.2212
    155  N        126.2750  -83.0170   69.7050 N.3   538  HIS538     -0.1226
    156  CA       126.3060  -82.4750   71.0630 C.3   538  HIS538      0.1752
    157  C        127.3860  -81.4100   71.1990 C.2   538  HIS538      0.2595
    158  O        127.1560  -80.3380   71.7760 O.2   538  HIS538     -0.2718
    159  CB       126.5510  -83.5960   72.0760 C.3   538  HIS538      0.0759
    160  CG       125.4210  -84.5700   72.2020 C.ar  538  HIS538      0.0818
    161  ND1      124.1680  -84.3310   71.6820 N.ar  538  HIS538     -0.2268
    162  CD2      125.3570  -85.7850   72.7960 C.ar  538  HIS538      0.1154
    163  CE1      123.3810  -85.3580   71.9490 C.ar  538  HIS538      0.1986
    164  NE2      124.0780  -86.2540   72.6240 N.ar  538  HIS538     -0.2212
    165  N        128.5830  -81.7090   70.6900 N.am  539  ALA539     -0.1980
    166  CA       129.6730  -80.7390   70.6990 C.3   539  ALA539      0.1597
    167  C        129.2610  -79.4500   69.9990 C.2   539  ALA539      0.2287
    168  O        129.4770  -78.3500   70.5210 O.2   539  ALA539     -0.2864
    169  CB       130.9140  -81.3420   70.0370 C.3   539  ALA539      0.0319
    170  N        126.5340  -77.4680   72.0540 N.3   542  ILE542     -0.1245
    171  CA       127.1170  -76.8850   73.2600 C.3   542  ILE542      0.1561
    172  C        128.0160  -75.7070   72.9010 C.2   542  ILE542      0.2260
    173  O        127.9890  -74.6620   73.5650 O.2   542  ILE542     -0.2867
    174  CB       127.8690  -77.9630   74.0630 C.3   542  ILE542      0.0252
    175  CG1      126.8800  -78.9830   74.6330 C.3   542  ILE542      0.0019
    176  CG2      128.6870  -77.3350   75.1810 C.3   542  ILE542      0.0019
    177  CD1      127.5390  -80.1650   75.3010 C.3   542  ILE542      0.0001
    178  N        120.1770  -84.1290   73.3520 N.3   605  VAL605     -0.1245
    179  CA       120.8690  -84.9930   74.3090 C.3   605  VAL605      0.1561
    180  C        119.9160  -86.0440   74.8690 C.2   605  VAL605      0.2260
    181  O        120.2390  -87.2390   74.9290 O.2   605  VAL605     -0.2867
    182  CB       121.4980  -84.1520   75.4350 C.3   605  VAL605      0.0252
    183  CG1      121.8760  -85.0400   76.5960 C.3   605  VAL605      0.0019
    184  CG2      122.7200  -83.4060   74.9280 C.3   605  VAL605      0.0019
    185  N        118.8590  -88.6060   72.2210 N.3   608  HIS608     -0.1226
    186  CA       119.9460  -89.5670   72.0690 C.3   608  HIS608      0.1752
    187  C        119.9400  -90.5870   73.1980 C.2   608  HIS608      0.2596
    188  O        120.0470  -91.7950   72.9600 O.2   608  HIS608     -0.2718
    189  CB       121.2820  -88.8230   72.0260 C.3   608  HIS608      0.0759
    190  CG       122.4810  -89.7050   72.1980 C.ar  608  HIS608      0.0818
    191  ND1      123.6370  -89.2720   72.8090 N.ar  608  HIS608     -0.2268
    192  CD2      122.7130  -90.9850   71.8210 C.ar  608  HIS608      0.1154
    193  CE1      124.5250  -90.2510   72.8140 C.ar  608  HIS608      0.1986
    194  NE2      123.9880  -91.3020   72.2230 N.ar  608  HIS608     -0.2212
    195  N        119.8380  -90.1150   74.4400 N.am  609  PHE609     -0.1976
    196  CA       119.8400  -91.0340   75.5720 C.3   609  PHE609      0.1639
    197  C        118.6830  -92.0220   75.4790 C.2   609  PHE609      0.2290
    198  O        118.8800  -93.2380   75.5930 O.2   609  PHE609     -0.2864
    199  CB       119.7790  -90.2530   76.8830 C.3   609  PHE609      0.0560
    200  CG       119.5790  -91.1160   78.0930 C.ar  609  PHE609     -0.0200
    201  CD1      120.6570  -91.7190   78.7140 C.ar  609  PHE609     -0.0042
    202  CD2      118.3110  -91.3240   78.6110 C.ar  609  PHE609     -0.0042
    203  CE1      120.4740  -92.5120   79.8260 C.ar  609  PHE609     -0.0003
    204  CE2      118.1220  -92.1180   79.7230 C.ar  609  PHE609     -0.0003
    205  CZ       119.2060  -92.7120   80.3320 C.ar  609  PHE609     -0.0000
    206  N        119.1700  -94.5050   72.4500 N.3   612  LYS612     -0.1231
    207  CA       120.2830  -95.4300   72.6210 C.3   612  LYS612      0.1693
    208  C        119.9880  -96.4510   73.7100 C.2   612  LYS612      0.2591
    209  O        120.3120  -97.6350   73.5580 O.2   612  LYS612     -0.2718
    210  CB       121.5640  -94.6610   72.9340 C.3   612  LYS612      0.0285
    211  CG       122.7870  -95.5450   73.1180 C.3   612  LYS612      0.0035
    212  CD       123.2230  -96.1760   71.8130 C.3   612  LYS612      0.0206
    213  CE       124.5520  -96.8830   71.9740 C.3   612  LYS612      0.1093
    214  NZ       125.0900  -97.3370   70.6650 N.3   612  LYS612     -0.1314
    215  N        119.3530  -96.0200   74.8060 N.am  613  MET613     -0.1979
    216  CA       119.0260  -96.9580   75.8750 C.3   613  MET613      0.1605
    217  C        117.9190  -97.9200   75.4630 C.2   613  MET613      0.2287
    218  O        117.9110  -99.0740   75.9040 O.2   613  MET613     -0.2864
    219  CB       118.6280  -96.2000   77.1440 C.3   613  MET613      0.0413
    220  CG       119.7250  -95.3110   77.7110 C.3   613  MET613      0.0598
    221  SD       121.2030  -96.2200   78.1910 S.3   613  MET613     -0.1393
    222  CE       120.6250  -97.0390   79.6740 C.3   613  MET613      0.0692
@<TRIPOS>BOND
     1   137   138    1
     2   139   138    1
     3   139   140    2
     4   138   141    1
     5    59    58   ar
     6    59    57   ar
     7    58    56   ar
     8   132   131    2
     9   144   142   ar
    10   131   130    1
    11   145   146    1
    12    57    55   ar
    13   141   142    1
    14   147   146    1
    15   147   148    2
    16   142   143   ar
    17    56    54   ar
    18   155   156    1
    19   167   168    2
    20   167   166    1
    21   146   149    1
    22   169   166    1
    23    49    50    1
    24    55    54   ar
    25   130   129    1
    26   130   133    1
    27   149   150    1
    28    54    53    1
    29   214   213    1
    30   165   166    1
    31   165   157   am
    32   151   150   ar
    33   151   153   ar
    34   156   157    1
    35   156   159    1
    36   133   134    1
    37   157   158    2
    38   150   152   ar
    39    50    53    1
    40    50    51    1
    41   161   163   ar
    42   161   160   ar
    43   212   213    1
    44   212   211    1
    45   192   190   ar
    46   192   194   ar
    47   163   164   ar
    48   189   186    1
    49   189   190    1
    50   153   154   ar
    51   170   171    1
    52   186   185    1
    53   186   187    1
    54   159   160    1
    55   190   191   ar
    56   160   162   ar
    57   194   193   ar
    58    60    51   am
    59    60    61    1
    60   206   207    1
    61   134   136    1
    62   134   135    1
    63    51    52    2
    64   207   210    1
    65   207   208    1
    66   164   162   ar
    67   152   154   ar
    68   191   193   ar
    69   172   171    1
    70   172   173    2
    71   210   211    1
    72   188   187    2
    73    64    61    1
    74    65    66    1
    75   187   195   am
    76    69    66    1
    77    69    70    1
    78   171   174    1
    79   178   179    1
    80    61    62    1
    81   209   208    2
    82    62    63    2
    83   208   215   am
    84    66    67    1
    85    70    71   ar
    86    70    72   ar
    87   174   175    1
    88   174   176    1
    89    71    73   ar
    90   179   180    1
    91   179   182    1
    92   195   196    1
    93    72    75   ar
    94    72    74   ar
    95   123   124    2
    96   123   122    1
    97   175   177    1
    98    75    77   ar
    99   215   216    1
   100    73    74   ar
   101   180   181    2
   102   184   182    1
   103    74    76   ar
   104    93    92    2
   105    67    79   am
   106    67    68    2
   107    77    78   ar
   108   127   125    1
   109   182   183    1
   110   217   216    1
   111   217   218    2
   112   197   196    1
   113   197   198    2
   114    94    92   am
   115   196   199    1
   116    79    80    1
   117   122   125    1
   118   122   121    1
   119    92    91    1
   120    76    78   ar
   121   216   219    1
   122   125   126    1
   123    91    90    1
   124    90    87    1
   125    85    83    1
   126   199   200    1
   127    86    87    1
   128    86    81   am
   129    80    83    1
   130    80    81    1
   131   219   220    1
   132    83    84    1
   133    87    88    1
   134   126   128    1
   135    81    82    2
   136   220   221    1
   137    88    89    2
   138   200   202   ar
   139   200   201   ar
   140   221   222    1
   141   113   112    2
   142   108   107    2
   143   202   204   ar
   144   201   203   ar
   145    17    15   am
   146   112   111    1
   147    39    40   ar
   148    39    37   ar
   149    29    28    1
   150    40    38   ar
   151   111   110    1
   152   111   114    1
   153   204   205   ar
   154   107   110   am
   155   107   106    1
   156   203   205   ar
   157    48    47    1
   158    16    15    2
   159    15    14    1
   160    47    46    1
   161    37    35   ar
   162    28    26   ar
   163    28    27   ar
   164   106   109    1
   165   106   105    1
   166   116   118   ar
   167   116   115   ar
   168    26    24   ar
   169   114   115    1
   170    38    36   ar
   171    46    45    1
   172    95    96    1
   173    45    42    1
   174   118   120   ar
   175    27    25   ar
   176   115   117   ar
   177    35    36   ar
   178    35    34    1
   179    14    13    1
   180    24    23   ar
   181   101   103   ar
   182   101   100   ar
   183    99   100    1
   184    99    96    1
   185     7     5    1
   186   103   104   ar
   187   100   102   ar
   188     8     6    1
   189    96    97    1
   190    44    43    2
   191    25    23   ar
   192    43    42    1
   193    97    98    2
   194    42    41    1
   195   104   102   ar
   196    23    22    1
   197    34    31    1
   198   120   119   ar
   199    13    10    1
   200     6     5    1
   201   117   119   ar
   202    32    33    2
   203    32    31    1
   204     5     2    1
   205    10     9    1
   206    10    11    1
   207    22    19    1
   208    31    30    1
   209    12    11    2
   210     4     3    2
   211     2     3    1
   212     2     1    1
   213    21    20    2
   214    20    19    1
   215    19    18    1
