@<TRIPOS>MOLECULE
tmp/5oy0M34.pdb
 112 109 0 0 0
SMALL
GASTEIGER

@<TRIPOS>ATOM
      1  N         85.2490  -50.7230   63.5670 N.3   414  LEU414     -0.1245
      2  CA        85.5130  -51.8830   62.7200 C.3   414  LEU414      0.1561
      3  C         86.5640  -52.7890   63.3450 C.2   414  LEU414      0.2260
      4  O         86.3710  -54.0080   63.4520 O.2   414  LEU414     -0.2867
      5  CB        85.9660  -51.4230   61.3350 C.3   414  LEU414      0.0270
      6  CG        85.0460  -50.4450   60.6080 C.3   414  LEU414      0.0019
      7  CD1       85.7980  -49.7270   59.5050 C.3   414  LEU414      0.0001
      8  CD2       83.8490  -51.1780   60.0450 C.3   414  LEU414      0.0001
      9  N         85.2710  -54.5390   66.5840 N.3   417  HIS417     -0.1226
     10  CA        84.2960  -55.6040   66.3860 C.3   417  HIS417      0.1752
     11  C         84.9130  -56.8010   65.6750 C.2   417  HIS417      0.2595
     12  O         84.4980  -57.9440   65.9130 O.2   417  HIS417     -0.2718
     13  CB        83.0850  -55.0660   65.6320 C.3   417  HIS417      0.0759
     14  CG        82.2830  -54.0830   66.4260 C.ar  417  HIS417      0.0818
     15  ND1       82.7050  -52.7890   66.6510 N.ar  417  HIS417     -0.2268
     16  CD2       81.1010  -54.2100   67.0710 C.ar  417  HIS417      0.1154
     17  CE1       81.8090  -52.1580   67.3870 C.ar  417  HIS417      0.1986
     18  NE2       80.8270  -52.9990   67.6570 N.ar  417  HIS417     -0.2212
     19  N         85.9230  -56.5720   64.8310 N.am  418  LEU418     -0.1980
     20  CA        86.6870  -57.6950   64.2980 C.3   418  LEU418      0.1596
     21  C         87.4300  -58.4250   65.4120 C.2   418  LEU418      0.2287
     22  O         87.4560  -59.6640   65.4460 O.2   418  LEU418     -0.2864
     23  CB        87.6540  -57.2070   63.2190 C.3   418  LEU418      0.0297
     24  CG        87.1920  -57.4000   61.7720 C.3   418  LEU418      0.0022
     25  CD1       88.0540  -56.5960   60.8190 C.3   418  LEU418      0.0001
     26  CD2       87.2160  -58.8750   61.3980 C.3   418  LEU418      0.0001
     27  N         86.4240  -58.5810   68.4770 N.3   420  TRP420     -0.1227
     28  CA        85.4200  -59.2890   69.2650 C.3   420  TRP420      0.1737
     29  C         84.9740  -60.5780   68.5850 C.2   420  TRP420      0.2595
     30  O         84.8200  -61.6060   69.2520 O.2   420  TRP420     -0.2718
     31  CB        84.2130  -58.3920   69.5350 C.3   420  TRP420      0.0564
     32  CG        83.1380  -59.1060   70.3080 C.ar  420  TRP420      0.0003
     33  CD1       83.0650  -59.2540   71.6620 C.ar  420  TRP420      0.0946
     34  CD2       81.9950  -59.7850   69.7690 C.ar  420  TRP420      0.0152
     35  NE1       81.9460  -59.9760   72.0010 N.ar  420  TRP420     -0.2442
     36  CE2       81.2730  -60.3150   70.8580 C.ar  420  TRP420      0.0810
     37  CE3       81.5110  -59.9920   68.4740 C.ar  420  TRP420      0.0012
     38  CZ2       80.0930  -61.0380   70.6910 C.ar  420  TRP420      0.0191
     39  CZ3       80.3390  -60.7110   68.3100 C.ar  420  TRP420      0.0001
     40  CH2       79.6430  -61.2250   69.4130 C.ar  420  TRP420      0.0015
     41  N         84.7400  -60.5490   67.2690 N.am  421  VAL421     -0.1980
     42  CA        84.3210  -61.7780   66.5960 C.3   421  VAL421      0.1595
     43  C         85.4510  -62.8040   66.6040 C.2   421  VAL421      0.2287
     44  O         85.2120  -64.0050   66.7900 O.2   421  VAL421     -0.2864
     45  CB        83.8070  -61.4940   65.1680 C.3   421  VAL421      0.0276
     46  CG1       82.6510  -60.5110   65.2020 C.3   421  VAL421      0.0022
     47  CG2       84.9140  -60.9920   64.2520 C.3   421  VAL421      0.0022
     48  N         85.4500  -64.2260   70.2220 N.3   424  PHE424     -0.1241
     49  CA        84.2850  -65.1030   70.3000 C.3   424  PHE424      0.1605
     50  C         84.5900  -66.4680   69.6880 C.2   424  PHE424      0.2264
     51  O         84.5560  -67.5100   70.3680 O.2   424  PHE424     -0.2867
     52  CB        83.1250  -64.4050   69.5740 C.3   424  PHE424      0.0534
     53  CG        81.7540  -64.9450   69.8910 C.ar  424  PHE424     -0.0203
     54  CD1       81.3580  -65.1770   71.1950 C.ar  424  PHE424     -0.0042
     55  CD2       80.8360  -65.1570   68.8720 C.ar  424  PHE424     -0.0042
     56  CE1       80.0890  -65.6550   71.4740 C.ar  424  PHE424     -0.0003
     57  CE2       79.5630  -65.6270   69.1460 C.ar  424  PHE424     -0.0003
     58  CZ        79.1890  -65.8740   70.4510 C.ar  424  PHE424     -0.0000
     59  N         84.3800  -75.7930   60.4750 N.3   515  HIS515     -0.1241
     60  CA        83.8830  -74.5910   59.8210 C.3   515  HIS515      0.1621
     61  C         84.0010  -73.3850   60.7330 C.2   515  HIS515      0.2264
     62  O         84.2700  -72.2740   60.2630 O.2   515  HIS515     -0.2867
     63  CB        82.4390  -74.7870   59.3690 C.3   515  HIS515      0.0745
     64  CG        82.3180  -75.4170   58.0180 C.ar  515  HIS515      0.0817
     65  ND1       82.4170  -76.7770   57.8190 N.ar  515  HIS515     -0.2268
     66  CD2       82.1250  -74.8700   56.7950 C.ar  515  HIS515      0.1154
     67  CE1       82.2800  -77.0410   56.5320 C.ar  515  HIS515      0.1986
     68  NE2       82.1010  -75.9020   55.8890 N.ar  515  HIS515     -0.2212
     69  N         87.5300  -72.3890   60.5540 N.3   518  ILE518     -0.1231
     70  CA        87.7120  -71.6380   59.3140 C.3   518  ILE518      0.1692
     71  C         87.2180  -70.2060   59.4770 C.2   518  ILE518      0.2591
     72  O         87.8470  -69.2570   58.9960 O.2   518  ILE518     -0.2718
     73  CB        86.9900  -72.3540   58.1540 C.3   518  ILE518      0.0266
     74  CG1       87.7510  -73.6140   57.7330 C.3   518  ILE518      0.0019
     75  CG2       86.7870  -71.4160   56.9720 C.3   518  ILE518      0.0020
     76  CD1       87.0620  -74.4000   56.6350 C.3   518  ILE518      0.0001
     77  N         86.0720  -70.0320   60.1370 N.am  519  ALA519     -0.1980
     78  CA        85.5520  -68.6910   60.3810 C.3   519  ALA519      0.1597
     79  C         86.5020  -67.8890   61.2630 C.2   519  ALA519      0.2287
     80  O         86.7630  -66.7110   60.9930 O.2   519  ALA519     -0.2864
     81  CB        84.1630  -68.7730   61.0130 C.3   519  ALA519      0.0319
     82  N         89.5450  -66.9290   58.9640 N.3   522  LEU522     -0.1231
     83  CA        89.1890  -65.8460   58.0550 C.3   522  LEU522      0.1693
     84  C         89.0540  -64.5290   58.8050 C.2   522  LEU522      0.2592
     85  O         89.5830  -63.5000   58.3690 O.2   522  LEU522     -0.2718
     86  CB        87.8920  -66.1780   57.3170 C.3   522  LEU522      0.0284
     87  CG        87.9630  -67.3090   56.2930 C.3   522  LEU522      0.0019
     88  CD1       86.6260  -67.4700   55.6040 C.3   522  LEU522      0.0001
     89  CD2       89.0570  -67.0410   55.2780 C.3   522  LEU522      0.0001
     90  N         88.3650  -64.5440   59.9490 N.am  523  HIS523     -0.1976
     91  CA        88.1350  -63.3070   60.6830 C.3   523  HIS523      0.1656
     92  C         89.4300  -62.7390   61.2390 C.2   523  HIS523      0.2291
     93  O         89.6310  -61.5250   61.2150 O.2   523  HIS523     -0.2864
     94  CB        87.1320  -63.5310   61.8100 C.3   523  HIS523      0.0771
     95  CG        85.7230  -63.7020   61.3390 C.ar  523  HIS523      0.0820
     96  ND1       85.2420  -64.9000   60.8590 N.ar  523  HIS523     -0.2267
     97  CD2       84.6920  -62.8280   61.2740 C.ar  523  HIS523      0.1154
     98  CE1       83.9730  -64.7570   60.5200 C.ar  523  HIS523      0.1986
     99  NE2       83.6150  -63.5100   60.7650 N.ar  523  HIS523     -0.2212
    100  N         91.5320  -61.3700   58.3260 N.3   526  ALA526     -0.1245
    101  CA        90.8980  -60.1280   57.9040 C.3   526  ALA526      0.1562
    102  C         91.1030  -59.0230   58.9330 C.2   526  ALA526      0.2260
    103  O         91.2960  -57.8630   58.5660 O.2   526  ALA526     -0.2867
    104  CB        89.4070  -60.3590   57.6540 C.3   526  ALA526      0.0290
    105  N         92.9210  -55.6530   57.9060 N.3   530  ILE530     -0.1245
    106  CA        92.0990  -54.4490   57.9310 C.3   530  ILE530      0.1561
    107  C         92.6180  -53.4580   58.9690 C.2   530  ILE530      0.2260
    108  O         92.6260  -52.2460   58.7330 O.2   530  ILE530     -0.2867
    109  CB        90.6280  -54.8350   58.1800 C.3   530  ILE530      0.0252
    110  CG1       90.0460  -55.5180   56.9390 C.3   530  ILE530      0.0019
    111  CG2       89.7980  -53.6220   58.5800 C.3   530  ILE530      0.0019
    112  CD1       88.7370  -56.2250   57.1860 C.3   530  ILE530      0.0001
@<TRIPOS>BOND
     1    89    87    1
     2    88    87    1
     3    68    67   ar
     4    68    66   ar
     5    87    86    1
     6    67    65   ar
     7    76    74    1
     8    66    64   ar
     9   110   112    1
    10   110   109    1
    11    75    73    1
    12    86    83    1
    13   104   101    1
    14    74    73    1
    15    65    64   ar
    16   101   100    1
    17   101   102    1
    18   105   106    1
    19   106   109    1
    20   106   107    1
    21    64    63    1
    22    83    84    1
    23    83    82    1
    24    73    70    1
    25   109   111    1
    26    85    84    2
    27   103   102    2
    28   108   107    2
    29    84    90   am
    30    72    71    2
    31    70    71    1
    32    70    69    1
    33    63    60    1
    34    71    77   am
    35     7     6    1
    36    60    59    1
    37    60    61    1
    38    90    91    1
    39     8     6    1
    40    77    78    1
    41    62    61    2
    42    78    81    1
    43    78    79    1
    44    98    99   ar
    45    98    96   ar
    46     6     5    1
    47    91    92    1
    48    91    94    1
    49    99    97   ar
    50    25    24    1
    51    96    95   ar
    52    80    79    2
    53    93    92    2
    54    97    95   ar
    55     5     2    1
    56    95    94    1
    57    26    24    1
    58    24    23    1
    59     2     3    1
    60     2     1    1
    61    23    20    1
    62     3     4    2
    63    47    45    1
    64    20    19    1
    65    20    21    1
    66    19    11   am
    67    45    46    1
    68    45    42    1
    69    21    22    2
    70    13    10    1
    71    13    14    1
    72    11    12    2
    73    11    10    1
    74    10     9    1
    75    14    15   ar
    76    14    16   ar
    77    42    43    1
    78    42    41    1
    79    43    44    2
    80    15    17   ar
    81    16    18   ar
    82    41    29   am
    83    17    18   ar
    84    39    37   ar
    85    39    40   ar
    86    37    34   ar
    87    27    28    1
    88    29    30    2
    89    29    28    1
    90    55    57   ar
    91    55    53   ar
    92    57    58   ar
    93    28    31    1
    94    40    38   ar
    95    31    32    1
    96    52    53    1
    97    52    49    1
    98    50    49    1
    99    50    51    2
   100    34    32   ar
   101    34    36   ar
   102    53    54   ar
   103    48    49    1
   104    32    33   ar
   105    58    56   ar
   106    38    36   ar
   107    36    35   ar
   108    54    56   ar
   109    33    35   ar
