@<TRIPOS>MOLECULE
tmp/5oy0J18.pdb
 124 120 0 0 0
SMALL
GASTEIGER

@<TRIPOS>ATOM
      1  N        140.7450  -76.4710   22.6360 N.3    59  TYR59      -0.1227
      2  CA       139.6460  -77.3590   22.9860 C.3    59  TYR59       0.1736
      3  C        138.8090  -77.7200   21.7640 C.2    59  TYR59       0.2595
      4  O        138.5120  -78.8980   21.5320 O.2    59  TYR59      -0.2718
      5  CB       138.7800  -76.7090   24.0600 C.3    59  TYR59       0.0548
      6  CG       137.7150  -77.6140   24.6160 C.ar   59  TYR59      -0.0200
      7  CD1      138.0160  -78.5590   25.5940 C.ar   59  TYR59      -0.0009
      8  CD2      136.4060  -77.5190   24.1770 C.ar   59  TYR59      -0.0009
      9  CE1      137.0370  -79.3880   26.1120 C.ar   59  TYR59       0.0417
     10  CE2      135.4230  -78.3380   24.6900 C.ar   59  TYR59       0.0417
     11  CZ       135.7410  -79.2680   25.6570 C.ar   59  TYR59       0.1957
     12  OH       134.7550  -80.0800   26.1610 O.3    59  TYR59      -0.2866
     13  N        138.4110  -76.7220   20.9630 N.am   60  PHE60      -0.1976
     14  CA       137.4980  -77.0670   19.8760 C.3    60  PHE60       0.1639
     15  C        138.2140  -77.6280   18.6480 C.2    60  PHE60       0.2290
     16  O        137.5750  -78.3060   17.8360 O.2    60  PHE60      -0.2864
     17  CB       136.6030  -75.8640   19.5120 C.3    60  PHE60       0.0560
     18  CG       137.1460  -74.9690   18.4220 C.ar   60  PHE60      -0.0200
     19  CD1      137.0630  -75.3350   17.0840 C.ar   60  PHE60      -0.0042
     20  CD2      137.6780  -73.7310   18.7330 C.ar   60  PHE60      -0.0042
     21  CE1      137.5540  -74.5170   16.0950 C.ar   60  PHE60      -0.0003
     22  CE2      138.1630  -72.9000   17.7410 C.ar   60  PHE60      -0.0003
     23  CZ       138.1000  -73.2940   16.4210 C.ar   60  PHE60      -0.0000
     24  N        140.1660  -80.0730   18.3830 N.3    62  ILE62      -0.1231
     25  CA       140.3920  -81.5120   18.3940 C.3    62  ILE62       0.1692
     26  C        139.3260  -82.2520   17.5940 C.2    62  ILE62       0.2593
     27  O        139.5860  -83.3530   17.0970 O.2    62  ILE62      -0.2718
     28  CB       140.4660  -82.0360   19.8450 C.3    62  ILE62       0.0266
     29  CG1      141.5880  -83.0580   19.9890 C.3    62  ILE62       0.0019
     30  CG2      139.1680  -82.6850   20.2760 C.3    62  ILE62       0.0020
     31  CD1      142.8530  -82.4680   20.5430 C.3    62  ILE62       0.0001
     32  N        138.1480  -81.6560   17.4230 N.am   63  GLY63      -0.1943
     33  CA       136.9900  -82.3390   16.8900 C.3    63  GLY63       0.1998
     34  C        137.0550  -82.7560   15.4320 C.2    63  GLY63       0.2480
     35  O        136.7860  -83.9180   15.0950 O.2    63  GLY63      -0.2729
     36  N        137.3640  -81.8100   14.5320 N.am   64  PRO64      -0.2726
     37  CA       137.3810  -82.1530   13.0970 C.3    64  PRO64       0.1402
     38  C        138.1730  -83.4080   12.7710 C.2    64  PRO64       0.2269
     39  O        137.6280  -84.3280   12.1540 O.2    64  PRO64      -0.2865
     40  CB       137.9900  -80.8980   12.4580 C.3    64  PRO64       0.0296
     41  CG       137.5490  -79.7900   13.3510 C.3    64  PRO64       0.0237
     42  CD       137.5810  -80.3660   14.7480 C.3    64  PRO64       0.0939
     43  N        139.2060  -85.6260   14.9370 N.3    66  THR66      -0.1203
     44  CA       138.7650  -86.7350   15.7780 C.3    66  THR66       0.1994
     45  C        137.6300  -87.5070   15.1170 C.2    66  THR66       0.2618
     46  O        137.6140  -88.7430   15.1440 O.2    66  THR66      -0.2717
     47  CB       138.3420  -86.2290   17.1570 C.3    66  THR66       0.1784
     48  OG1      139.4910  -85.7260   17.8460 O.3    66  THR66      -0.2211
     49  CG2      137.7290  -87.3520   17.9820 C.3    66  THR66       0.0376
     50  N        136.6820  -86.8000   14.4990 N.am   67  LEU67      -0.1965
     51  CA       135.5560  -87.4780   13.8680 C.3    67  LEU67       0.1728
     52  C        135.7240  -87.6890   12.3690 C.2    67  LEU67       0.2616
     53  O        135.0160  -88.5270   11.8010 O.2    67  LEU67      -0.2715
     54  CB       134.2540  -86.7080   14.1200 C.3    67  LEU67       0.0311
     55  CG       133.7560  -86.6640   15.5660 C.3    67  LEU67       0.0022
     56  CD1      132.3310  -86.1570   15.6190 C.3    67  LEU67       0.0001
     57  CD2      133.8680  -88.0240   16.2340 C.3    67  LEU67       0.0001
     58  N        136.6460  -86.9800   11.7160 N.am   68  LEU68      -0.1977
     59  CA       136.7360  -87.0000   10.2640 C.3    68  LEU68       0.1596
     60  C        138.1430  -87.2150    9.7210 C.2    68  LEU68       0.2287
     61  O        138.3130  -87.2310    8.4970 O.2    68  LEU68      -0.2864
     62  CB       136.1760  -85.6930    9.6830 C.3    68  LEU68       0.0297
     63  CG       134.6710  -85.4310    9.7850 C.3    68  LEU68       0.0022
     64  CD1      134.3650  -83.9820    9.4440 C.3    68  LEU68       0.0001
     65  CD2      133.9010  -86.3510    8.8620 C.3    68  LEU68       0.0001
     66  N        141.3760  -90.9130   18.7930 N.3    78  TYR78      -0.1241
     67  CA       141.5250  -89.7140   19.6060 C.3    78  TYR78       0.1605
     68  C        142.9780  -89.2600   19.6810 C.2    78  TYR78       0.2264
     69  O        143.2450  -88.0550   19.7150 O.2    78  TYR78      -0.2867
     70  CB       140.9360  -89.9670   20.9900 C.3    78  TYR78       0.0534
     71  CG       139.5020  -90.4440   20.9050 C.ar   78  TYR78      -0.0201
     72  CD1      138.4760  -89.5640   20.5900 C.ar   78  TYR78      -0.0009
     73  CD2      139.1790  -91.7780   21.1090 C.ar   78  TYR78      -0.0009
     74  CE1      137.1630  -89.9970   20.4970 C.ar   78  TYR78       0.0417
     75  CE2      137.8720  -92.2220   21.0180 C.ar   78  TYR78       0.0417
     76  CZ       136.8660  -91.3280   20.7110 C.ar   78  TYR78       0.1957
     77  OH       135.5630  -91.7670   20.6210 O.3    78  TYR78      -0.2866
     78  N        140.6560  -81.8630   25.9360 N.3   138  ALA138     -0.1245
     79  CA       139.6180  -82.4020   25.0660 C.3   138  ALA138      0.1562
     80  C        139.9440  -83.8340   24.6700 C.2   138  ALA138      0.2260
     81  O        139.0750  -84.7150   24.7140 O.2   138  ALA138     -0.2867
     82  CB       139.4540  -81.5190   23.8290 C.3   138  ALA138      0.0290
     83  N        139.3450  -86.1110   27.7290 N.3   141  LEU141     -0.1231
     84  CA       137.9240  -86.3630   27.9340 C.3   141  LEU141      0.1693
     85  C        137.3720  -87.3240   26.8860 C.2   141  LEU141      0.2591
     86  O        136.5400  -88.1820   27.2010 O.2   141  LEU141     -0.2718
     87  CB       137.1560  -85.0430   27.9210 C.3   141  LEU141      0.0284
     88  CG       137.3480  -84.1470   29.1440 C.3   141  LEU141      0.0019
     89  CD1      136.5690  -82.8530   28.9880 C.3   141  LEU141      0.0001
     90  CD2      136.9210  -84.8820   30.4030 C.3   141  LEU141      0.0001
     91  N        137.8290  -87.2070   25.6370 N.am  142  LEU142     -0.1980
     92  CA       137.3260  -88.0980   24.5950 C.3   142  LEU142      0.1596
     93  C        137.8720  -89.5130   24.7590 C.2   142  LEU142      0.2287
     94  O        137.1340  -90.4940   24.6050 O.2   142  LEU142     -0.2864
     95  CB       137.6800  -87.5410   23.2180 C.3   142  LEU142      0.0297
     96  CG       137.0320  -86.2220   22.7910 C.3   142  LEU142      0.0022
     97  CD1      137.4900  -85.8350   21.3880 C.3   142  LEU142      0.0001
     98  CD2      135.5180  -86.3160   22.8630 C.3   142  LEU142      0.0001
     99  N        135.7920  -91.3250   27.2080 N.3   145  LEU145     -0.1245
    100  CA       134.3940  -90.9600   27.0080 C.3   145  LEU145      0.1561
    101  C        133.4530  -91.8860   27.7630 C.2   145  LEU145      0.2260
    102  O        132.3500  -91.4750   28.1400 O.2   145  LEU145     -0.2867
    103  CB       134.0640  -90.9740   25.5170 C.3   145  LEU145      0.0270
    104  CG       132.8830  -90.1130   25.0820 C.3   145  LEU145      0.0019
    105  CD1      133.0800  -88.6920   25.5670 C.3   145  LEU145      0.0001
    106  CD2      132.7610  -90.1440   23.5730 C.3   145  LEU145      0.0001
    107  N        133.1300  -90.5590   31.3070 N.3   148  VAL148     -0.1245
    108  CA       132.3010  -89.3560   31.3010 C.3   148  VAL148      0.1561
    109  C        130.8330  -89.7220   31.1130 C.2   148  VAL148      0.2260
    110  O        129.9440  -89.1260   31.7320 O.2   148  VAL148     -0.2867
    111  CB       132.7830  -88.3740   30.2180 C.3   148  VAL148      0.0252
    112  CG1      132.0570  -87.0370   30.3510 C.3   148  VAL148      0.0019
    113  CG2      134.2840  -88.1830   30.3110 C.3   148  VAL148      0.0019
    114  N        127.9090  -88.9100   33.7840 N.3   152  PHE152     -0.1241
    115  CA       126.7060  -88.1560   33.4530 C.3   152  PHE152      0.1605
    116  C        125.4350  -88.9780   33.6130 C.2   152  PHE152      0.2264
    117  O        124.3540  -88.3930   33.7370 O.2   152  PHE152     -0.2867
    118  CB       126.7930  -87.6140   32.0260 C.3   152  PHE152      0.0534
    119  CG       127.5980  -86.3510   31.9040 C.ar  152  PHE152     -0.0203
    120  CD1      128.2920  -85.8430   32.9900 C.ar  152  PHE152     -0.0042
    121  CD2      127.6460  -85.6610   30.7060 C.ar  152  PHE152     -0.0042
    122  CE1      129.0310  -84.6760   32.8770 C.ar  152  PHE152     -0.0003
    123  CE2      128.3810  -84.4920   30.5880 C.ar  152  PHE152     -0.0003
    124  CZ       129.0730  -84.0000   31.6740 C.ar  152  PHE152     -0.0000
@<TRIPOS>BOND
     1    61    60    2
     2    65    63    1
     3    64    63    1
     4    62    63    1
     5    62    59    1
     6    60    59    1
     7    59    58    1
     8    58    52   am
     9    53    52    2
    10    39    38    2
    11    52    51    1
    12    40    37    1
    13    40    41    1
    14    38    37    1
    15    37    36    1
    16    41    42    1
    17    51    54    1
    18    51    50    1
    19    54    55    1
    20    50    45   am
    21    36    42    1
    22    36    34   am
    23    43    44    1
    24    35    34    2
    25    45    46    2
    26    45    44    1
    27    34    33    1
    28    55    56    1
    29    55    57    1
    30    44    47    1
    31    21    23   ar
    32    21    19   ar
    33    23    22   ar
    34    33    32    1
    35    19    18   ar
    36    27    26    2
    37    47    48    1
    38    47    49    1
    39    32    26   am
    40    26    25    1
    41    22    20   ar
    42    16    15    2
    43    24    25    1
    44    25    28    1
    45    18    20   ar
    46    18    17    1
    47    15    14    1
    48    66    67    1
    49    17    14    1
    50    67    68    1
    51    67    70    1
    52    68    69    2
    53    28    29    1
    54    28    30    1
    55    14    13    1
    56    29    31    1
    57    74    72   ar
    58    74    76   ar
    59    72    71   ar
    60    77    76    1
    61    76    75   ar
    62    71    70    1
    63    71    73   ar
    64    13     3   am
    65    75    73   ar
    66    97    96    1
    67     4     3    2
    68     3     2    1
    69     1     2    1
    70    96    98    1
    71    96    95    1
    72     2     5    1
    73    95    92    1
    74   106   104    1
    75    82    79    1
    76     5     6    1
    77     8     6   ar
    78     8    10   ar
    79    92    93    1
    80    92    91    1
    81    94    93    2
    82     6     7   ar
    83    80    81    2
    84    80    79    1
    85    10    11   ar
    86    79    78    1
    87   104   103    1
    88   104   105    1
    89   103   100    1
    90     7     9   ar
    91    91    85   am
    92    11     9   ar
    93    11    12    1
    94    85    86    2
    95    85    84    1
    96   100    99    1
    97   100   101    1
    98    83    84    1
    99   101   102    2
   100    87    84    1
   101    87    88    1
   102    89    88    1
   103    88    90    1
   104   111   113    1
   105   111   112    1
   106   111   108    1
   107   123   121   ar
   108   123   124   ar
   109   121   119   ar
   110   109   108    1
   111   109   110    2
   112   108   107    1
   113   124   122   ar
   114   119   118    1
   115   119   120   ar
   116   118   115    1
   117   122   120   ar
   118   115   116    1
   119   115   114    1
   120   116   117    2
