@<TRIPOS>MOLECULE
tmp/5oy0J14.pdb
 70 67 0 0 0
SMALL
GASTEIGER

@<TRIPOS>ATOM
      1  N        139.4390  -83.4850   13.1840 N.3    65  TRP65      -0.1241
      2  CA       140.2160  -84.6900   12.9050 C.3    65  TRP65       0.1605
      3  C        139.7550  -85.8750   13.7450 C.2    65  TRP65       0.2264
      4  O        139.9000  -87.0270   13.3170 O.2    65  TRP65      -0.2867
      5  CB       141.7040  -84.4320   13.1370 C.3    65  TRP65       0.0550
      6  CG       142.3770  -83.7210   12.0050 C.ar   65  TRP65       0.0003
      7  CD1      142.3830  -84.0910   10.6950 C.ar   65  TRP65       0.0946
      8  CD2      143.1630  -82.5260   12.0890 C.ar   65  TRP65       0.0152
      9  NE1      143.1200  -83.2000    9.9550 N.ar   65  TRP65      -0.2442
     10  CE2      143.6070  -82.2280   10.7870 C.ar   65  TRP65       0.0810
     11  CE3      143.5330  -81.6800   13.1380 C.ar   65  TRP65       0.0012
     12  CZ2      144.3970  -81.1200   10.5060 C.ar   65  TRP65       0.0191
     13  CZ3      144.3180  -80.5790   12.8550 C.ar   65  TRP65       0.0001
     14  CH2      144.7420  -80.3100   11.5490 C.ar   65  TRP65       0.0015
     15  N        139.1510  -87.3780   10.5810 N.3    69  GLY69      -0.1210
     16  CA       140.5050  -87.5800   10.1230 C.3    69  GLY69       0.1940
     17  C        140.7350  -88.9860    9.6130 C.2    69  GLY69       0.2454
     18  O        139.8630  -89.8610    9.6700 O.2    69  GLY69      -0.2732
     19  N        141.9450  -89.2200    9.0940 N.am   70  PRO70      -0.2717
     20  CA       142.2510  -90.5520    8.5470 C.3    70  PRO70       0.1535
     21  C        142.3070  -91.6480    9.5980 C.2    70  PRO70       0.2598
     22  O        142.0490  -92.8110    9.2670 O.2    70  PRO70      -0.2715
     23  CB       143.6110  -90.3520    7.8630 C.3    70  PRO70       0.0310
     24  CG       144.1930  -89.1480    8.5130 C.3    70  PRO70       0.0237
     25  CD       143.0450  -88.2650    8.8860 C.3    70  PRO70       0.0939
     26  N        142.6300  -91.3270   10.8500 N.am   71  LEU71      -0.1978
     27  CA       142.6560  -92.3350   11.9030 C.3    71  LEU71       0.1596
     28  C        141.3080  -92.4890   12.5900 C.2    71  LEU71       0.2287
     29  O        141.2160  -93.2120   13.5870 O.2    71  LEU71      -0.2864
     30  CB       143.7190  -92.0100   12.9580 C.3    71  LEU71       0.0297
     31  CG       145.1420  -91.5590   12.6140 C.3    71  LEU71       0.0022
     32  CD1      146.0980  -91.9240   13.7460 C.3    71  LEU71       0.0001
     33  CD2      145.6360  -92.1170   11.3000 C.3    71  LEU71       0.0001
     34  N        145.0020  -89.6130   17.1760 N.3    80  GLY80      -0.1225
     35  CA       145.1630  -88.9420   15.8930 C.3    80  GLY80       0.1811
     36  C        144.6480  -87.5170   15.9240 C.2    80  GLY80       0.2280
     37  O        145.3160  -86.5840   15.4570 O.2    80  GLY80      -0.2866
     38  N        147.1390  -85.3940   17.9960 N.3    83  ILE83      -0.1231
     39  CA       148.3660  -85.0810   17.2680 C.3    83  ILE83       0.1692
     40  C        148.1050  -83.9790   16.2480 C.2    83  ILE83       0.2592
     41  O        148.8740  -83.0120   16.1320 O.2    83  ILE83      -0.2718
     42  CB       148.9300  -86.3550   16.6100 C.3    83  ILE83       0.0266
     43  CG1      149.4560  -87.3140   17.6850 C.3    83  ILE83       0.0019
     44  CG2      150.0240  -86.0160   15.6060 C.3    83  ILE83       0.0020
     45  CD1      149.6900  -88.7350   17.1990 C.3    83  ILE83       0.0001
     46  N        147.0000  -84.0980   15.5080 N.am   84  GLY84      -0.1957
     47  CA       146.6620  -83.0590   14.5500 C.3    84  GLY84       0.1869
     48  C        146.4950  -81.7020   15.2070 C.2    84  GLY84       0.2309
     49  O        147.0890  -80.7100   14.7730 O.2    84  GLY84      -0.2863
     50  N        147.5610  -80.6060   18.0910 N.3    86  LEU86      -0.1231
     51  CA       148.8050  -80.0980   18.6610 C.3    86  LEU86       0.1693
     52  C        149.6950  -79.5020   17.5780 C.2    86  LEU86       0.2591
     53  O        150.2390  -78.4030   17.7420 O.2    86  LEU86      -0.2718
     54  CB       149.5420  -81.2090   19.4090 C.3    86  LEU86       0.0284
     55  CG       148.8960  -81.8230   20.6550 C.3    86  LEU86       0.0019
     56  CD1      149.8180  -82.8640   21.2720 C.3    86  LEU86       0.0001
     57  CD2      148.5060  -80.7680   21.6750 C.3    86  LEU86       0.0001
     58  N        149.8640  -80.2210   16.4630 N.am   87  ALA87      -0.1980
     59  CA       150.6800  -79.6930   15.3720 C.3    87  ALA87       0.1597
     60  C        150.0950  -78.3950   14.8280 C.2    87  ALA87       0.2287
     61  O        150.8340  -77.4480   14.5120 O.2    87  ALA87      -0.2864
     62  CB       150.8080  -80.7340   14.2610 C.3    87  ALA87       0.0319
     63  N        150.8590  -75.6070   17.2410 N.3    90  LEU90      -0.1245
     64  CA       152.2660  -75.2370   17.1230 C.3    90  LEU90       0.1561
     65  C        152.4860  -74.3040   15.9360 C.2    90  LEU90       0.2260
     66  O        153.1260  -73.2500   16.0640 O.2    90  LEU90      -0.2867
     67  CB       153.1250  -76.4960   16.9960 C.3    90  LEU90       0.0270
     68  CG       154.6460  -76.3170   16.9810 C.3    90  LEU90       0.0019
     69  CD1      155.1150  -75.5420   18.2070 C.3    90  LEU90       0.0001
     70  CD2      155.3360  -77.6710   16.9060 C.3    90  LEU90       0.0001
@<TRIPOS>BOND
     1    23    24    1
     2    23    20    1
     3    24    25    1
     4    20    19    1
     5    20    21    1
     6    25    19    1
     7    19    17   am
     8    22    21    2
     9    21    26   am
    10    17    18    2
    11    17    16    1
    12     9     7   ar
    13     9    10   ar
    14    16    15    1
    15    12    10   ar
    16    12    14   ar
    17     7     6   ar
    18    10     8   ar
    19    26    27    1
    20    33    31    1
    21    14    13   ar
    22    27    28    1
    23    27    30    1
    24     6     8   ar
    25     6     5    1
    26     8    11   ar
    27    28    29    2
    28    31    30    1
    29    31    32    1
    30    13    11   ar
    31     2     5    1
    32     2     1    1
    33     2     3    1
    34     4     3    2
    35    62    59    1
    36    61    60    2
    37    47    48    1
    38    47    46    1
    39    49    48    2
    40    60    59    1
    41    59    58    1
    42    37    36    2
    43    46    40   am
    44    44    42    1
    45    35    36    1
    46    35    34    1
    47    65    66    2
    48    65    64    1
    49    41    40    2
    50    40    39    1
    51    58    52   am
    52    42    39    1
    53    42    43    1
    54    70    68    1
    55    68    67    1
    56    68    69    1
    57    67    64    1
    58    64    63    1
    59    45    43    1
    60    39    38    1
    61    52    53    2
    62    52    51    1
    63    50    51    1
    64    51    54    1
    65    54    55    1
    66    55    56    1
    67    55    57    1
