@<TRIPOS>MOLECULE
tmp/5oy0L59.pdb
 118 118 0 0 0
SMALL
GASTEIGER

@<TRIPOS>ATOM
      1  N        109.6310  -77.4030  102.7270 N.3    85  VAL85      -0.1231
      2  CA       108.2020  -77.6870  102.6020 C.3    85  VAL85       0.1692
      3  C        107.9590  -78.6890  101.4820 C.2    85  VAL85       0.2592
      4  O        107.1730  -79.6330  101.6300 O.2    85  VAL85      -0.2718
      5  CB       107.4020  -76.3900  102.3720 C.3    85  VAL85       0.0266
      6  CG1      105.9390  -76.7150  102.1150 C.3    85  VAL85       0.0020
      7  CG2      107.5240  -75.4640  103.5600 C.3    85  VAL85       0.0020
      8  N        108.6370  -78.5020  100.3460 N.am   86  TRP86      -0.1976
      9  CA       108.4620  -79.4060   99.2100 C.3    86  TRP86       0.1640
     10  C        108.8730  -80.8320   99.5620 C.2    86  TRP86       0.2290
     11  O        108.1360  -81.7920   99.3010 O.2    86  TRP86      -0.2864
     12  CB       109.2650  -78.9010   98.0140 C.3    86  TRP86       0.0576
     13  CG       109.3650  -79.8960   96.8980 C.ar   86  TRP86       0.0006
     14  CD1      108.4020  -80.1980   95.9780 C.ar   86  TRP86       0.0946
     15  CD2      110.4970  -80.7140   96.5770 C.ar   86  TRP86       0.0152
     16  NE1      108.8630  -81.1570   95.1090 N.ar   86  TRP86      -0.2442
     17  CE2      110.1460  -81.4910   95.4550 C.ar   86  TRP86       0.0810
     18  CE3      111.7700  -80.8690   97.1330 C.ar   86  TRP86       0.0012
     19  CZ2      111.0220  -82.4060   94.8790 C.ar   86  TRP86       0.0191
     20  CZ3      112.6390  -81.7790   96.5590 C.ar   86  TRP86       0.0001
     21  CH2      112.2620  -82.5350   95.4440 C.ar   86  TRP86       0.0015
     22  N        109.2140  -82.1830  102.5270 N.3    88  SER88      -0.1202
     23  CA       108.3250  -82.7180  103.5510 C.3    88  SER88       0.2020
     24  C        107.0040  -83.1670  102.9460 C.2    88  SER88       0.2619
     25  O        106.4350  -84.1780  103.3700 O.2    88  SER88      -0.2717
     26  CB       108.0880  -81.6720  104.6400 C.3    88  SER88       0.2103
     27  OG       107.4720  -80.5140  104.1060 O.3    88  SER88      -0.2182
     28  N        106.5030  -82.4330  101.9520 N.am   89  GLY89      -0.1942
     29  CA       105.3190  -82.8880  101.2440 C.3    89  GLY89       0.2014
     30  C        105.5620  -84.1780  100.4860 C.2    89  GLY89       0.2638
     31  O        104.6880  -85.0460  100.4240 O.2    89  GLY89      -0.2714
     32  N        106.7510  -84.3170   99.8940 N.am   90  MET90      -0.1976
     33  CA       107.1070  -85.5720   99.2340 C.3    90  MET90       0.1605
     34  C        107.0580  -86.7330  100.2180 C.2    90  MET90       0.2287
     35  O        106.4540  -87.7790   99.9410 O.2    90  MET90      -0.2864
     36  CB       108.4980  -85.4730   98.6050 C.3    90  MET90       0.0413
     37  CG       108.6250  -84.4830   97.4560 C.3    90  MET90       0.0598
     38  SD       107.2590  -84.5230   96.2800 S.3    90  MET90      -0.1393
     39  CE       106.3310  -83.0920   96.8290 C.3    90  MET90       0.0692
     40  N        105.4610  -86.8480  103.0540 N.3    92  PHE92      -0.1227
     41  CA       104.1040  -87.0520  103.5510 C.3    92  PHE92       0.1736
     42  C        103.2580  -87.8210  102.5470 C.2    92  PHE92       0.2595
     43  O        102.4830  -88.7060  102.9290 O.2    92  PHE92      -0.2718
     44  CB       103.4420  -85.7150  103.8780 C.3    92  PHE92       0.0547
     45  CG       102.1750  -85.8550  104.6750 C.ar   92  PHE92      -0.0202
     46  CD1      102.2070  -85.8080  106.0620 C.ar   92  PHE92      -0.0042
     47  CD2      100.9560  -86.0540  104.0440 C.ar   92  PHE92      -0.0042
     48  CE1      101.0490  -85.9450  106.8040 C.ar   92  PHE92      -0.0003
     49  CE2       99.7930  -86.1930  104.7820 C.ar   92  PHE92      -0.0003
     50  CZ        99.8400  -86.1360  106.1650 C.ar   92  PHE92      -0.0000
     51  N        103.3680  -87.4790  101.2630 N.am   93  HIS93      -0.1975
     52  CA       102.6360  -88.2240  100.2490 C.3    93  HIS93       0.1656
     53  C        103.1340  -89.6580  100.1490 C.2    93  HIS93       0.2291
     54  O        102.3410  -90.5690   99.8880 O.2    93  HIS93      -0.2864
     55  CB       102.7350  -87.5180   98.8980 C.3    93  HIS93       0.0771
     56  CG       101.5000  -86.7590   98.5290 C.ar   93  HIS93       0.0820
     57  ND1      100.4940  -87.3050   97.7610 N.ar   93  HIS93      -0.2267
     58  CD2      101.1000  -85.5010   98.8330 C.ar   93  HIS93       0.1154
     59  CE1       99.5310  -86.4150   97.6030 C.ar   93  HIS93       0.1986
     60  NE2       99.8740  -85.3120   98.2420 N.ar   93  HIS93      -0.2212
     61  N        101.3950  -91.3180  103.5640 N.3    96  LYS96      -0.1231
     62  CA        99.9540  -91.4870  103.6940 C.3    96  LYS96       0.1693
     63  C         99.2150  -91.6090  102.3690 C.2    96  LYS96       0.2592
     64  O         97.9890  -91.7610  102.3800 O.2    96  LYS96      -0.2718
     65  CB        99.3570  -90.3270  104.5010 C.3    96  LYS96       0.0285
     66  CG        99.6490  -90.4020  105.9930 C.3    96  LYS96       0.0035
     67  CD        98.7480  -89.4690  106.7900 C.3    96  LYS96       0.0206
     68  CE        99.0040  -89.5970  108.2840 C.3    96  LYS96       0.1093
     69  NZ        98.0890  -88.7370  109.0870 N.3    96  LYS96      -0.1314
     70  N         99.9120  -91.5530  101.2280 N.am   97  PHE97      -0.1976
     71  CA        99.2340  -91.6470   99.9390 C.3    97  PHE97       0.1639
     72  C        100.0190  -92.4890   98.9380 C.2    97  PHE97       0.2290
     73  O         99.8870  -92.2940   97.7240 O.2    97  PHE97      -0.2864
     74  CB        98.9740  -90.2570   99.3420 C.3    97  PHE97       0.0560
     75  CG        97.9770  -89.4360  100.1140 C.ar   97  PHE97      -0.0200
     76  CD1       96.6180  -89.6890  100.0070 C.ar   97  PHE97      -0.0042
     77  CD2       98.3970  -88.4030  100.9350 C.ar   97  PHE97      -0.0042
     78  CE1       95.7000  -88.9340  100.7150 C.ar   97  PHE97      -0.0003
     79  CE2       97.4840  -87.6440  101.6440 C.ar   97  PHE97      -0.0003
     80  CZ        96.1340  -87.9090  101.5320 C.ar   97  PHE97      -0.0000
     81  N        100.1220  -90.2380   95.2510 N.3   115  GLN115     -0.1231
     82  CA        99.1220  -89.3000   94.7430 C.3   115  GLN115      0.1698
     83  C         97.8960  -90.0180   94.1860 C.2   115  GLN115      0.2592
     84  O         97.9290  -90.5570   93.0760 O.2   115  GLN115     -0.2718
     85  CB        99.7350  -88.3910   93.6690 C.3   115  GLN115      0.0381
     86  CG        98.7990  -87.3110   93.1440 C.3   115  GLN115      0.0905
     87  CD        99.3370  -86.6280   91.8950 C.2   115  GLN115      0.2608
     88  OE1       98.9280  -85.5190   91.5510 O.2   115  GLN115     -0.2717
     89  NE2      100.2540  -87.2960   91.2070 N.am  115  GLN115     -0.0878
     90  N         96.8040  -90.0190   94.9430 N.am  116  VAL116     -0.1980
     91  CA        95.5530  -90.6370   94.5220 C.3   116  VAL116      0.1595
     92  C         94.6390  -89.5430   93.9880 C.2   116  VAL116      0.2287
     93  O         94.3200  -88.5860   94.7030 O.2   116  VAL116     -0.2864
     94  CB        94.8840  -91.4000   95.6770 C.3   116  VAL116      0.0276
     95  CG1       93.6320  -92.1150   95.1870 C.3   116  VAL116      0.0022
     96  CG2       95.8630  -92.3840   96.3030 C.3   116  VAL116      0.0022
     97  N         91.2250  -87.7720   92.9380 N.3   118  TRP118     -0.1241
     98  CA        89.8520  -87.8210   93.4350 C.3   118  TRP118      0.1605
     99  C         88.8990  -88.1670   92.2930 C.2   118  TRP118      0.2264
    100  O         88.9390  -87.5170   91.2440 O.2   118  TRP118     -0.2867
    101  CB        89.4580  -86.4840   94.0560 C.3   118  TRP118      0.0550
    102  CG        90.1240  -86.1970   95.3690 C.ar  118  TRP118      0.0003
    103  CD1       90.4620  -87.1020   96.3330 C.ar  118  TRP118      0.0946
    104  CD2       90.5390  -84.9140   95.8600 C.ar  118  TRP118      0.0152
    105  NE1       91.0530  -86.4610   97.3960 N.ar  118  TRP118     -0.2442
    106  CE2       91.1160  -85.1180   97.1290 C.ar  118  TRP118      0.0810
    107  CE3       90.4770  -83.6130   95.3490 C.ar  118  TRP118      0.0012
    108  CZ2       91.6260  -84.0710   97.8960 C.ar  118  TRP118      0.0191
    109  CZ3       90.9860  -82.5740   96.1120 C.ar  118  TRP118      0.0001
    110  CH2       91.5520  -82.8100   97.3710 C.ar  118  TRP118      0.0015
    111  N        108.6740  -80.1010  107.8090 N.3   166  LEU166     -0.1245
    112  CA       107.9070  -78.8990  108.1340 C.3   166  LEU166      0.1561
    113  C        108.5780  -78.0940  109.2460 C.2   166  LEU166      0.2260
    114  O        108.6490  -76.8570  109.1800 O.2   166  LEU166     -0.2867
    115  CB       106.4800  -79.2760  108.5310 C.3   166  LEU166      0.0270
    116  CG       105.6210  -79.9180  107.4410 C.3   166  LEU166      0.0019
    117  CD1      104.2500  -80.2770  107.9860 C.3   166  LEU166      0.0001
    118  CD2      105.4960  -78.9860  106.2510 C.3   166  LEU166      0.0001
@<TRIPOS>BOND
     1    89    87   am
     2   100    99    2
     3    88    87    2
     4    87    86    1
     5    99    98    1
     6    97    98    1
     7    84    83    2
     8    86    85    1
     9    98   101    1
    10    85    82    1
    11    92    91    1
    12    92    93    2
    13   101   102    1
    14    83    82    1
    15    83    90   am
    16    91    90    1
    17    91    94    1
    18    82    81    1
    19    19    21   ar
    20    19    17   ar
    21    16    17   ar
    22    16    14   ar
    23    95    94    1
    24   107   104   ar
    25   107   109   ar
    26   102   104   ar
    27   102   103   ar
    28    21    20   ar
    29    17    15   ar
    30    94    96    1
    31   104   106   ar
    32    14    13   ar
    33   109   110   ar
    34    38    39    1
    35    38    37    1
    36   103   105   ar
    37    20    18   ar
    38    15    13   ar
    39    15    18   ar
    40    13    12    1
    41   106   105   ar
    42   106   108   ar
    43   110   108   ar
    44    37    36    1
    45    59    57   ar
    46    59    60   ar
    47    73    72    2
    48    57    56   ar
    49    12     9    1
    50    60    58   ar
    51    56    58   ar
    52    56    55    1
    53    36    33    1
    54    55    52    1
    55    72    71    1
    56     9    10    1
    57     9     8    1
    58    33    32    1
    59    33    34    1
    60    11    10    2
    61    74    71    1
    62    74    75    1
    63    54    53    2
    64    32    30   am
    65    71    70    1
    66    35    34    2
    67    76    75   ar
    68    76    78   ar
    69    75    77   ar
    70    53    52    1
    71    52    51    1
    72     8     3   am
    73    31    30    2
    74    30    29    1
    75    78    80   ar
    76    77    79   ar
    77    70    63   am
    78    29    28    1
    79    51    42   am
    80     3     4    2
    81     3     2    1
    82    80    79   ar
    83    28    24   am
    84     6     5    1
    85    63    64    2
    86    63    62    1
    87     5     2    1
    88     5     7    1
    89    22    23    1
    90    42    43    2
    91    42    41    1
    92     2     1    1
    93    24    25    2
    94    24    23    1
    95    40    41    1
    96    41    44    1
    97    23    26    1
    98    61    62    1
    99    62    65    1
   100    44    45    1
   101    47    45   ar
   102    47    49   ar
   103    27    26    1
   104    65    66    1
   105    45    46   ar
   106    49    50   ar
   107    66    67    1
   108    46    48   ar
   109    50    48   ar
   110   118   116    1
   111    67    68    1
   112   116   117    1
   113   116   115    1
   114   111   112    1
   115   112   115    1
   116   112   113    1
   117    68    69    1
   118   114   113    2
