@<TRIPOS>MOLECULE
tmp/5oy0J16.pdb
 95 91 0 0 0
SMALL
GASTEIGER

@<TRIPOS>ATOM
      1  N        129.6420  -57.5660   24.2510 N.3    33  PHE33      -0.1241
      2  CA       130.0500  -58.9520   24.0470 C.3    33  PHE33       0.1605
      3  C        131.4320  -59.0330   23.4110 C.2    33  PHE33       0.2264
      4  O        132.3100  -59.7480   23.9070 O.2    33  PHE33      -0.2867
      5  CB       129.0060  -59.6840   23.1930 C.3    33  PHE33       0.0534
      6  CG       129.4690  -61.0180   22.6840 C.ar   33  PHE33      -0.0203
      7  CD1      129.5370  -62.1130   23.5280 C.ar   33  PHE33      -0.0042
      8  CD2      129.8470  -61.1740   21.3620 C.ar   33  PHE33      -0.0042
      9  CE1      129.9750  -63.3370   23.0620 C.ar   33  PHE33      -0.0003
     10  CE2      130.2870  -62.3950   20.8920 C.ar   33  PHE33      -0.0003
     11  CZ       130.3520  -63.4770   21.7420 C.ar   33  PHE33      -0.0000
     12  N        134.1750  -57.6400   25.7650 N.3    36  ASN36      -0.1225
     13  CA       134.5280  -58.4310   26.9340 C.3    36  ASN36       0.1785
     14  C        135.1210  -59.7830   26.5790 C.2    36  ASN36       0.2597
     15  O        135.4100  -60.5760   27.4830 O.2    36  ASN36      -0.2718
     16  CB       133.3090  -58.6080   27.8400 C.3    36  ASN36       0.1169
     17  CG       133.0090  -57.3650   28.6330 C.2    36  ASN36       0.2627
     18  OD1      133.7730  -56.9900   29.5200 O.2    36  ASN36      -0.2716
     19  ND2      131.9030  -56.7050   28.3120 N.am   36  ASN36      -0.0877
     20  N        135.3070  -60.0660   25.2910 N.am   37  LEU37      -0.1966
     21  CA       136.0850  -61.2170   24.8810 C.3    37  LEU37       0.1713
     22  C        137.5280  -61.0400   25.3530 C.2    37  LEU37       0.2458
     23  O        137.9650  -59.9170   25.6210 O.2    37  LEU37      -0.2730
     24  CB       136.0190  -61.3790   23.3620 C.3    37  LEU37       0.0310
     25  CG       134.7000  -61.8970   22.7760 C.3    37  LEU37       0.0022
     26  CD1      134.6940  -61.7080   21.2720 C.3    37  LEU37       0.0001
     27  CD2      134.4880  -63.3620   23.1170 C.3    37  LEU37       0.0001
     28  N        138.2840  -62.1360   25.4810 N.am   38  PRO38      -0.2727
     29  CA       139.6720  -62.0140   25.9610 C.3    38  PRO38       0.1402
     30  C        140.4990  -61.0040   25.1880 C.2    38  PRO38       0.2269
     31  O        141.4200  -60.4040   25.7560 O.2    38  PRO38      -0.2865
     32  CB       140.2340  -63.4290   25.7850 C.3    38  PRO38       0.0296
     33  CG       139.0640  -64.3090   25.6960 C.3    38  PRO38       0.0237
     34  CD       137.9250  -63.5290   25.1620 C.3    38  PRO38       0.0939
     35  N        138.9110  -57.4230   26.6580 N.3    41  ARG41      -0.1245
     36  CA       138.4580  -57.2370   28.0330 C.3    41  ARG41       0.1563
     37  C        139.4110  -56.3220   28.7960 C.2    41  ARG41       0.2260
     38  O        140.6280  -56.5230   28.7850 O.2    41  ARG41      -0.2867
     39  CB       138.3380  -58.5940   28.7290 C.3    41  ARG41       0.0307
     40  CG       137.3510  -58.6230   29.8880 C.3    41  ARG41       0.0489
     41  CD       137.3110  -60.0000   30.5310 C.3    41  ARG41       0.2205
     42  NE       136.9680  -61.0310   29.5580 N.pl3  41  ARG41      -0.0865
     43  CZ       137.2900  -62.3140   29.6820 C.cat  41  ARG41       0.5346
     44  NH1      137.9690  -62.7300   30.7420 N.pl3  41  ARG41       0.1354
     45  NH2      136.9370  -63.1800   28.7420 N.pl3  41  ARG41       0.1354
     46  N        146.9960  -63.5670   30.0610 N.3    48  LEU48      -0.1245
     47  CA       145.6850  -64.1560   30.3260 C.3    48  LEU48       0.1561
     48  C        144.8130  -64.1690   29.0720 C.2    48  LEU48       0.2260
     49  O        144.0760  -65.1360   28.8340 O.2    48  LEU48      -0.2867
     50  CB       144.9800  -63.4080   31.4590 C.3    48  LEU48       0.0270
     51  CG       143.6050  -63.9970   31.7950 C.3    48  LEU48       0.0019
     52  CD1      143.7470  -65.4460   32.2440 C.3    48  LEU48       0.0001
     53  CD2      142.8660  -63.1800   32.8400 C.3    48  LEU48       0.0001
     54  N        146.0110  -67.0150   27.0350 N.3    51  LEU51      -0.1231
     55  CA       145.6240  -68.2610   27.6900 C.3    51  LEU51       0.1693
     56  C        144.1700  -68.6130   27.3990 C.2    51  LEU51       0.2591
     57  O        143.8570  -69.7490   27.0360 O.2    51  LEU51      -0.2718
     58  CB       145.8540  -68.1560   29.1980 C.3    51  LEU51       0.0284
     59  CG       145.5470  -69.4130   30.0180 C.3    51  LEU51       0.0019
     60  CD1      146.5180  -70.5370   29.6870 C.3    51  LEU51       0.0001
     61  CD2      145.5650  -69.1030   31.5070 C.3    51  LEU51       0.0001
     62  N        143.2670  -67.6450   27.5520 N.am   52  GLU52      -0.1979
     63  CA       141.8460  -67.9220   27.3530 C.3    52  GLU52       0.1602
     64  C        141.5440  -68.2610   25.8920 C.2    52  GLU52       0.2287
     65  O        140.8270  -69.2340   25.5990 O.2    52  GLU52      -0.2864
     66  CB       141.0210  -66.7240   27.8210 C.3    52  GLU52       0.0415
     67  CG       139.5530  -67.0170   28.0460 C.3    52  GLU52       0.1163
     68  CD       138.7950  -65.8110   28.5720 C.2    52  GLU52       0.3649
     69  OE1      139.3640  -65.0340   29.3690 O.co2  52  GLU52      -0.2457
     70  OE2      137.6330  -65.6240   28.1620 O.co2  52  GLU52      -0.2457
     71  N        142.8530  -71.7060   25.1980 N.3    55  MET55      -0.1230
     72  CA       142.0020  -72.7400   25.7760 C.3    55  MET55       0.1702
     73  C        140.8140  -73.0220   24.8660 C.2    55  MET55       0.2592
     74  O        140.5770  -74.1710   24.4700 O.2    55  MET55      -0.2718
     75  CB       141.5400  -72.3270   27.1750 C.3    55  MET55       0.0401
     76  CG       142.6180  -72.4510   28.2500 C.3    55  MET55       0.0596
     77  SD       142.2360  -71.5800   29.7880 S.3    55  MET55      -0.1393
     78  CE       140.7270  -72.4060   30.2830 C.3    55  MET55       0.0692
     79  N        140.0860  -71.9720   24.4800 N.am   56  ALA56      -0.1980
     80  CA       138.9180  -72.1690   23.6230 C.3    56  ALA56       0.1597
     81  C        139.2970  -72.8520   22.3090 C.2    56  ALA56       0.2287
     82  O        138.6690  -73.8420   21.8950 O.2    56  ALA56      -0.2864
     83  CB       138.2380  -70.8260   23.3620 C.3    56  ALA56       0.0319
     84  N        140.7450  -76.4710   22.6360 N.3    59  TYR59      -0.1241
     85  CA       139.6460  -77.3590   22.9860 C.3    59  TYR59       0.1605
     86  C        138.8090  -77.7200   21.7640 C.2    59  TYR59       0.2264
     87  O        138.5120  -78.8980   21.5320 O.2    59  TYR59      -0.2867
     88  CB       138.7800  -76.7090   24.0600 C.3    59  TYR59       0.0534
     89  CG       137.7150  -77.6140   24.6160 C.ar   59  TYR59      -0.0201
     90  CD1      138.0160  -78.5590   25.5940 C.ar   59  TYR59      -0.0009
     91  CD2      136.4060  -77.5190   24.1770 C.ar   59  TYR59      -0.0009
     92  CE1      137.0370  -79.3880   26.1120 C.ar   59  TYR59       0.0417
     93  CE2      135.4230  -78.3380   24.6900 C.ar   59  TYR59       0.0417
     94  CZ       135.7410  -79.2680   25.6570 C.ar   59  TYR59       0.1957
     95  OH       134.7550  -80.0800   26.1610 O.3    59  TYR59      -0.2866
@<TRIPOS>BOND
     1    10     8   ar
     2    10    11   ar
     3    26    25    1
     4     8     6   ar
     5    87    86    2
     6    11     9   ar
     7    86    85    1
     8    82    81    2
     9    81    80    1
    10    84    85    1
    11     6     5    1
    12     6     7   ar
    13    25    27    1
    14    25    24    1
    15    85    88    1
    16     9     7   ar
    17     5     2    1
    18    24    21    1
    19    83    80    1
    20     3     4    2
    21     3     2    1
    22    80    79    1
    23     2     1    1
    24    88    89    1
    25    91    89   ar
    26    91    93   ar
    27    74    73    2
    28    79    73   am
    29    89    90   ar
    30    93    94   ar
    31    73    72    1
    32    21    20    1
    33    21    22    1
    34    34    28    1
    35    34    33    1
    36    30    31    2
    37    30    29    1
    38    71    72    1
    39    20    14   am
    40    22    28   am
    41    22    23    2
    42    28    29    1
    43    90    92   ar
    44    65    64    2
    45    94    92   ar
    46    94    95    1
    47    33    32    1
    48    12    13    1
    49    72    75    1
    50    32    29    1
    51    64    63    1
    52    14    13    1
    53    14    15    2
    54    35    36    1
    55    13    16    1
    56    54    55    1
    57    57    56    2
    58    75    76    1
    59    63    62    1
    60    63    66    1
    61    56    62   am
    62    56    55    1
    63    55    58    1
    64    66    67    1
    65    16    17    1
    66    36    39    1
    67    36    37    1
    68    67    68    1
    69    70    68   ar
    70    76    77    1
    71    19    17   am
    72    68    69   ar
    73    17    18    2
    74    39    40    1
    75    45    43    1
    76    38    37    2
    77    49    48    2
    78    48    47    1
    79    58    59    1
    80    42    43    2
    81    42    41    1
    82    43    44    1
    83    60    59    1
    84    77    78    1
    85    40    41    1
    86    59    61    1
    87    46    47    1
    88    47    50    1
    89    50    51    1
    90    51    52    1
    91    51    53    1
