@<TRIPOS>MOLECULE
tmp/5oy0I00.pdb
 72 67 0 0 0
SMALL
GASTEIGER

@<TRIPOS>ATOM
      1  N         85.1600  -88.0750   -6.7170 N.3     2  ALA2       -0.1231
      2  CA        86.0590  -87.2230   -5.9380 C.3     2  ALA2        0.1694
      3  C         86.1170  -85.8070   -6.5210 C.2     2  ALA2        0.2592
      4  O         87.1100  -85.3730   -7.1090 O.2     2  ALA2       -0.2718
      5  CB        87.4560  -87.8480   -5.8500 C.3     2  ALA2        0.0304
      6  N         85.0110  -85.0930   -6.3310 N.am    3  GLN3       -0.1966
      7  CA        84.8790  -83.7240   -6.8040 C.3     3  GLN3        0.1733
      8  C         84.1180  -82.9110   -5.7670 C.2     3  GLN3        0.2616
      9  O         83.1360  -83.3900   -5.1940 O.2     3  GLN3       -0.2715
     10  CB        84.1690  -83.6730   -8.1640 C.3     3  GLN3        0.0408
     11  CG        83.6770  -82.2960   -8.5620 C.3     3  GLN3        0.0908
     12  CD        82.1650  -82.2210   -8.6120 C.2     3  GLN3        0.2608
     13  OE1       81.5130  -83.0100   -9.2980 O.2     3  GLN3       -0.2717
     14  NE2       81.5960  -81.2780   -7.8720 N.am    3  GLN3       -0.0878
     15  N         84.5860  -81.6890   -5.5200 N.am    4  ALA4       -0.1977
     16  CA        83.9830  -80.8430   -4.4970 C.3     4  ALA4        0.1597
     17  C         82.5540  -80.4790   -4.8840 C.2     4  ALA4        0.2287
     18  O         82.2940  -80.0690   -6.0180 O.2     4  ALA4       -0.2864
     19  CB        84.8250  -79.5850   -4.2940 C.3     4  ALA4        0.0319
     20  N         79.2680  -78.5180   -5.3390 N.3     6  PRO6       -0.2116
     21  CA        78.6570  -77.1860   -5.3270 C.3     6  PRO6        0.1372
     22  C         77.1580  -77.2810   -5.0940 C.2     6  PRO6        0.2244
     23  O         76.6890  -78.2590   -4.5040 O.2     6  PRO6       -0.2868
     24  CB        78.9860  -76.6490   -6.7210 C.3     6  PRO6        0.0268
     25  CG        78.9280  -77.8610   -7.5720 C.3     6  PRO6        0.0207
     26  CD        79.3820  -79.0390   -6.7120 C.3     6  PRO6        0.0892
     27  N         83.5120  -56.6870   -6.6140 N.3    65  PHE65      -0.1241
     28  CA        84.0870  -57.2250   -5.3870 C.3    65  PHE65       0.1605
     29  C         83.0690  -58.0530   -4.6180 C.2    65  PHE65       0.2264
     30  O         83.4090  -59.0990   -4.0510 O.2    65  PHE65      -0.2867
     31  CB        84.6180  -56.0890   -4.5180 C.3    65  PHE65       0.0534
     32  CG        85.3120  -56.5550   -3.2730 C.ar   65  PHE65      -0.0203
     33  CD1       86.4280  -57.3720   -3.3500 C.ar   65  PHE65      -0.0042
     34  CD2       84.8560  -56.1640   -2.0250 C.ar   65  PHE65      -0.0042
     35  CE1       87.0720  -57.7990   -2.2020 C.ar   65  PHE65      -0.0003
     36  CE2       85.4970  -56.5830   -0.8720 C.ar   65  PHE65      -0.0003
     37  CZ        86.6060  -57.4020   -0.9600 C.ar   65  PHE65      -0.0000
     38  N         82.9480  -61.3750   -6.3430 N.3    68  ILE68      -0.1245
     39  CA        84.0810  -62.2040   -5.9370 C.3    68  ILE68       0.1561
     40  C         83.8240  -62.8080   -4.5590 C.2    68  ILE68       0.2260
     41  O         83.9760  -64.0210   -4.3460 O.2    68  ILE68      -0.2867
     42  CB        85.3830  -61.3830   -5.9640 C.3    68  ILE68       0.0252
     43  CG1       85.6770  -60.9090   -7.3870 C.3    68  ILE68       0.0019
     44  CG2       86.5430  -62.1980   -5.4090 C.3    68  ILE68       0.0019
     45  CD1       87.0150  -60.2170   -7.5340 C.3    68  ILE68       0.0001
     46  N         80.9060  -65.4430   -4.8510 N.3    71  ALA71      -0.1231
     47  CA        81.3790  -66.6770   -5.4660 C.3    71  ALA71       0.1694
     48  C         82.1850  -67.4940   -4.4680 C.2    71  ALA71       0.2592
     49  O         81.9140  -68.6860   -4.2560 O.2    71  ALA71      -0.2718
     50  CB        82.2080  -66.3550   -6.7100 C.3    71  ALA71       0.0304
     51  N         83.1670  -66.8540   -3.8200 N.am   72  GLY72      -0.1957
     52  CA        83.9620  -67.5540   -2.8240 C.3    72  GLY72       0.1869
     53  C         83.1220  -68.1440   -1.7070 C.2    72  GLY72       0.2309
     54  O         83.3120  -69.2980   -1.3170 O.2    72  GLY72      -0.2863
     55  N         80.7190  -71.0690   -2.9070 N.3    75  LEU75      -0.1231
     56  CA        81.4970  -72.2740   -3.1710 C.3    75  LEU75       0.1693
     57  C         82.0140  -72.8910   -1.8780 C.2    75  LEU75       0.2592
     58  O         81.9840  -74.1160   -1.7150 O.2    75  LEU75      -0.2718
     59  CB        82.6540  -71.9540   -4.1190 C.3    75  LEU75       0.0284
     60  CG        82.4230  -72.0410   -5.6320 C.3    75  LEU75       0.0019
     61  CD1       80.9580  -71.8820   -6.0010 C.3    75  LEU75       0.0001
     62  CD2       83.2590  -70.9870   -6.3350 C.3    75  LEU75       0.0001
     63  N         82.4770  -72.0630   -0.9400 N.am   76  GLY76      -0.1957
     64  CA        82.9900  -72.6010    0.3090 C.3    76  GLY76       0.1869
     65  C         81.9080  -73.2590    1.1410 C.2    76  GLY76       0.2309
     66  O         82.0670  -74.3910    1.6040 O.2    76  GLY76      -0.2863
     67  N         83.4580  -77.3170   -1.1830 N.3    80  SER80      -0.1217
     68  CA        84.6460  -76.6220   -1.6700 C.3    80  SER80       0.1889
     69  C         84.5840  -76.3410   -3.1660 C.2    80  SER80       0.2288
     70  O         85.4130  -75.6030   -3.6990 O.2    80  SER80      -0.2866
     71  CB        85.9040  -77.4300   -1.3520 C.3    80  SER80       0.2089
     72  OG        86.0670  -77.5880    0.0460 O.3    80  SER80      -0.2183
@<TRIPOS>BOND
     1    13    12    2
     2    12    11    1
     3    12    14   am
     4    11    10    1
     5    10     7    1
     6    25    24    1
     7    25    26    1
     8    45    43    1
     9    43    42    1
    10     4     3    2
    11     7     6    1
    12     7     8    1
    13    24    21    1
    14     1     2    1
    15    26    20    1
    16    50    47    1
    17    27    28    1
    18     3     6   am
    19     3     2    1
    20    38    39    1
    21    62    60    1
    22    18    17    2
    23    61    60    1
    24    42    39    1
    25    42    44    1
    26     2     5    1
    27    39    40    1
    28     8    15   am
    29     8     9    2
    30    60    59    1
    31    15    16    1
    32    47    46    1
    33    47    48    1
    34    28    29    1
    35    28    31    1
    36    20    21    1
    37    21    22    1
    38    22    23    2
    39    17    16    1
    40    29    30    2
    41    40    41    2
    42    31    32    1
    43    16    19    1
    44    48    49    2
    45    48    51   am
    46    59    56    1
    47    51    52    1
    48    70    69    2
    49    33    32   ar
    50    33    35   ar
    51    32    34   ar
    52    56    55    1
    53    56    57    1
    54    69    68    1
    55    52    53    1
    56    35    37   ar
    57    34    36   ar
    58    57    58    2
    59    57    63   am
    60    53    54    2
    61    68    71    1
    62    68    67    1
    63    71    72    1
    64    37    36   ar
    65    63    64    1
    66    64    65    1
    67    65    66    2
