@<TRIPOS>MOLECULE
tmp/5oy0W61.pdb
 109 109 0 0 0
SMALL
GASTEIGER

@<TRIPOS>ATOM
      1  N        232.4580  -91.1870   27.9970 N.3    78  VAL78      -0.1231
      2  CA       232.9850  -91.9250   29.1440 C.3    78  VAL78       0.1692
      3  C        231.9720  -92.9550   29.6250 C.2    78  VAL78       0.2592
      4  O        232.3230  -94.1040   29.9200 O.2    78  VAL78      -0.2718
      5  CB       233.3830  -90.9540   30.2740 C.3    78  VAL78       0.0266
      6  CG1      233.5930  -91.7070   31.5830 C.3    78  VAL78       0.0020
      7  CG2      234.6410  -90.1880   29.9020 C.3    78  VAL78       0.0020
      8  N        230.6980  -92.5660   29.6990 N.am   79  TRP79      -0.1976
      9  CA       229.6690  -93.4990   30.1540 C.3    79  TRP79       0.1640
     10  C        229.4850  -94.6530   29.1710 C.2    79  TRP79       0.2290
     11  O        229.3600  -95.8160   29.5810 O.2    79  TRP79      -0.2864
     12  CB       228.3520  -92.7560   30.3720 C.3    79  TRP79       0.0576
     13  CG       227.1830  -93.6560   30.6280 C.ar   79  TRP79       0.0006
     14  CD1      226.8170  -94.2100   31.8210 C.ar   79  TRP79       0.0946
     15  CD2      226.2160  -94.0970   29.6670 C.ar   79  TRP79       0.0152
     16  NE1      225.6860  -94.9740   31.6600 N.ar   79  TRP79      -0.2442
     17  CE2      225.2980  -94.9210   30.3460 C.ar   79  TRP79       0.0810
     18  CE3      226.0410  -93.8780   28.2970 C.ar   79  TRP79       0.0012
     19  CZ2      224.2230  -95.5240   29.7030 C.ar   79  TRP79       0.0191
     20  CZ3      224.9710  -94.4790   27.6610 C.ar   79  TRP79       0.0001
     21  CH2      224.0760  -95.2920   28.3640 C.ar   79  TRP79       0.0015
     22  N        231.7070  -95.8390   27.0720 N.3    81  SER81      -0.1202
     23  CA       232.8790  -96.7010   27.1680 C.3    81  SER81       0.2020
     24  C        232.8630  -97.5230   28.4490 C.2    81  SER81       0.2619
     25  O        233.3290  -98.6650   28.4500 O.2    81  SER81      -0.2717
     26  CB       234.1580  -95.8680   27.0840 C.3    81  SER81       0.2103
     27  OG       234.2990  -95.0290   28.2160 O.3    81  SER81      -0.2182
     28  N        232.3340  -96.9670   29.5420 N.am   82  GLY82      -0.1942
     29  CA       232.1520  -97.7640   30.7430 C.3    82  GLY82       0.2014
     30  C        231.2030  -98.9240   30.5200 C.2    82  GLY82       0.2638
     31  O        231.4640 -100.0470   30.9590 O.2    82  GLY82      -0.2714
     32  N        230.0960  -98.6720   29.8170 N.am   83  MET83      -0.1976
     33  CA       229.1660  -99.7520   29.4940 C.3    83  MET83       0.1605
     34  C        229.8310 -100.8100   28.6200 C.2    83  MET83       0.2287
     35  O        229.6660 -102.0160   28.8520 O.2    83  MET83      -0.2864
     36  CB       227.9240  -99.1920   28.8020 C.3    83  MET83       0.0413
     37  CG       227.1720  -98.1570   29.6140 C.3    83  MET83       0.0598
     38  SD       226.9650  -98.6440   31.3380 S.3    83  MET83      -0.1393
     39  CE       228.0880  -97.5010   32.1450 C.3    83  MET83       0.0692
     40  N        233.0840 -101.5150   28.3540 N.3    85  PHE85      -0.1227
     41  CA       234.0960 -102.2500   29.1060 C.3    85  PHE85       0.1736
     42  C        233.4580 -103.2060   30.1080 C.2    85  PHE85       0.2595
     43  O        233.9900 -104.2940   30.3610 O.2    85  PHE85      -0.2718
     44  CB       235.0370 -101.2800   29.8210 C.3    85  PHE85       0.0547
     45  CG       236.1980 -101.9540   30.5010 C.ar   85  PHE85      -0.0202
     46  CD1      237.4030 -102.1210   29.8380 C.ar   85  PHE85      -0.0042
     47  CD2      236.0860 -102.4220   31.8020 C.ar   85  PHE85      -0.0042
     48  CE1      238.4710 -102.7400   30.4580 C.ar   85  PHE85      -0.0003
     49  CE2      237.1500 -103.0430   32.4250 C.ar   85  PHE85      -0.0003
     50  CZ       238.3440 -103.1990   31.7540 C.ar   85  PHE85      -0.0000
     51  N        232.3310 -102.8140   30.7040 N.am   86  HIS86      -0.1975
     52  CA       231.6510 -103.7150   31.6250 C.3    86  HIS86       0.1656
     53  C        231.0240 -104.8930   30.8920 C.2    86  HIS86       0.2291
     54  O        230.9280 -105.9900   31.4520 O.2    86  HIS86      -0.2864
     55  CB       230.6020 -102.9480   32.4260 C.3    86  HIS86       0.0771
     56  CG       231.0160 -102.6680   33.8350 C.ar   86  HIS86       0.0820
     57  ND1      230.7660 -103.5430   34.8690 N.ar   86  HIS86      -0.2267
     58  CD2      231.6750 -101.6190   34.3810 C.ar   86  HIS86       0.1154
     59  CE1      231.2470 -103.0430   35.9930 C.ar   86  HIS86       0.1986
     60  NE2      231.8030 -101.8760   35.7240 N.ar   86  HIS86      -0.2212
     61  N        233.3660 -107.9000   32.2830 N.3    90  PHE90      -0.1241
     62  CA       232.5510 -108.1390   33.4690 C.3    90  PHE90       0.1605
     63  C        231.1860 -108.7420   33.1560 C.2    90  PHE90       0.2264
     64  O        230.3170 -108.7470   34.0370 O.2    90  PHE90      -0.2867
     65  CB       232.3570 -106.8380   34.2630 C.3    90  PHE90       0.0534
     66  CG       233.6120 -106.3220   34.9060 C.ar   90  PHE90      -0.0203
     67  CD1      233.9350 -106.6730   36.2060 C.ar   90  PHE90      -0.0042
     68  CD2      234.4650 -105.4780   34.2150 C.ar   90  PHE90      -0.0042
     69  CE1      235.0860 -106.1980   36.8010 C.ar   90  PHE90      -0.0003
     70  CE2      235.6180 -105.0010   34.8050 C.ar   90  PHE90      -0.0003
     71  CZ       235.9270 -105.3610   36.1000 C.ar   90  PHE90      -0.0000
     72  N        227.8270 -106.4110   35.6370 N.3   108  GLN108     -0.1231
     73  CA       228.0760 -105.7720   36.9250 C.3   108  GLN108      0.1698
     74  C        228.1070 -106.8020   38.0510 C.2   108  GLN108      0.2592
     75  O        227.0830 -107.0670   38.6920 O.2   108  GLN108     -0.2718
     76  CB       227.0220 -104.6960   37.2030 C.3   108  GLN108      0.0381
     77  CG       227.2170 -103.9490   38.5070 C.3   108  GLN108      0.0905
     78  CD       225.9060 -103.6750   39.2070 C.2   108  GLN108      0.2608
     79  OE1      224.8350 -103.9420   38.6640 O.2   108  GLN108     -0.2717
     80  NE2      225.9820 -103.1470   40.4210 N.am  108  GLN108     -0.0878
     81  N        229.2740 -107.3910   38.2930 N.am  109  VAL109     -0.1980
     82  CA       229.4360 -108.3550   39.3740 C.3   109  VAL109      0.1595
     83  C        229.6340 -107.6010   40.6800 C.2   109  VAL109      0.2287
     84  O        230.2580 -106.5330   40.7100 O.2   109  VAL109     -0.2864
     85  CB       230.6150 -109.2990   39.0830 C.3   109  VAL109      0.0276
     86  CG1      230.5280 -110.5490   39.9520 C.3   109  VAL109      0.0022
     87  CG2      230.6540 -109.6600   37.6040 C.3   109  VAL109      0.0022
     88  N        230.9840 -107.3910   44.6480 N.3   111  TRP111     -0.1241
     89  CA       232.0060 -107.9250   45.5410 C.3   111  TRP111      0.1605
     90  C        231.3490 -108.6100   46.7300 C.2   111  TRP111      0.2264
     91  O        230.5800 -107.9640   47.4540 O.2   111  TRP111     -0.2867
     92  CB       232.9280 -106.8080   46.0180 C.3   111  TRP111      0.0550
     93  CG       233.8210 -106.2810   44.9450 C.ar  111  TRP111      0.0003
     94  CD1      234.2510 -106.9500   43.8380 C.ar  111  TRP111      0.0946
     95  CD2      234.3880 -104.9670   44.8660 C.ar  111  TRP111      0.0152
     96  NE1      235.0560 -106.1390   43.0780 N.ar  111  TRP111     -0.2442
     97  CE2      235.1540 -104.9140   43.6840 C.ar  111  TRP111      0.0810
     98  CE3      234.3220 -103.8300   45.6790 C.ar  111  TRP111      0.0012
     99  CZ2      235.8520 -103.7720   43.2960 C.ar  111  TRP111      0.0191
    100  CZ3      235.0160 -102.6960   45.2910 C.ar  111  TRP111      0.0001
    101  CH2      235.7710 -102.6760   44.1100 C.ar  111  TRP111      0.0015
    102  N        236.8320  -93.9850   25.0110 N.3   159  LEU159     -0.1245
    103  CA       237.6420  -93.1610   25.9060 C.3   159  LEU159      0.1561
    104  C        238.5310  -92.2000   25.1210 C.2   159  LEU159      0.2260
    105  O        238.7150  -91.0410   25.5230 O.2   159  LEU159     -0.2867
    106  CB       238.4720  -94.0540   26.8250 C.3   159  LEU159      0.0270
    107  CG       237.6690  -94.7200   27.9430 C.3   159  LEU159      0.0019
    108  CD1      238.1860  -96.1190   28.2220 C.3   159  LEU159      0.0001
    109  CD2      237.7170  -93.8720   29.2030 C.3   159  LEU159      0.0001
@<TRIPOS>BOND
     1   102   103    1
     2   104   105    2
     3   104   103    1
     4   103   106    1
     5   106   107    1
     6    22    23    1
     7    26    23    1
     8    26    27    1
     9    23    24    1
    10    20    18   ar
    11    20    21   ar
    12   107   108    1
    13   107   109    1
    14     1     2    1
    15    18    15   ar
    16    40    41    1
    17    21    19   ar
    18    24    25    2
    19    24    28   am
    20    34    35    2
    21    34    33    1
    22    36    33    1
    23    36    37    1
    24    41    44    1
    25    41    42    1
    26     2     3    1
    27     2     5    1
    28    10    11    2
    29    10     9    1
    30    33    32    1
    31    28    29    1
    32    37    38    1
    33     3     8   am
    34     3     4    2
    35    15    17   ar
    36    15    13   ar
    37     8     9    1
    38    19    17   ar
    39    32    30   am
    40    44    45    1
    41    46    48   ar
    42    46    45   ar
    43     7     5    1
    44    42    43    2
    45    42    51   am
    46     9    12    1
    47     5     6    1
    48    17    16   ar
    49    12    13    1
    50    48    50   ar
    51    45    47   ar
    52    30    29    1
    53    30    31    2
    54    13    14   ar
    55    51    52    1
    56    53    54    2
    57    53    52    1
    58    38    39    1
    59    52    55    1
    60    16    14   ar
    61    50    49   ar
    62    47    49   ar
    63    61    62    1
    64    55    56    1
    65    63    62    1
    66    63    64    2
    67    62    65    1
    68    56    58   ar
    69    56    57   ar
    70    68    70   ar
    71    68    66   ar
    72    65    66    1
    73    58    60   ar
    74    70    71   ar
    75    57    59   ar
    76    66    67   ar
    77    72    73    1
    78    60    59   ar
    79    71    69   ar
    80    67    69   ar
    81    73    76    1
    82    73    74    1
    83    76    77    1
    84    87    85    1
    85    74    81   am
    86    74    75    2
    87    81    82    1
    88    77    78    1
    89    79    78    2
    90    85    82    1
    91    85    86    1
    92    78    80   am
    93    82    83    1
    94    83    84    2
    95    96    97   ar
    96    96    94   ar
    97    99    97   ar
    98    99   101   ar
    99    97    95   ar
   100    94    93   ar
   101   101   100   ar
   102    88    89    1
   103    95    93   ar
   104    95    98   ar
   105    93    92    1
   106   100    98   ar
   107    89    92    1
   108    89    90    1
   109    90    91    2
