@<TRIPOS>MOLECULE
tmp/5oy0B25.pdb
 83 79 0 0 0
SMALL
GASTEIGER

@<TRIPOS>ATOM
      1  N        175.5950  -54.0110  -52.4810 N.3   312  LEU312     -0.1231
      2  CA       174.1620  -53.8690  -52.2570 C.3   312  LEU312      0.1693
      3  C        173.7840  -54.0690  -50.7960 C.2   312  LEU312      0.2592
      4  O        172.5970  -54.2380  -50.4920 O.2   312  LEU312     -0.2718
      5  CB       173.3860  -54.8520  -53.1350 C.3   312  LEU312      0.0284
      6  CG       173.8700  -55.0540  -54.5700 C.3   312  LEU312      0.0019
      7  CD1      173.2210  -56.2920  -55.1640 C.3   312  LEU312      0.0001
      8  CD2      173.5740  -53.8270  -55.4190 C.3   312  LEU312      0.0001
      9  N        174.7590  -54.0570  -49.8840 N.am  313  THR313     -0.1953
     10  CA       174.4900  -54.2220  -48.4600 C.3   313  THR313      0.1897
     11  C        175.1030  -53.0950  -47.6350 C.2   313  THR313      0.2313
     12  O        175.2180  -53.2180  -46.4110 O.2   313  THR313     -0.2863
     13  CB       175.0010  -55.5770  -47.9710 C.3   313  THR313      0.1794
     14  OG1      174.8810  -56.5320  -49.0280 O.3   313  THR313     -0.2208
     15  CG2      174.1800  -56.0650  -46.7980 C.3   313  THR313      0.0378
     16  N        174.4890  -54.2070  -41.6200 N.3   405  VAL405     -0.1245
     17  CA       173.4060  -55.1590  -41.8560 C.3   405  VAL405      0.1561
     18  C        172.3050  -55.0110  -40.8080 C.2   405  VAL405      0.2260
     19  O        171.1180  -55.1320  -41.1260 O.2   405  VAL405     -0.2867
     20  CB       173.9550  -56.5970  -41.9100 C.3   405  VAL405      0.0252
     21  CG1      174.6670  -56.8410  -43.2340 C.3   405  VAL405      0.0019
     22  CG2      174.8940  -56.8600  -40.7410 C.3   405  VAL405      0.0019
     23  N        170.2370  -51.9540  -41.5130 N.3   408  ARG408     -0.1231
     24  CA       169.5200  -52.1890  -42.7610 C.3   408  ARG408      0.1694
     25  C        168.3250  -53.1110  -42.5490 C.2   408  ARG408      0.2591
     26  O        167.2700  -52.9160  -43.1640 O.2   408  ARG408     -0.2718
     27  CB       170.4740  -52.7500  -43.8120 C.3   408  ARG408      0.0321
     28  CG       171.3120  -51.6660  -44.4610 C.3   408  ARG408      0.0489
     29  CD       172.3760  -52.2310  -45.3690 C.3   408  ARG408      0.2205
     30  NE       172.9510  -51.1890  -46.2100 N.pl3 408  ARG408     -0.0865
     31  CZ       172.3860  -50.7460  -47.3270 C.cat 408  ARG408      0.5346
     32  NH1      172.9640  -49.7940  -48.0410 N.pl3 408  ARG408      0.1354
     33  NH2      171.2360  -51.2600  -47.7300 N.pl3 408  ARG408      0.1354
     34  N        168.4640  -54.1160  -41.6790 N.am  409  MET409     -0.1979
     35  CA       167.3030  -54.9130  -41.2920 C.3   409  MET409      0.1605
     36  C        166.2350  -54.0260  -40.6720 C.2   409  MET409      0.2287
     37  O        165.0450  -54.1400  -40.9910 O.2   409  MET409     -0.2864
     38  CB       167.7040  -56.0130  -40.3060 C.3   409  MET409      0.0413
     39  CG       168.7320  -56.9930  -40.8180 C.3   409  MET409      0.0598
     40  SD       168.2750  -57.7860  -42.3640 S.3   409  MET409     -0.1393
     41  CE       166.7610  -58.6230  -41.9010 C.3   409  MET409      0.0692
     42  N        165.7050  -50.9980  -41.2870 N.3   411  GLU411     -0.1231
     43  CA       165.2340  -49.9680  -42.2090 C.3   411  GLU411      0.1699
     44  C        164.0890  -50.4410  -43.0950 C.2   411  GLU411      0.2592
     45  O        163.2920  -49.6160  -43.5560 O.2   411  GLU411     -0.2718
     46  CB       166.3870  -49.4720  -43.0820 C.3   411  GLU411      0.0402
     47  CG       167.2450  -48.4010  -42.4270 C.3   411  GLU411      0.1161
     48  CD       166.5450  -47.0560  -42.3440 C.2   411  GLU411      0.3649
     49  OE1      165.5440  -46.8540  -43.0690 O.co2 411  GLU411     -0.2457
     50  OE2      166.9990  -46.2000  -41.5530 O.co2 411  GLU411     -0.2457
     51  N        163.9910  -51.7420  -43.3610 N.am  412  HIS412     -0.1976
     52  CA       162.8760  -52.2850  -44.1270 C.3   412  HIS412      0.1656
     53  C        162.0440  -53.2410  -43.2810 C.2   412  HIS412      0.2291
     54  O        161.5010  -54.2230  -43.7910 O.2   412  HIS412     -0.2864
     55  CB       163.3650  -52.9710  -45.4030 C.3   412  HIS412      0.0771
     56  CG       164.2090  -54.1840  -45.1630 C.ar  412  HIS412      0.0820
     57  ND1      165.5040  -54.1120  -44.6950 N.ar  412  HIS412     -0.2267
     58  CD2      163.9500  -55.5000  -45.3480 C.ar  412  HIS412      0.1154
     59  CE1      166.0010  -55.3310  -44.5910 C.ar  412  HIS412      0.1986
     60  NE2      165.0780  -56.1910  -44.9800 N.ar  412  HIS412     -0.2212
     61  N        158.6890  -54.2420  -44.6050 N.3   415  ALA415     -0.1231
     62  CA       158.6570  -55.2810  -45.6310 C.3   415  ALA415      0.1694
     63  C        158.8110  -56.6690  -45.0200 C.2   415  ALA415      0.2591
     64  O        158.0840  -57.6020  -45.3840 O.2   415  ALA415     -0.2718
     65  CB       159.7490  -55.0230  -46.6700 C.3   415  ALA415      0.0304
     66  N        159.7630  -56.8280  -44.0960 N.am  416  LEU416     -0.1980
     67  CA       159.9510  -58.1170  -43.4350 C.3   416  LEU416      0.1596
     68  C        158.6780  -58.5590  -42.7240 C.2   416  LEU416      0.2287
     69  O        158.1850  -59.6750  -42.9400 O.2   416  LEU416     -0.2864
     70  CB       161.1110  -58.0330  -42.4420 C.3   416  LEU416      0.0297
     71  CG       162.4790  -57.5750  -42.9510 C.3   416  LEU416      0.0022
     72  CD1      163.3370  -57.1080  -41.7880 C.3   416  LEU416      0.0001
     73  CD2      163.1770  -58.6910  -43.7040 C.3   416  LEU416      0.0001
     74  N        155.7720  -59.3580  -45.2720 N.3   419  HIS419     -0.1241
     75  CA       155.8770  -60.6080  -46.0170 C.3   419  HIS419      0.1621
     76  C        155.7690  -61.8200  -45.1020 C.2   419  HIS419      0.2264
     77  O        155.2330  -62.8580  -45.5160 O.2   419  HIS419     -0.2867
     78  CB       157.1750  -60.6310  -46.8170 C.3   419  HIS419      0.0745
     79  CG       157.2200  -59.5930  -47.8910 C.ar  419  HIS419      0.0817
     80  ND1      157.5520  -58.2800  -47.6400 N.ar  419  HIS419     -0.2268
     81  CD2      156.9390  -59.6630  -49.2130 C.ar  419  HIS419      0.1154
     82  CE1      157.4920  -57.5900  -48.7640 C.ar  419  HIS419      0.1986
     83  NE2      157.1210  -58.4050  -49.7330 N.ar  419  HIS419     -0.2212
@<TRIPOS>BOND
     1     8     6    1
     2     7     6    1
     3     6     5    1
     4     5     2    1
     5     1     2    1
     6     2     3    1
     7     3     4    2
     8     3     9   am
     9     9    10    1
    10    83    81   ar
    11    83    82   ar
    12    81    79   ar
    13    14    13    1
    14    82    80   ar
    15    10    13    1
    16    10    11    1
    17    32    31    1
    18    13    15    1
    19    79    80   ar
    20    79    78    1
    21    33    31    1
    22    11    12    2
    23    31    30    2
    24    78    75    1
    25    65    62    1
    26    30    29    1
    27    75    74    1
    28    75    76    1
    29    62    63    1
    30    62    61    1
    31    77    76    2
    32    55    56    1
    33    55    52    1
    34    64    63    2
    35    29    28    1
    36    58    56   ar
    37    58    60   ar
    38    56    57   ar
    39    63    66   am
    40    60    59   ar
    41    57    59   ar
    42    28    27    1
    43    52    51    1
    44    52    53    1
    45    66    67    1
    46    27    24    1
    47    54    53    2
    48    73    71    1
    49    45    44    2
    50    67    68    1
    51    67    70    1
    52    51    44   am
    53    21    20    1
    54    26    25    2
    55    44    43    1
    56    46    47    1
    57    46    43    1
    58    49    48   ar
    59    71    70    1
    60    71    72    1
    61    69    68    2
    62    24    25    1
    63    24    23    1
    64    25    34   am
    65    47    48    1
    66    40    41    1
    67    40    39    1
    68    48    50   ar
    69    43    42    1
    70    20    17    1
    71    20    22    1
    72    17    16    1
    73    17    18    1
    74    34    35    1
    75    35    36    1
    76    35    38    1
    77    19    18    2
    78    37    36    2
    79    39    38    1
