@<TRIPOS>MOLECULE
tmp/5oy0A04.pdb
 125 121 0 0 0
SMALL
GASTEIGER

@<TRIPOS>ATOM
      1  N         96.0460  -79.9170  -34.1140 N.3   152  PHE152     -0.1241
      2  CA        96.2890  -79.9170  -35.5500 C.3   152  PHE152      0.1605
      3  C         96.2950  -81.3410  -36.0820 C.2   152  PHE152      0.2264
      4  O         96.8960  -82.2410  -35.4880 O.2   152  PHE152     -0.2867
      5  CB        97.6230  -79.2480  -35.8800 C.3   152  PHE152      0.0534
      6  CG        97.5700  -77.7520  -35.8830 C.ar  152  PHE152     -0.0203
      7  CD1       96.8990  -77.0770  -36.8860 C.ar  152  PHE152     -0.0042
      8  CD2       98.2020  -77.0180  -34.8910 C.ar  152  PHE152     -0.0042
      9  CE1       96.8490  -75.6970  -36.8970 C.ar  152  PHE152     -0.0003
     10  CE2       98.1570  -75.6400  -34.8970 C.ar  152  PHE152     -0.0003
     11  CZ        97.4780  -74.9780  -35.9010 C.ar  152  PHE152     -0.0000
     12  N         96.1400  -81.6390  -39.9120 N.3   154  ASP154     -0.1239
     13  CA        96.2290  -81.4990  -41.3560 C.3   154  ASP154      0.1674
     14  C         97.3040  -80.4830  -41.7130 C.2   154  ASP154      0.2266
     15  O         97.5720  -79.5450  -40.9600 O.2   154  ASP154     -0.2867
     16  CB        94.8730  -81.0710  -41.9480 C.3   154  ASP154      0.1410
     17  CG        94.8220  -81.1880  -43.4630 C.2   154  ASP154      0.3668
     18  OD1       95.7670  -80.7350  -44.1420 O.co2 154  ASP154     -0.2456
     19  OD2       93.8250  -81.7360  -43.9810 O.co2 154  ASP154     -0.2456
     20  N         96.9400  -78.3740  -44.1190 N.3   156  TYR156     -0.1227
     21  CA        96.2780  -77.1390  -44.5260 C.3   156  TYR156      0.1736
     22  C         96.0520  -76.1980  -43.3500 C.2   156  TYR156      0.2595
     23  O         96.0900  -74.9760  -43.5230 O.2   156  TYR156     -0.2718
     24  CB        94.9520  -77.4620  -45.2220 C.3   156  TYR156      0.0548
     25  CG        94.1610  -76.2440  -45.6490 C.ar  156  TYR156     -0.0200
     26  CD1       94.5650  -75.4730  -46.7320 C.ar  156  TYR156     -0.0009
     27  CD2       93.0070  -75.8700  -44.9720 C.ar  156  TYR156     -0.0009
     28  CE1       93.8440  -74.3580  -47.1250 C.ar  156  TYR156      0.0417
     29  CE2       92.2790  -74.7600  -45.3590 C.ar  156  TYR156      0.0417
     30  CZ        92.7020  -74.0070  -46.4370 C.ar  156  TYR156      0.1957
     31  OH        91.9830  -72.9000  -46.8270 O.3   156  TYR156     -0.2866
     32  N         95.8280  -76.7360  -42.1510 N.am  157  GLN157     -0.1979
     33  CA        95.6750  -75.8740  -40.9830 C.3   157  GLN157      0.1601
     34  C         96.9930  -75.1930  -40.6240 C.2   157  GLN157      0.2287
     35  O         97.0140  -74.0000  -40.2970 O.2   157  GLN157     -0.2864
     36  CB        95.1420  -76.6870  -39.8060 C.3   157  GLN157      0.0394
     37  CG        93.9350  -77.5330  -40.1510 C.3   157  GLN157      0.0908
     38  CD        93.6160  -78.5560  -39.0800 C.2   157  GLN157      0.2608
     39  OE1       94.3940  -79.4820  -38.8340 O.2   157  GLN157     -0.2717
     40  NE2       92.4660  -78.3950  -38.4330 N.am  157  GLN157     -0.0878
     41  N         97.4180  -72.4180  -43.2100 N.3   160  CYS160     -0.1221
     42  CA        96.5930  -71.2640  -42.8670 C.3   160  CYS160      0.1808
     43  C         97.1950  -70.4920  -41.7030 C.2   160  CYS160      0.2601
     44  O         97.1570  -69.2540  -41.6800 O.2   160  CYS160     -0.2717
     45  CB        95.1690  -71.7140  -42.5320 C.3   160  CYS160      0.0970
     46  SG        94.2430  -72.4010  -43.9270 S.3   160  CYS160     -0.0800
     47  N         97.7670  -71.2090  -40.7310 N.am  161  THR161     -0.1953
     48  CA        98.4170  -70.5520  -39.6020 C.3   161  THR161      0.1897
     49  C         99.6350  -69.7540  -40.0510 C.2   161  THR161      0.2313
     50  O         99.8520  -68.6310  -39.5860 O.2   161  THR161     -0.2863
     51  CB        98.8120  -71.5890  -38.5520 C.3   161  THR161      0.1794
     52  OG1       97.6610  -72.3650  -38.1940 O.3   161  THR161     -0.2208
     53  CG2       99.3720  -70.9030  -37.3060 C.3   161  THR161      0.0378
     54  N        100.4700  -62.2980  -42.2150 N.3   167  VAL167     -0.1231
     55  CA        99.5980  -61.1260  -42.1480 C.3   167  VAL167      0.1692
     56  C         99.8260  -60.3690  -40.8420 C.2   167  VAL167      0.2591
     57  O         99.8360  -59.1310  -40.8150 O.2   167  VAL167     -0.2718
     58  CB        98.1220  -61.5350  -42.3240 C.3   167  VAL167      0.0266
     59  CG1       97.2130  -60.3290  -42.1460 C.3   167  VAL167      0.0020
     60  CG2       97.8940  -62.1600  -43.6990 C.3   167  VAL167      0.0020
     61  N        100.0320  -61.1000  -39.7430 N.am  168  MET168     -0.1979
     62  CA       100.2940  -60.4580  -38.4600 C.3   168  MET168      0.1605
     63  C        101.6130  -59.6990  -38.4790 C.2   168  MET168      0.2287
     64  O        101.7110  -58.6020  -37.9170 O.2   168  MET168     -0.2864
     65  CB       100.2970  -61.5020  -37.3470 C.3   168  MET168      0.0413
     66  CG        98.9190  -61.9070  -36.8790 C.3   168  MET168      0.0598
     67  SD        98.0000  -60.4830  -36.2820 S.3   168  MET168     -0.1393
     68  CE        96.6980  -61.2940  -35.3650 C.3   168  MET168      0.0692
     69  N        100.9870  -56.5220  -40.2450 N.3   171  LEU171     -0.1231
     70  CA       100.2450  -55.6120  -39.3760 C.3   171  LEU171      0.1693
     71  C        101.1620  -54.9500  -38.3500 C.2   171  LEU171      0.2591
     72  O        101.0790  -53.7370  -38.1200 O.2   171  LEU171     -0.2718
     73  CB        99.1100  -56.3650  -38.6810 C.3   171  LEU171      0.0284
     74  CG        97.7490  -56.3670  -39.3750 C.3   171  LEU171      0.0019
     75  CD1       97.1770  -57.7710  -39.4290 C.3   171  LEU171      0.0001
     76  CD2       96.8000  -55.4350  -38.6500 C.3   171  LEU171      0.0001
     77  N        102.0410  -55.7370  -37.7170 N.am  172  MET172     -0.1979
     78  CA       102.9730  -55.1730  -36.7390 C.3   172  MET172      0.1605
     79  C        103.9120  -54.1650  -37.3900 C.2   172  MET172      0.2287
     80  O        104.1870  -53.0990  -36.8210 O.2   172  MET172     -0.2864
     81  CB       103.7930  -56.2770  -36.0600 C.3   172  MET172      0.0413
     82  CG       103.0000  -57.3860  -35.3860 C.3   172  MET172      0.0598
     83  SD       101.5340  -56.8550  -34.4810 S.3   172  MET172     -0.1393
     84  CE       102.2680  -56.0090  -33.0960 C.3   172  MET172      0.0692
     85  N         86.5040  -82.1380  -37.7300 N.3   238  LEU238     -0.1231
     86  CA        87.2610  -80.9010  -37.7350 C.3   238  LEU238      0.1678
     87  C         86.9090  -80.0760  -36.4990 C.2   238  LEU238      0.2434
     88  O         85.8410  -80.2580  -35.9080 O.2   238  LEU238     -0.2733
     89  CB        86.9800  -80.1140  -39.0140 C.3   238  LEU238      0.0284
     90  CG        87.4620  -80.7570  -40.3180 C.3   238  LEU238      0.0019
     91  CD1       87.2550  -79.8160  -41.4900 C.3   238  LEU238      0.0001
     92  CD2       88.9200  -81.1710  -40.2200 C.3   238  LEU238      0.0001
     93  N         87.8050  -79.1720  -36.0780 N.am  239  PRO239     -0.2718
     94  CA        87.5570  -78.4030  -34.8430 C.3   239  PRO239      0.1535
     95  C         86.2030  -77.7130  -34.7870 C.2   239  PRO239      0.2598
     96  O         85.5600  -77.7090  -33.7300 O.2   239  PRO239     -0.2715
     97  CB        88.7030  -77.3840  -34.8490 C.3   239  PRO239      0.0310
     98  CG        89.7950  -78.0730  -35.5710 C.3   239  PRO239      0.0237
     99  CD        89.1360  -78.8840  -36.6420 C.3   239  PRO239      0.0939
    100  N         85.7470  -77.1360  -35.9000 N.am  240  HIS240     -0.1974
    101  CA        84.4900  -76.3980  -35.8990 C.3   240  HIS240      0.1656
    102  C         83.2660  -77.3060  -35.8380 C.2   240  HIS240      0.2291
    103  O         82.1650  -76.8190  -35.5550 O.2   240  HIS240     -0.2864
    104  CB        84.4120  -75.5090  -37.1380 C.3   240  HIS240      0.0771
    105  CG        84.5770  -76.2530  -38.4260 C.ar  240  HIS240      0.0820
    106  ND1       83.5420  -76.9290  -39.0320 N.ar  240  HIS240     -0.2267
    107  CD2       85.6580  -76.4280  -39.2220 C.ar  240  HIS240      0.1154
    108  CE1       83.9770  -77.4870  -40.1480 C.ar  240  HIS240      0.1986
    109  NE2       85.2580  -77.1980  -40.2860 N.ar  240  HIS240     -0.2212
    110  N         81.6680  -77.4000  -32.4460 N.3   243  ILE243     -0.1231
    111  CA        80.9060  -76.2010  -32.1300 C.3   243  ILE243      0.1692
    112  C         79.6080  -76.1350  -32.9310 C.2   243  ILE243      0.2591
    113  O         78.6010  -75.6190  -32.4370 O.2   243  ILE243     -0.2718
    114  CB        81.7820  -74.9600  -32.3700 C.3   243  ILE243      0.0266
    115  CG1       83.0980  -75.1040  -31.5990 C.3   243  ILE243      0.0019
    116  CG2       81.0510  -73.6900  -31.9590 C.3   243  ILE243      0.0020
    117  CD1       84.1460  -74.0750  -31.9580 C.3   243  ILE243      0.0001
    118  N         79.6030  -76.6620  -34.1570 N.am  244  LEU244     -0.1980
    119  CA        78.3560  -76.7470  -34.9120 C.3   244  LEU244      0.1596
    120  C         77.4610  -77.8640  -34.3900 C.2   244  LEU244      0.2287
    121  O         76.2400  -77.6940  -34.3080 O.2   244  LEU244     -0.2864
    122  CB        78.6490  -76.9560  -36.3970 C.3   244  LEU244      0.0297
    123  CG        79.3210  -75.8050  -37.1470 C.3   244  LEU244      0.0022
    124  CD1       79.6820  -76.2420  -38.5580 C.3   244  LEU244      0.0001
    125  CD2       78.4180  -74.5810  -37.1740 C.3   244  LEU244      0.0001
@<TRIPOS>BOND
     1    28    26   ar
     2    28    30   ar
     3    31    30    1
     4    26    25   ar
     5    30    29   ar
     6    25    24    1
     7    25    27   ar
     8    29    27   ar
     9    24    21    1
    10    21    20    1
    11    21    22    1
    12    18    17   ar
    13    19    17   ar
    14    46    45    1
    15    60    58    1
    16    23    22    2
    17    17    16    1
    18    22    32   am
    19    41    42    1
    20    42    45    1
    21    42    43    1
    22    58    55    1
    23    58    59    1
    24    54    55    1
    25    32    33    1
    26    55    56    1
    27    16    13    1
    28    14    13    1
    29    14    15    2
    30    43    44    2
    31    43    47   am
    32    91    90    1
    33    13    12    1
    34    33    34    1
    35    33    36    1
    36    56    57    2
    37    56    61   am
    38    47    48    1
    39    34    35    2
    40    90    92    1
    41    90    89    1
    42   109   108   ar
    43   109   107   ar
    44    69    70    1
    45    37    36    1
    46    37    38    1
    47   108   106   ar
    48    49    48    1
    49    49    50    2
    50    61    62    1
    51    48    51    1
    52    75    74    1
    53    70    73    1
    54    70    71    1
    55    74    73    1
    56    74    76    1
    57   107   105   ar
    58    38    39    2
    59    38    40   am
    60   106   105   ar
    61    89    86    1
    62   124   123    1
    63    51    52    1
    64    51    53    1
    65    63    62    1
    66    63    64    2
    67    62    65    1
    68   105   104    1
    69    71    72    2
    70    71    77   am
    71    86    85    1
    72    86    87    1
    73    77    78    1
    74    79    80    2
    75    79    78    1
    76    65    66    1
    77   125   123    1
    78   123   122    1
    79   104   101    1
    80     9     7   ar
    81     9    11   ar
    82     7     6   ar
    83    66    67    1
    84    78    81    1
    85    99    93    1
    86    99    98    1
    87    87    93   am
    88    87    88    2
    89   122   119    1
    90    67    68    1
    91     3     2    1
    92     3     4    2
    93    93    94    1
    94    81    82    1
    95    11    10   ar
    96   100   101    1
    97   100    95   am
    98   101   102    1
    99     6     5    1
   100     6     8   ar
   101     5     2    1
   102   102   103    2
   103    98    97    1
   104     2     1    1
   105    82    83    1
   106   119   120    1
   107   119   118    1
   108    10     8   ar
   109    97    94    1
   110    94    95    1
   111    95    96    2
   112    83    84    1
   113   120   121    2
   114   118   112   am
   115   112   113    2
   116   112   111    1
   117   110   111    1
   118   114   111    1
   119   114   116    1
   120   114   115    1
   121   117   115    1
