@<TRIPOS>MOLECULE
tmp/5oy0J01.pdb
 103 100 0 0 0
SMALL
GASTEIGER

@<TRIPOS>ATOM
      1  N        124.5530  -54.8330   22.7580 N.3    29  PHE29      -0.1241
      2  CA       124.9350  -56.2240   22.9730 C.3    29  PHE29       0.1605
      3  C        126.2890  -56.5300   22.3470 C.2    29  PHE29       0.2264
      4  O        127.1440  -57.1490   22.9840 O.2    29  PHE29      -0.2867
      5  CB       123.8740  -57.1750   22.4210 C.3    29  PHE29       0.0534
      6  CG       124.3410  -58.5970   22.3400 C.ar   29  PHE29      -0.0203
      7  CD1      124.3280  -59.4060   23.4650 C.ar   29  PHE29      -0.0042
      8  CD2      124.8200  -59.1200   21.1490 C.ar   29  PHE29      -0.0042
      9  CE1      124.7790  -60.7120   23.4040 C.ar   29  PHE29      -0.0003
     10  CE2      125.2680  -60.4270   21.0800 C.ar   29  PHE29      -0.0003
     11  CZ       125.2470  -61.2240   22.2110 C.ar   29  PHE29      -0.0000
     12  N        129.6420  -57.5660   24.2510 N.3    33  PHE33      -0.1241
     13  CA       130.0500  -58.9520   24.0470 C.3    33  PHE33       0.1605
     14  C        131.4320  -59.0330   23.4110 C.2    33  PHE33       0.2264
     15  O        132.3100  -59.7480   23.9070 O.2    33  PHE33      -0.2867
     16  CB       129.0060  -59.6840   23.1930 C.3    33  PHE33       0.0534
     17  CG       129.4690  -61.0180   22.6840 C.ar   33  PHE33      -0.0203
     18  CD1      129.5370  -62.1130   23.5280 C.ar   33  PHE33      -0.0042
     19  CD2      129.8470  -61.1740   21.3620 C.ar   33  PHE33      -0.0042
     20  CE1      129.9750  -63.3370   23.0620 C.ar   33  PHE33      -0.0003
     21  CE2      130.2870  -62.3950   20.8920 C.ar   33  PHE33      -0.0003
     22  CZ       130.3520  -63.4770   21.7420 C.ar   33  PHE33      -0.0000
     23  N        146.0110  -67.0150   27.0350 N.3    51  LEU51      -0.1245
     24  CA       145.6240  -68.2610   27.6900 C.3    51  LEU51       0.1561
     25  C        144.1700  -68.6130   27.3990 C.2    51  LEU51       0.2260
     26  O        143.8570  -69.7490   27.0360 O.2    51  LEU51      -0.2867
     27  CB       145.8540  -68.1560   29.1980 C.3    51  LEU51       0.0270
     28  CG       145.5470  -69.4130   30.0180 C.3    51  LEU51       0.0019
     29  CD1      146.5180  -70.5370   29.6870 C.3    51  LEU51       0.0001
     30  CD2      145.5650  -69.1030   31.5070 C.3    51  LEU51       0.0001
     31  N        142.8530  -71.7060   25.1980 N.3    55  MET55      -0.1230
     32  CA       142.0020  -72.7400   25.7760 C.3    55  MET55       0.1702
     33  C        140.8140  -73.0220   24.8660 C.2    55  MET55       0.2592
     34  O        140.5770  -74.1710   24.4700 O.2    55  MET55      -0.2718
     35  CB       141.5400  -72.3270   27.1750 C.3    55  MET55       0.0401
     36  CG       142.6180  -72.4510   28.2500 C.3    55  MET55       0.0596
     37  SD       142.2360  -71.5800   29.7880 S.3    55  MET55      -0.1393
     38  CE       140.7270  -72.4060   30.2830 C.3    55  MET55       0.0692
     39  N        140.0860  -71.9720   24.4800 N.am   56  ALA56      -0.1980
     40  CA       138.9180  -72.1690   23.6230 C.3    56  ALA56       0.1597
     41  C        139.2970  -72.8520   22.3090 C.2    56  ALA56       0.2287
     42  O        138.6690  -73.8420   21.8950 O.2    56  ALA56      -0.2864
     43  CB       138.2380  -70.8260   23.3620 C.3    56  ALA56       0.0319
     44  N        140.7450  -76.4710   22.6360 N.3    59  TYR59      -0.1227
     45  CA       139.6460  -77.3590   22.9860 C.3    59  TYR59       0.1736
     46  C        138.8090  -77.7200   21.7640 C.2    59  TYR59       0.2595
     47  O        138.5120  -78.8980   21.5320 O.2    59  TYR59      -0.2718
     48  CB       138.7800  -76.7090   24.0600 C.3    59  TYR59       0.0548
     49  CG       137.7150  -77.6140   24.6160 C.ar   59  TYR59      -0.0200
     50  CD1      138.0160  -78.5590   25.5940 C.ar   59  TYR59      -0.0009
     51  CD2      136.4060  -77.5190   24.1770 C.ar   59  TYR59      -0.0009
     52  CE1      137.0370  -79.3880   26.1120 C.ar   59  TYR59       0.0417
     53  CE2      135.4230  -78.3380   24.6900 C.ar   59  TYR59       0.0417
     54  CZ       135.7410  -79.2680   25.6570 C.ar   59  TYR59       0.1957
     55  OH       134.7550  -80.0800   26.1610 O.3    59  TYR59      -0.2866
     56  N        138.4110  -76.7220   20.9630 N.am   60  PHE60      -0.1976
     57  CA       137.4980  -77.0670   19.8760 C.3    60  PHE60       0.1639
     58  C        138.2140  -77.6280   18.6480 C.2    60  PHE60       0.2290
     59  O        137.5750  -78.3060   17.8360 O.2    60  PHE60      -0.2864
     60  CB       136.6030  -75.8640   19.5120 C.3    60  PHE60       0.0560
     61  CG       137.1460  -74.9690   18.4220 C.ar   60  PHE60      -0.0200
     62  CD1      137.0630  -75.3350   17.0840 C.ar   60  PHE60      -0.0042
     63  CD2      137.6780  -73.7310   18.7330 C.ar   60  PHE60      -0.0042
     64  CE1      137.5540  -74.5170   16.0950 C.ar   60  PHE60      -0.0003
     65  CE2      138.1630  -72.9000   17.7410 C.ar   60  PHE60      -0.0003
     66  CZ       138.1000  -73.2940   16.4210 C.ar   60  PHE60      -0.0000
     67  N        150.2830  -72.0450   25.5520 N.3   129  VAL129     -0.1231
     68  CA       150.0030  -72.8840   26.7170 C.3   129  VAL129      0.1692
     69  C        148.5250  -73.2570   26.7650 C.2   129  VAL129      0.2592
     70  O        148.1730  -74.4180   27.0100 O.2   129  VAL129     -0.2718
     71  CB       150.4710  -72.1930   28.0120 C.3   129  VAL129      0.0266
     72  CG1      150.0650  -73.0120   29.2260 C.3   129  VAL129      0.0020
     73  CG2      151.9820  -72.0200   27.9890 C.3   129  VAL129      0.0020
     74  N        147.6390  -72.3000   26.4790 N.am  130  GLY130     -0.1957
     75  CA       146.2160  -72.5880   26.5160 C.3   130  GLY130      0.1869
     76  C        145.7650  -73.5090   25.3990 C.2   130  GLY130      0.2309
     77  O        144.9040  -74.3640   25.6040 O.2   130  GLY130     -0.2863
     78  N        146.9890  -76.9920   26.2400 N.3   133  GLY133     -0.1210
     79  CA       146.2180  -77.5110   27.3580 C.3   133  GLY133      0.1956
     80  C        144.8010  -77.8900   26.9720 C.2   133  GLY133      0.2612
     81  O        144.3080  -78.9570   27.3490 O.2   133  GLY133     -0.2717
     82  N        144.1220  -77.0160   26.2230 N.am  134  GLY134     -0.1956
     83  CA       142.7620  -77.3080   25.8070 C.3   134  GLY134      0.1869
     84  C        142.6830  -78.5010   24.8780 C.2   134  GLY134      0.2309
     85  O        141.7940  -79.3450   25.0120 O.2   134  GLY134     -0.2863
     86  N        144.8080  -81.0120   24.8080 N.3   136  PHE136     -0.1227
     87  CA       145.0840  -82.2290   25.5610 C.3   136  PHE136      0.1736
     88  C        143.9340  -82.5980   26.4890 C.2   136  PHE136      0.2595
     89  O        143.6740  -83.7860   26.6890 O.2   136  PHE136     -0.2718
     90  CB       146.3830  -82.0930   26.3530 C.3   136  PHE136      0.0547
     91  CG       146.9960  -83.4110   26.7200 C.ar  136  PHE136     -0.0202
     92  CD1      147.8850  -84.0390   25.8580 C.ar  136  PHE136     -0.0042
     93  CD2      146.6750  -84.0310   27.9210 C.ar  136  PHE136     -0.0042
     94  CE1      148.4500  -85.2600   26.1910 C.ar  136  PHE136     -0.0003
     95  CE2      147.2340  -85.2510   28.2670 C.ar  136  PHE136     -0.0003
     96  CZ       148.1230  -85.8680   27.4000 C.ar  136  PHE136     -0.0000
     97  N        143.2120  -81.6190   27.0380 N.am  137  VAL137     -0.1980
     98  CA       142.1010  -81.9610   27.9230 C.3   137  VAL137      0.1595
     99  C        140.8890  -82.4330   27.1230 C.2   137  VAL137      0.2287
    100  O        140.1590  -83.3300   27.5600 O.2   137  VAL137     -0.2864
    101  CB       141.7530  -80.7810   28.8520 C.3   137  VAL137      0.0276
    102  CG1      141.0290  -79.6880   28.1050 C.3   137  VAL137      0.0022
    103  CG2      140.9160  -81.2610   30.0190 C.3   137  VAL137      0.0022
@<TRIPOS>BOND
     1    64    66   ar
     2    64    62   ar
     3    66    65   ar
     4    62    61   ar
     5    65    63   ar
     6    59    58    2
     7    61    63   ar
     8    61    60    1
     9    58    57    1
    10    60    57    1
    11    57    56    1
    12    21    19   ar
    13    21    22   ar
    14    56    46   am
    15    10     8   ar
    16    10    11   ar
    17     8     6   ar
    18    19    17   ar
    19    47    46    2
    20    22    20   ar
    21    46    45    1
    22    42    41    2
    23    11     9   ar
    24    41    40    1
    25     6     5    1
    26     6     7   ar
    27     3     2    1
    28     3     4    2
    29     5     2    1
    30    44    45    1
    31    17    16    1
    32    17    18   ar
    33     1     2    1
    34    45    48    1
    35    20    18   ar
    36    16    13    1
    37    43    40    1
    38     9     7   ar
    39    14    15    2
    40    14    13    1
    41    40    39    1
    42    13    12    1
    43    48    49    1
    44    51    49   ar
    45    51    53   ar
    46    34    33    2
    47    39    33   am
    48    49    50   ar
    49    53    54   ar
    50    86    87    1
    51    33    32    1
    52    84    85    2
    53    84    83    1
    54    31    32    1
    55    76    77    2
    56    76    75    1
    57    67    68    1
    58    87    90    1
    59    87    88    1
    60    50    52   ar
    61    54    52   ar
    62    54    55    1
    63    32    35    1
    64    83    82    1
    65    92    94   ar
    66    92    91   ar
    67    94    96   ar
    68    82    80   am
    69    78    79    1
    70    90    91    1
    71    74    75    1
    72    74    69   am
    73    88    89    2
    74    88    97   am
    75    68    69    1
    76    68    71    1
    77    91    93   ar
    78    69    70    2
    79    80    81    2
    80    80    79    1
    81    23    24    1
    82    26    25    2
    83    97    98    1
    84    99   100    2
    85    99    98    1
    86    35    36    1
    87    25    24    1
    88    96    95   ar
    89    24    27    1
    90    93    95   ar
    91    98   101    1
    92    73    71    1
    93    71    72    1
    94   102   101    1
    95    36    37    1
    96   101   103    1
    97    27    28    1
    98    29    28    1
    99    37    38    1
   100    28    30    1
