@<TRIPOS>MOLECULE
tmp/5oy0T05.pdb
 92 86 0 0 0
SMALL
GASTEIGER

@<TRIPOS>ATOM
      1  N        153.5060  -99.2450  114.7640 N.3    13  SER13      -0.1202
      2  CA       152.6590  -98.2190  114.1610 C.3    13  SER13       0.2020
      3  C        152.8210  -96.8780  114.8650 C.2    13  SER13       0.2619
      4  O        152.9090  -95.8320  114.2100 O.2    13  SER13      -0.2717
      5  CB       151.1960  -98.6600  114.1850 C.3    13  SER13       0.2103
      6  OG       150.3450  -97.6220  113.7270 O.3    13  SER13      -0.2182
      7  N        152.8620  -96.8860  116.1920 N.am   14  VAL14      -0.1965
      8  CA       153.0110  -95.6590  116.9570 C.3    14  VAL14       0.1727
      9  C        154.4940  -95.3620  117.1340 C.2    14  VAL14       0.2616
     10  O        155.3560  -96.2260  116.9500 O.2    14  VAL14      -0.2715
     11  CB       152.2950  -95.7480  118.3210 C.3    14  VAL14       0.0290
     12  CG1      150.9950  -96.5280  118.1880 C.3    14  VAL14       0.0023
     13  CG2      153.2050  -96.3740  119.3670 C.3    14  VAL14       0.0023
     14  N        154.7960  -94.1160  117.4880 N.am   15  GLY15      -0.1955
     15  CA       156.1650  -93.7060  117.7290 C.3    15  GLY15       0.1869
     16  C        157.0760  -93.8480  116.5270 C.2    15  GLY15       0.2309
     17  O        157.4670  -92.8510  115.9120 O.2    15  GLY15      -0.2863
     18  N        154.3320  -92.9180  113.5200 N.3    18  MET18      -0.1230
     19  CA       153.4350  -91.7830  113.7180 C.3    18  MET18       0.1702
     20  C        154.1620  -90.6000  114.3460 C.2    18  MET18       0.2592
     21  O        154.0740  -89.4700  113.8490 O.2    18  MET18      -0.2718
     22  CB       152.2390  -92.1970  114.5750 C.3    18  MET18       0.0401
     23  CG       151.1880  -91.1050  114.7300 C.3    18  MET18       0.0596
     24  SD       150.4630  -90.5930  113.1550 S.3    18  MET18      -0.1393
     25  CE       149.7080  -92.1260  112.6170 C.3    18  MET18       0.0692
     26  N        154.8770  -90.8360  115.4500 N.am   19  CYS19      -0.1970
     27  CA       155.5960  -89.7450  116.1000 C.3    19  CYS19       0.1712
     28  C        156.6640  -89.1630  115.1850 C.2    19  CYS19       0.2296
     29  O        156.8860  -87.9490  115.1790 O.2    19  CYS19      -0.2864
     30  CB       156.2200  -90.2210  117.4090 C.3    19  CYS19       0.0983
     31  SG       157.4640  -89.0920  118.0710 S.3    19  CYS19      -0.0798
     32  N        154.9270  -86.9020  112.7510 N.3    22  ASN22      -0.1225
     33  CA       154.5230  -85.6700  113.4240 C.3    22  ASN22       0.1785
     34  C        155.7180  -84.7550  113.6690 C.2    22  ASN22       0.2597
     35  O        155.6150  -83.5330  113.5180 O.2    22  ASN22      -0.2718
     36  CB       153.8110  -85.9910  114.7390 C.3    22  ASN22       0.1169
     37  CG       152.3690  -86.4170  114.5330 C.2    22  ASN22       0.2627
     38  OD1      151.4690  -85.5810  114.4510 O.2    22  ASN22      -0.2716
     39  ND2      152.1430  -87.7230  114.4530 N.am   22  ASN22      -0.0877
     40  N        156.8670  -85.3310  114.0250 N.am   23  VAL23      -0.1980
     41  CA       158.0670  -84.5320  114.2610 C.3    23  VAL23       0.1595
     42  C        158.5370  -83.8790  112.9670 C.2    23  VAL23       0.2287
     43  O        158.8580  -82.6840  112.9340 O.2    23  VAL23      -0.2864
     44  CB       159.1740  -85.4010  114.8870 C.3    23  VAL23       0.0276
     45  CG1      160.5100  -84.6780  114.8430 C.3    23  VAL23       0.0022
     46  CG2      158.8190  -85.7660  116.3170 C.3    23  VAL23       0.0022
     47  N        156.2780  -81.1340  112.0610 N.3    26  PHE26      -0.1241
     48  CA       156.5460  -79.9560  112.8790 C.3    26  PHE26       0.1605
     49  C        157.7760  -79.2150  112.3730 C.2    26  PHE26       0.2264
     50  O        157.8110  -77.9790  112.3740 O.2    26  PHE26      -0.2867
     51  CB       156.7170  -80.3630  114.3430 C.3    26  PHE26       0.0534
     52  CG       156.0590  -79.4250  115.3140 C.ar   26  PHE26      -0.0203
     53  CD1      155.2930  -79.9160  116.3600 C.ar   26  PHE26      -0.0042
     54  CD2      156.2070  -78.0530  115.1850 C.ar   26  PHE26      -0.0042
     55  CE1      154.6840  -79.0570  117.2560 C.ar   26  PHE26      -0.0003
     56  CE2      155.5990  -77.1900  116.0770 C.ar   26  PHE26      -0.0003
     57  CZ       154.8370  -77.6930  117.1130 C.ar   26  PHE26      -0.0000
     58  N        157.0790  -77.7060  121.0420 N.3    50  LYS50      -0.1245
     59  CA       155.6760  -78.0760  120.8970 C.3    50  LYS50       0.1561
     60  C        154.7860  -76.8390  120.8890 C.2    50  LYS50       0.2260
     61  O        154.1770  -76.5160  119.8650 O.2    50  LYS50      -0.2867
     62  CB       155.2630  -79.0480  122.0040 C.3    50  LYS50       0.0271
     63  CG       155.9660  -80.4070  121.9370 C.3    50  LYS50       0.0035
     64  CD       155.5170  -81.2390  120.7320 C.3    50  LYS50       0.0206
     65  CE       156.4920  -81.1470  119.5580 C.3    50  LYS50       0.1093
     66  NZ       157.8620  -81.6080  119.9160 N.3    50  LYS50      -0.1314
     67  N        148.9510  -77.0760  116.5560 N.3    59  LEU59      -0.1245
     68  CA       147.8140  -77.9290  116.2260 C.3    59  LEU59       0.1561
     69  C        147.7690  -78.2490  114.7360 C.2    59  LEU59       0.2260
     70  O        147.5160  -79.3980  114.3510 O.2    59  LEU59      -0.2867
     71  CB       146.5200  -77.2540  116.6760 C.3    59  LEU59       0.0270
     72  CG       145.5600  -78.0730  117.5370 C.3    59  LEU59       0.0019
     73  CD1      146.3220  -78.8610  118.5880 C.3    59  LEU59       0.0001
     74  CD2      144.5570  -77.1430  118.1910 C.3    59  LEU59       0.0001
     75  N        150.5580  -80.6580  113.8900 N.3    62  MET62      -0.1245
     76  CA       150.2750  -81.9840  114.4340 C.3    62  MET62       0.1570
     77  C        149.2070  -82.6970  113.6150 C.2    62  MET62       0.2261
     78  O        149.2820  -83.9160  113.4100 O.2    62  MET62      -0.2867
     79  CB       149.8480  -81.8730  115.8960 C.3    62  MET62       0.0387
     80  CG       151.0040  -81.8330  116.8750 C.3    62  MET62       0.0595
     81  SD       152.0550  -83.2920  116.7380 S.3    62  MET62      -0.1393
     82  CE       153.0970  -83.0970  118.1830 C.3    62  MET62       0.0692
     83  N        149.7850  -86.2140  111.6950 N.3    66  HIS66      -0.1241
     84  CA       148.9360  -87.4000  111.7090 C.3    66  HIS66       0.1621
     85  C        148.5000  -87.7940  110.3040 C.2    66  HIS66       0.2264
     86  O        148.3360  -88.9850  110.0260 O.2    66  HIS66      -0.2867
     87  CB       147.7240  -87.1860  112.6140 C.3    66  HIS66       0.0745
     88  CG       147.8500  -87.8570  113.9470 C.ar   66  HIS66       0.0817
     89  ND1      148.6860  -87.3910  114.9390 N.ar   66  HIS66      -0.2268
     90  CD2      147.2620  -88.9710  114.4450 C.ar   66  HIS66       0.1154
     91  CE1      148.5990  -88.1810  115.9940 C.ar   66  HIS66       0.1986
     92  NE2      147.7420  -89.1480  115.7190 N.ar   66  HIS66      -0.2212
@<TRIPOS>BOND
     1    86    85    2
     2    85    84    1
     3    83    84    1
     4    84    87    1
     5    47    48    1
     6    49    50    2
     7    49    48    1
     8    87    88    1
     9    25    24    1
    10    32    33    1
    11    48    51    1
    12    43    42    2
    13    42    41    1
    14    24    23    1
    15    78    77    2
    16    33    34    1
    17    33    36    1
    18    35    34    2
    19    18    19    1
    20    77    76    1
    21    34    40   am
    22    19    20    1
    23    19    22    1
    24     6     5    1
    25    21    20    2
    26    75    76    1
    27    88    90   ar
    28    88    89   ar
    29    40    41    1
    30     2     5    1
    31     2     1    1
    32     2     3    1
    33     4     3    2
    34    41    44    1
    35    51    52    1
    36    20    26   am
    37    70    69    2
    38    76    79    1
    39    90    92   ar
    40    38    37    2
    41    39    37   am
    42    37    36    1
    43    22    23    1
    44    69    68    1
    45    45    44    1
    46     3     7   am
    47    44    46    1
    48    89    91   ar
    49    29    28    2
    50    54    52   ar
    51    54    56   ar
    52    28    27    1
    53    52    53   ar
    54    26    27    1
    55    92    91   ar
    56    79    80    1
    57    17    16    2
    58    56    57   ar
    59    27    30    1
    60     7     8    1
    61    68    67    1
    62    68    71    1
    63    53    55   ar
    64    16    15    1
    65    71    72    1
    66    81    80    1
    67    81    82    1
    68    10     9    2
    69     8     9    1
    70     8    11    1
    71    57    55   ar
    72     9    14   am
    73    30    31    1
    74    14    15    1
    75    72    74    1
    76    72    73    1
    77    12    11    1
    78    11    13    1
    79    65    66    1
    80    65    64    1
    81    61    60    2
    82    64    63    1
    83    60    59    1
    84    59    58    1
    85    59    62    1
    86    63    62    1
