@<TRIPOS>MOLECULE
tmp/5oy0I05.pdb
 122 116 0 0 0
SMALL
GASTEIGER

@<TRIPOS>ATOM
      1  N         68.4450  -70.1300   -5.4420 N.3    11  TRP11      -0.1227
      2  CA        67.5250  -69.0130   -5.6620 C.3    11  TRP11       0.1737
      3  C         66.6270  -68.7700   -4.4510 C.2    11  TRP11       0.2596
      4  O         65.4980  -68.2880   -4.5770 O.2    11  TRP11      -0.2718
      5  CB        66.7070  -69.2230   -6.9400 C.3    11  TRP11       0.0564
      6  CG        67.3590  -68.6880   -8.2230 C.ar   11  TRP11       0.0003
      7  CD1       66.7080  -68.3470   -9.3770 C.ar   11  TRP11       0.0946
      8  CD2       68.7610  -68.4280   -8.4700 C.ar   11  TRP11       0.0152
      9  NE1       67.6040  -67.9030  -10.3180 N.ar   11  TRP11      -0.2442
     10  CE2       68.8670  -67.9420   -9.7880 C.ar   11  TRP11       0.0810
     11  CE3       69.9320  -68.5650   -7.7100 C.ar   11  TRP11       0.0012
     12  CZ2       70.0890  -67.5910  -10.3580 C.ar   11  TRP11       0.0191
     13  CZ3       71.1400  -68.2140   -8.2770 C.ar   11  TRP11       0.0001
     14  CH2       71.2110  -67.7330   -9.5880 C.ar   11  TRP11       0.0015
     15  N         67.1430  -69.1110   -3.2730 N.am   12  SER12      -0.1952
     16  CA        66.5880  -68.6950   -1.9940 C.3    12  SER12       0.1924
     17  C         67.7560  -68.5030   -1.0390 C.2    12  SER12       0.2314
     18  O         67.9270  -67.4270   -0.4580 O.2    12  SER12      -0.2863
     19  CB        65.5920  -69.7210   -1.4500 C.3    12  SER12       0.2116
     20  OG        65.1420  -69.3580   -0.1540 O.3    12  SER12      -0.2180
     21  N         71.1040  -69.3380   -2.1660 N.3    14  SER14      -0.1202
     22  CA        72.2430  -68.9170   -2.9730 C.3    14  SER14       0.2020
     23  C         72.1970  -67.4270   -3.2900 C.2    14  SER14       0.2619
     24  O         73.2480  -66.7930   -3.4390 O.2    14  SER14      -0.2717
     25  CB        72.2940  -69.7380   -4.2630 C.3    14  SER14       0.2103
     26  OG        73.4330  -69.4110   -5.0390 O.3    14  SER14      -0.2182
     27  N         71.0020  -66.8480   -3.3760 N.am   15  VAL15      -0.1965
     28  CA        70.8440  -65.4620   -3.8020 C.3    15  VAL15       0.1727
     29  C         71.0430  -64.5030   -2.6340 C.2    15  VAL15       0.2616
     30  O         72.1780  -64.1820   -2.2660 O.2    15  VAL15      -0.2715
     31  CB        69.4680  -65.2520   -4.4570 C.3    15  VAL15       0.0290
     32  CG1       69.5260  -65.6090   -5.9270 C.3    15  VAL15       0.0023
     33  CG2       68.4270  -66.1020   -3.7580 C.3    15  VAL15       0.0023
     34  N         69.9390  -64.0300   -2.0540 N.am   16  GLY16      -0.1955
     35  CA        70.0290  -62.9920   -1.0410 C.3    16  GLY16       0.1869
     36  C         70.7970  -63.4280    0.1880 C.2    16  GLY16       0.2309
     37  O         71.6020  -62.6670    0.7320 O.2    16  GLY16      -0.2863
     38  N         74.6820  -64.2920   -1.9390 N.3    19  MET19      -0.1230
     39  CA        75.2230  -63.4340   -2.9960 C.3    19  MET19       0.1702
     40  C         74.8650  -61.9670   -2.7750 C.2    19  MET19       0.2592
     41  O         75.7430  -61.0950   -2.7770 O.2    19  MET19      -0.2718
     42  CB        74.7310  -63.9110   -4.3650 C.3    19  MET19       0.0401
     43  CG        75.0770  -62.9770   -5.5290 C.3    19  MET19       0.0596
     44  SD        76.8410  -62.7580   -5.8800 S.3    19  MET19      -0.1393
     45  CE        77.3870  -64.4520   -6.0930 C.3    19  MET19       0.0692
     46  N         73.5770  -61.6720   -2.5890 N.am   20  CYS20      -0.1970
     47  CA        73.1890  -60.2910   -2.3260 C.3    20  CYS20       0.1712
     48  C         73.7290  -59.8050   -0.9870 C.2    20  CYS20       0.2296
     49  O         74.0700  -58.6250   -0.8490 O.2    20  CYS20      -0.2864
     50  CB        71.6690  -60.1430   -2.3730 C.3    20  CYS20       0.0983
     51  SG        71.0960  -58.4330   -2.2430 S.3    20  CYS20      -0.0798
     52  N         77.2740  -58.9200   -1.5460 N.3    23  ASN23      -0.1225
     53  CA        77.3100  -57.6820   -2.3200 C.3    23  ASN23       0.1785
     54  C         77.0360  -56.4670   -1.4390 C.2    23  ASN23       0.2597
     55  O         77.6840  -55.4260   -1.5880 O.2    23  ASN23      -0.2718
     56  CB        76.3070  -57.7580   -3.4700 C.3    23  ASN23       0.1169
     57  CG        76.8500  -58.5230   -4.6580 C.2    23  ASN23       0.2627
     58  OD1       77.5350  -57.9570   -5.5130 O.2    23  ASN23      -0.2716
     59  ND2       76.5560  -59.8180   -4.7150 N.am   23  ASN23      -0.0877
     60  N         76.0830  -56.5860   -0.5130 N.am   24  VAL24      -0.1980
     61  CA        75.8030  -55.5060    0.4340 C.3    24  VAL24       0.1595
     62  C         77.0040  -55.2660    1.3460 C.2    24  VAL24       0.2287
     63  O         77.3440  -54.1180    1.6650 O.2    24  VAL24      -0.2864
     64  CB        74.5310  -55.8290    1.2420 C.3    24  VAL24       0.0276
     65  CG1       74.4610  -54.9800    2.5080 C.3    24  VAL24       0.0022
     66  CG2       73.2840  -55.6300    0.3780 C.3    24  VAL24       0.0022
     67  N         79.4610  -53.3740   -0.6570 N.3    27  PHE27      -0.1241
     68  CA        78.9310  -52.0140   -0.6320 C.3    27  PHE27       0.1605
     69  C         79.4010  -51.2680    0.6040 C.2    27  PHE27       0.2264
     70  O         79.9100  -50.1470    0.5140 O.2    27  PHE27      -0.2867
     71  CB        77.4030  -52.0470   -0.6440 C.3    27  PHE27       0.0534
     72  CG        76.7950  -51.8620   -1.9930 C.ar   27  PHE27      -0.0203
     73  CD1       77.2650  -50.8930   -2.8590 C.ar   27  PHE27      -0.0042
     74  CD2       75.7320  -52.6520   -2.3900 C.ar   27  PHE27      -0.0042
     75  CE1       76.6900  -50.7240   -4.1030 C.ar   27  PHE27      -0.0003
     76  CE2       75.1530  -52.4850   -3.6260 C.ar   27  PHE27      -0.0003
     77  CZ        75.6320  -51.5250   -4.4840 C.ar   27  PHE27      -0.0000
     78  N         72.4450  -46.4430   -1.7660 N.3    50  SER50      -0.1202
     79  CA        73.4170  -47.5310   -1.7710 C.3    50  SER50       0.2020
     80  C         73.4690  -48.2310   -3.1230 C.2    50  SER50       0.2618
     81  O         74.5570  -48.5060   -3.6400 O.2    50  SER50      -0.2717
     82  CB        73.0870  -48.5380   -0.6650 C.3    50  SER50       0.2103
     83  OG        74.2030  -49.3590   -0.3660 O.3    50  SER50      -0.2182
     84  N         72.2970  -48.5160   -3.7000 N.am   51  LYS51      -0.1979
     85  CA        72.2340  -49.2850   -4.9420 C.3    51  LYS51       0.1596
     86  C         73.0420  -48.6230   -6.0510 C.2    51  LYS51       0.2287
     87  O         73.6700  -49.3080   -6.8680 O.2    51  LYS51      -0.2864
     88  CB        70.7780  -49.4540   -5.3830 C.3    51  LYS51       0.0298
     89  CG        69.7750  -49.6410   -4.2510 C.3    51  LYS51       0.0038
     90  CD        69.1270  -48.3200   -3.8480 C.3    51  LYS51       0.0206
     91  CE        67.9170  -48.5500   -2.9580 C.3    51  LYS51       0.1093
     92  NZ        66.8950  -49.4070   -3.6300 N.3    51  LYS51      -0.1314
     93  N         80.5880  -53.7910   -6.7650 N.3    63  MET63      -0.1245
     94  CA        79.7390  -54.9040   -7.1690 C.3    63  MET63       0.1570
     95  C         80.5520  -56.0770   -7.6920 C.2    63  MET63       0.2261
     96  O         80.2290  -57.2350   -7.4060 O.2    63  MET63      -0.2867
     97  CB        78.7310  -54.4320   -8.2110 C.3    63  MET63       0.0387
     98  CG        77.4900  -53.8210   -7.5990 C.3    63  MET63       0.0595
     99  SD        76.5930  -55.0290   -6.6080 S.3    63  MET63      -0.1393
    100  CE        77.2320  -54.7380   -4.9560 C.3    63  MET63       0.0692
    101  N         80.7130  -59.7240   -6.0060 N.3    67  HIS67      -0.1241
    102  CA        80.5670  -60.9800   -6.7360 C.3    67  HIS67       0.1621
    103  C         81.7370  -61.9160   -6.4650 C.2    67  HIS67       0.2264
    104  O         81.5500  -63.1310   -6.3610 O.2    67  HIS67      -0.2867
    105  CB        80.4180  -60.7130   -8.2310 C.3    67  HIS67       0.0745
    106  CG        79.0350  -60.3050   -8.6260 C.ar   67  HIS67       0.0817
    107  ND1       78.3860  -59.2340   -8.0510 N.ar   67  HIS67      -0.2268
    108  CD2       78.1700  -60.8310   -9.5240 C.ar   67  HIS67       0.1154
    109  CE1       77.1830  -59.1140   -8.5820 C.ar   67  HIS67       0.1986
    110  NE2       77.0270  -60.0710   -9.4780 N.ar   67  HIS67      -0.2212
    111  N         80.9060  -65.4430   -4.8510 N.3    71  ALA71      -0.1245
    112  CA        81.3790  -66.6770   -5.4660 C.3    71  ALA71       0.1562
    113  C         82.1850  -67.4940   -4.4680 C.2    71  ALA71       0.2260
    114  O         81.9140  -68.6860   -4.2560 O.2    71  ALA71      -0.2867
    115  CB        82.2080  -66.3550   -6.7100 C.3    71  ALA71       0.0290
    116  N         79.6890  -68.7910   -1.5560 N.3    74  VAL74      -0.1245
    117  CA        78.7990  -69.8500   -2.0270 C.3    74  VAL74       0.1561
    118  C         79.5780  -71.1450   -2.2110 C.2    74  VAL74       0.2260
    119  O         79.1750  -72.2100   -1.7200 O.2    74  VAL74      -0.2867
    120  CB        78.0980  -69.4300   -3.3320 C.3    74  VAL74       0.0252
    121  CG1       77.4270  -70.6350   -3.9800 C.3    74  VAL74       0.0019
    122  CG2       77.0760  -68.3220   -3.0740 C.3    74  VAL74       0.0019
@<TRIPOS>BOND
     1    12    10   ar
     2    12    14   ar
     3     9    10   ar
     4     9     7   ar
     5    10     8   ar
     6    14    13   ar
     7   108   110   ar
     8   108   106   ar
     9   110   109   ar
    10     7     6   ar
    11   106   105    1
    12   106   107   ar
    13   109   107   ar
    14     8     6   ar
    15     8    11   ar
    16    13    11   ar
    17   105   102    1
    18     6     5    1
    19    97    98    1
    20    97    94    1
    21    95    96    2
    22    95    94    1
    23    98    99    1
    24    94    93    1
    25     5     2    1
    26    87    86    2
    27   102   103    1
    28   102   101    1
    29   115   112    1
    30    99   100    1
    31   103   104    2
    32    45    44    1
    33    86    85    1
    34    32    31    1
    35    44    43    1
    36     2     1    1
    37     2     3    1
    38    43    42    1
    39    58    57    2
    40   112   111    1
    41   112   113    1
    42    88    85    1
    43    88    89    1
    44    26    25    1
    45    85    84    1
    46    59    57   am
    47    57    56    1
    48     4     3    2
    49    77    75   ar
    50    77    76   ar
    51   113   114    2
    52    31    28    1
    53    31    33    1
    54     3    15   am
    55    42    39    1
    56    25    22    1
    57    89    90    1
    58    75    73   ar
    59   121   120    1
    60    90    91    1
    61    28    27    1
    62    28    29    1
    63    84    80   am
    64    81    80    2
    65    92    91    1
    66    76    74   ar
    67    56    53    1
    68    24    23    2
    69    27    23   am
    70   120   122    1
    71   120   117    1
    72    23    22    1
    73    15    16    1
    74    80    79    1
    75    39    40    1
    76    39    38    1
    77    22    21    1
    78    73    72   ar
    79    41    40    2
    80    40    46   am
    81    29    30    2
    82    29    34   am
    83    46    47    1
    84    74    72   ar
    85    50    47    1
    86    50    51    1
    87    47    48    1
    88    53    52    1
    89    53    54    1
    90   118   117    1
    91   118   119    2
    92    34    35    1
    93   117   116    1
    94    16    19    1
    95    16    17    1
    96    72    71    1
    97    79    78    1
    98    79    82    1
    99    55    54    2
   100    19    20    1
   101    54    60   am
   102    35    36    1
   103    17    18    2
   104    48    49    2
   105    82    83    1
   106    67    68    1
   107    71    68    1
   108    68    69    1
   109    60    61    1
   110    36    37    2
   111    66    64    1
   112    61    64    1
   113    61    62    1
   114    70    69    2
   115    64    65    1
   116    62    63    2
