@<TRIPOS>MOLECULE
tmp/5oy0T04.pdb
 70 65 0 0 0
SMALL
GASTEIGER

@<TRIPOS>ATOM
      1  N        143.6560 -104.9180  101.6730 N.3     3  ALA3       -0.1245
      2  CA       144.8890 -104.3220  102.1720 C.3     3  ALA3        0.1562
      3  C        145.0580 -104.6570  103.6500 C.2     3  ALA3        0.2260
      4  O        144.1860 -104.3450  104.4690 O.2     3  ALA3       -0.2867
      5  CB       144.8750 -102.8110  101.9510 C.3     3  ALA3        0.0290
      6  N        148.7840  -82.2170  110.3850 N.3    64  PHE64      -0.1241
      7  CA       149.5250  -82.6510  109.2040 C.3    64  PHE64       0.1605
      8  C        150.4410  -83.8290  109.5160 C.2    64  PHE64       0.2264
      9  O        150.6470  -84.7010  108.6630 O.2    64  PHE64      -0.2867
     10  CB       150.3330  -81.4900  108.6280 C.3    64  PHE64       0.0534
     11  CG       151.0700  -81.8380  107.3690 C.ar   64  PHE64      -0.0203
     12  CD1      150.3770  -82.0950  106.1970 C.ar   64  PHE64      -0.0042
     13  CD2      152.4510  -81.9150  107.3560 C.ar   64  PHE64      -0.0042
     14  CE1      151.0500  -82.4220  105.0360 C.ar   64  PHE64      -0.0003
     15  CE2      153.1300  -82.2390  106.1980 C.ar   64  PHE64      -0.0003
     16  CZ       152.4290  -82.4940  105.0370 C.ar   64  PHE64      -0.0000
     17  N        148.3290  -86.8230  109.4030 N.3    67  ILE67      -0.1231
     18  CA       148.0780  -87.1560  107.9990 C.3    67  ILE67       0.1692
     19  C        149.2490  -87.9490  107.4240 C.2    67  ILE67       0.2591
     20  O        149.0750  -89.0420  106.8610 O.2    67  ILE67      -0.2718
     21  CB       147.8090  -85.8800  107.1800 C.3    67  ILE67       0.0266
     22  CG1      146.4000  -85.3570  107.4530 C.3    67  ILE67       0.0019
     23  CG2      148.0040  -86.1430  105.6940 C.3    67  ILE67       0.0020
     24  CD1      146.0600  -84.1040  106.6870 C.3    67  ILE67       0.0001
     25  N        150.4600  -87.3930  107.5490 N.am   68  LEU68      -0.1980
     26  CA       151.6650  -88.0770  107.0840 C.3    68  LEU68       0.1596
     27  C        151.7960  -89.4600  107.7100 C.2    68  LEU68       0.2287
     28  O        152.1470  -90.4290  107.0270 O.2    68  LEU68      -0.2864
     29  CB       152.8980  -87.2300  107.4060 C.3    68  LEU68       0.0297
     30  CG       153.5750  -86.4270  106.2930 C.3    68  LEU68       0.0022
     31  CD1      154.4960  -85.3770  106.8870 C.3    68  LEU68       0.0001
     32  CD2      154.3580  -87.3510  105.3820 C.3    68  LEU68       0.0001
     33  N        149.1780  -91.9960  106.3900 N.3    71  GLY71      -0.1210
     34  CA       149.6340  -92.4120  105.0730 C.3    71  GLY71       0.1956
     35  C        150.7790  -93.4050  105.1450 C.2    71  GLY71       0.2611
     36  O        150.7550  -94.4470  104.4860 O.2    71  GLY71      -0.2717
     37  N        151.7890  -93.1000  105.9660 N.am   72  MET72      -0.1979
     38  CA       152.9470  -93.9800  106.1010 C.3    72  MET72       0.1605
     39  C        152.5430  -95.3580  106.6120 C.2    72  MET72       0.2287
     40  O        152.9790  -96.3850  106.0770 O.2    72  MET72      -0.2864
     41  CB       153.9750  -93.3470  107.0400 C.3    72  MET72       0.0413
     42  CG       155.2010  -92.7600  106.3600 C.3    72  MET72       0.0598
     43  SD       154.8500  -91.3040  105.3600 S.3    72  MET72      -0.1393
     44  CE       156.5010  -90.6370  105.1620 C.3    72  MET72       0.0692
     45  N        149.5170  -96.9160  106.6530 N.3    74  LEU74      -0.1231
     46  CA       148.6960  -97.6860  105.7240 C.3    74  LEU74       0.1693
     47  C        149.5030  -98.1320  104.5100 C.2    74  LEU74       0.2593
     48  O        149.2980  -99.2390  103.9970 O.2    74  LEU74      -0.2718
     49  CB       147.4710  -96.8760  105.3000 C.3    74  LEU74       0.0284
     50  CG       146.2170  -97.0080  106.1740 C.3    74  LEU74       0.0019
     51  CD1      145.8870  -98.4720  106.4380 C.3    74  LEU74       0.0001
     52  CD2      146.3480  -96.2420  107.4810 C.3    74  LEU74       0.0001
     53  N        150.4420  -97.3040  104.0510 N.am   75  GLY75      -0.1942
     54  CA       151.2510  -97.6560  102.9020 C.3    75  GLY75       0.2014
     55  C        152.2340  -98.7740  103.1740 C.2    75  GLY75       0.2638
     56  O        152.2350  -99.7870  102.4690 O.2    75  GLY75      -0.2714
     57  N        153.0820  -98.6030  104.1920 N.am   76  LEU76      -0.1977
     58  CA       154.0410  -99.6470  104.5350 C.3    76  LEU76       0.1596
     59  C        153.3540 -100.9140  105.0240 C.2    76  LEU76       0.2287
     60  O        153.9300 -102.0020  104.9100 O.2    76  LEU76      -0.2864
     61  CB       155.0190  -99.1340  105.5930 C.3    76  LEU76       0.0297
     62  CG       156.5070  -99.3130  105.2840 C.3    76  LEU76       0.0022
     63  CD1      156.8970 -100.7850  105.2790 C.3    76  LEU76       0.0001
     64  CD2      156.8490  -98.6590  103.9520 C.3    76  LEU76       0.0001
     65  N        151.1160 -102.4390  103.6100 N.3    78  SER78      -0.1217
     66  CA       150.7460 -103.2250  102.4350 C.3    78  SER78       0.1889
     67  C        149.2920 -103.6760  102.5230 C.2    78  SER78       0.2288
     68  O        148.4070 -102.8830  102.8480 O.2    78  SER78      -0.2866
     69  CB       151.6720 -104.4340  102.2750 C.3    78  SER78       0.2089
     70  OG       151.3160 -105.1980  101.1370 O.3    78  SER78      -0.2183
@<TRIPOS>BOND
     1    70    69    1
     2     1     2    1
     3     5     2    1
     4     2     3    1
     5    69    66    1
     6    66    67    1
     7    66    65    1
     8    56    55    2
     9    67    68    2
    10    54    55    1
    11    54    53    1
    12    55    57   am
    13     3     4    2
    14    64    62    1
    15    48    47    2
    16    53    47   am
    17    57    58    1
    18    36    35    2
    19    47    46    1
    20    58    59    1
    21    58    61    1
    22    60    59    2
    23    14    16   ar
    24    14    12   ar
    25    16    15   ar
    26    34    35    1
    27    34    33    1
    28    35    37   am
    29    44    43    1
    30    63    62    1
    31    62    61    1
    32    49    46    1
    33    49    50    1
    34    43    42    1
    35    32    30    1
    36    23    21    1
    37    46    45    1
    38    37    38    1
    39    40    39    2
    40    38    39    1
    41    38    41    1
    42    50    51    1
    43    50    52    1
    44    12    11   ar
    45    15    13   ar
    46    30    31    1
    47    30    29    1
    48    42    41    1
    49    24    22    1
    50    20    19    2
    51    28    27    2
    52    26    29    1
    53    26    25    1
    54    26    27    1
    55    21    22    1
    56    21    18    1
    57    13    11   ar
    58    11    10    1
    59    19    25   am
    60    19    18    1
    61    18    17    1
    62    10     7    1
    63     9     8    2
    64     7     8    1
    65     7     6    1
