@<TRIPOS>MOLECULE
tmp/5oy0I06.pdb
 86 81 0 0 0
SMALL
GASTEIGER

@<TRIPOS>ATOM
      1  N         72.0910  -39.5700  -10.5140 N.3    46  PRO46      -0.2116
      2  CA        71.2860  -39.3590   -9.2990 C.3    46  PRO46       0.1372
      3  C         71.8170  -40.0660   -8.0630 C.2    46  PRO46       0.2244
      4  O         71.4330  -41.2050   -7.7760 O.2    46  PRO46      -0.2868
      5  CB        69.9080  -39.8980   -9.7000 C.3    46  PRO46       0.0268
      6  CG        70.2060  -40.9510  -10.6860 C.3    46  PRO46       0.0207
      7  CD        71.4580  -40.5530  -11.4160 C.3    46  PRO46       0.0892
      8  N         72.2400  -41.6170   -4.6830 N.3    48  LEU48      -0.1245
      9  CA        71.1320  -42.1750   -3.9200 C.3    48  LEU48       0.1561
     10  C         71.5910  -42.6570   -2.5500 C.2    48  LEU48       0.2260
     11  O         72.3240  -41.9520   -1.8470 O.2    48  LEU48      -0.2867
     12  CB        70.4820  -43.3260   -4.6940 C.3    48  LEU48       0.0270
     13  CG        68.9530  -43.3590   -4.8140 C.3    48  LEU48       0.0019
     14  CD1       68.2790  -42.9500   -3.5090 C.3    48  LEU48       0.0001
     15  CD2       68.4650  -42.4960   -5.9720 C.3    48  LEU48       0.0001
     16  N         72.2970  -48.5160   -3.7000 N.3    51  LYS51      -0.1231
     17  CA        72.2340  -49.2850   -4.9420 C.3    51  LYS51       0.1693
     18  C         73.0420  -48.6230   -6.0510 C.2    51  LYS51       0.2591
     19  O         73.6700  -49.3080   -6.8680 O.2    51  LYS51      -0.2718
     20  CB        70.7780  -49.4540   -5.3830 C.3    51  LYS51       0.0285
     21  CG        69.7750  -49.6410   -4.2510 C.3    51  LYS51       0.0035
     22  CD        69.1270  -48.3200   -3.8480 C.3    51  LYS51       0.0206
     23  CE        67.9170  -48.5500   -2.9580 C.3    51  LYS51       0.1093
     24  NZ        66.8950  -49.4070   -3.6300 N.3    51  LYS51      -0.1314
     25  N         73.0370  -47.2960   -6.0910 N.am   52  LYS52      -0.1980
     26  CA        73.7100  -46.4850   -7.0970 C.3    52  LYS52       0.1596
     27  C         74.0560  -45.1530   -6.4300 C.2    52  LYS52       0.2287
     28  O         73.6760  -44.0710   -6.8760 O.2    52  LYS52      -0.2864
     29  CB        72.8170  -46.3220   -8.3260 C.3    52  LYS52       0.0298
     30  CG        73.4600  -45.6330   -9.5150 C.3    52  LYS52       0.0038
     31  CD        74.5360  -46.4910  -10.1460 C.3    52  LYS52       0.0206
     32  CE        75.3250  -45.6710  -11.1320 C.3    52  LYS52       0.1093
     33  NZ        75.6820  -44.3770  -10.4980 N.3    52  LYS52      -0.1314
     34  N         80.1190  -47.9970   -7.7870 N.3    59  LEU59      -0.1231
     35  CA        79.0960  -49.0330   -7.8960 C.3    59  LEU59       0.1693
     36  C         79.6430  -50.2800   -8.5820 C.2    59  LEU59       0.2591
     37  O         79.5420  -51.3920   -8.0510 O.2    59  LEU59      -0.2718
     38  CB        77.8890  -48.4830   -8.6600 C.3    59  LEU59       0.0284
     39  CG        76.9500  -49.5570   -9.2530 C.3    59  LEU59       0.0019
     40  CD1       75.8750  -49.9200   -8.2960 C.3    59  LEU59       0.0001
     41  CD2       76.3500  -49.0350  -10.5120 C.3    59  LEU59       0.0001
     42  N         80.2510  -50.1020   -9.7550 N.am   60  LEU60      -0.1980
     43  CA        80.7260  -51.2310  -10.5480 C.3    60  LEU60       0.1596
     44  C         81.8270  -52.0020   -9.8260 C.2    60  LEU60       0.2287
     45  O         81.8250  -53.2390   -9.8160 O.2    60  LEU60      -0.2864
     46  CB        81.2120  -50.7230  -11.9070 C.3    60  LEU60       0.0297
     47  CG        80.5490  -51.2490  -13.1840 C.3    60  LEU60       0.0022
     48  CD1       79.0710  -51.5280  -12.9720 C.3    60  LEU60       0.0001
     49  CD2       80.7440  -50.2600  -14.3270 C.3    60  LEU60       0.0001
     50  N         80.5880  -53.7910   -6.7650 N.3    63  MET63      -0.1230
     51  CA        79.7390  -54.9040   -7.1690 C.3    63  MET63       0.1702
     52  C         80.5520  -56.0770   -7.6920 C.2    63  MET63       0.2593
     53  O         80.2290  -57.2350   -7.4060 O.2    63  MET63      -0.2718
     54  CB        78.7310  -54.4320   -8.2110 C.3    63  MET63       0.0401
     55  CG        77.4900  -53.8210   -7.5990 C.3    63  MET63       0.0596
     56  SD        76.5930  -55.0290   -6.6080 S.3    63  MET63      -0.1393
     57  CE        77.2320  -54.7380   -4.9560 C.3    63  MET63       0.0692
     58  N         81.6080  -55.7980   -8.4540 N.am   64  SER64      -0.1952
     59  CA        82.5310  -56.8560   -8.8430 C.3    64  SER64       0.1924
     60  C         83.1660  -57.5000   -7.6160 C.2    64  SER64       0.2314
     61  O         83.3280  -58.7260   -7.5550 O.2    64  SER64      -0.2863
     62  CB        83.5950  -56.2830   -9.7740 C.3    64  SER64       0.2116
     63  OG        83.0040  -55.5110  -10.8070 O.3    64  SER64      -0.2180
     64  N         80.7130  -59.7240   -6.0060 N.3    67  HIS67      -0.1226
     65  CA        80.5670  -60.9800   -6.7360 C.3    67  HIS67       0.1752
     66  C         81.7370  -61.9160   -6.4650 C.2    67  HIS67       0.2595
     67  O         81.5500  -63.1310   -6.3610 O.2    67  HIS67      -0.2718
     68  CB        80.4180  -60.7130   -8.2310 C.3    67  HIS67       0.0759
     69  CG        79.0350  -60.3050   -8.6260 C.ar   67  HIS67       0.0818
     70  ND1       78.3860  -59.2340   -8.0510 N.ar   67  HIS67      -0.2268
     71  CD2       78.1700  -60.8310   -9.5240 C.ar   67  HIS67       0.1154
     72  CE1       77.1830  -59.1140   -8.5820 C.ar   67  HIS67       0.1986
     73  NE2       77.0270  -60.0710   -9.4780 N.ar   67  HIS67      -0.2212
     74  N         82.9480  -61.3750   -6.3430 N.am   68  ILE68      -0.1980
     75  CA        84.0810  -62.2040   -5.9370 C.3    68  ILE68       0.1595
     76  C         83.8240  -62.8080   -4.5590 C.2    68  ILE68       0.2287
     77  O         83.9760  -64.0210   -4.3460 O.2    68  ILE68      -0.2864
     78  CB        85.3830  -61.3830   -5.9640 C.3    68  ILE68       0.0276
     79  CG1       85.6770  -60.9090   -7.3870 C.3    68  ILE68       0.0022
     80  CG2       86.5430  -62.1980   -5.4090 C.3    68  ILE68       0.0022
     81  CD1       87.0150  -60.2170   -7.5340 C.3    68  ILE68       0.0001
     82  N         80.9060  -65.4430   -4.8510 N.3    71  ALA71      -0.1245
     83  CA        81.3790  -66.6770   -5.4660 C.3    71  ALA71       0.1562
     84  C         82.1850  -67.4940   -4.4680 C.2    71  ALA71       0.2260
     85  O         81.9140  -68.6860   -4.2560 O.2    71  ALA71      -0.2867
     86  CB        82.2080  -66.3550   -6.7100 C.3    71  ALA71       0.0290
@<TRIPOS>BOND
     1    49    47    1
     2    47    48    1
     3    47    46    1
     4    46    43    1
     5     7     6    1
     6     7     1    1
     7    32    33    1
     8    32    31    1
     9    63    62    1
    10     6     5    1
    11    43    44    1
    12    43    42    1
    13     1     2    1
    14    41    39    1
    15    31    30    1
    16    44    45    2
    17    62    59    1
    18    42    36   am
    19     5     2    1
    20    71    73   ar
    21    71    69   ar
    22    30    29    1
    23    73    72   ar
    24     2     3    1
    25    39    38    1
    26    39    40    1
    27    59    58    1
    28    59    60    1
    29    38    35    1
    30    69    68    1
    31    69    70   ar
    32    72    70   ar
    33    36    37    2
    34    36    35    1
    35    58    52   am
    36    29    26    1
    37    68    65    1
    38    54    55    1
    39    54    51    1
    40     3     4    2
    41    35    34    1
    42    52    53    2
    43    52    51    1
    44    60    61    2
    45    55    56    1
    46    81    79    1
    47    79    78    1
    48    51    50    1
    49    26    27    1
    50    26    25    1
    51    28    27    2
    52    19    18    2
    53    65    66    1
    54    65    64    1
    55    86    83    1
    56    56    57    1
    57    66    67    2
    58    66    74   am
    59    74    75    1
    60    25    18   am
    61    18    17    1
    62    15    13    1
    63    78    75    1
    64    78    80    1
    65    75    76    1
    66    83    82    1
    67    83    84    1
    68    20    17    1
    69    20    21    1
    70    17    16    1
    71    13    12    1
    72    13    14    1
    73    12     9    1
    74     8     9    1
    75    76    77    2
    76    84    85    2
    77    21    22    1
    78     9    10    1
    79    22    23    1
    80    24    23    1
    81    10    11    2
