@<TRIPOS>MOLECULE
tmp/5oy0B15.pdb
 109 104 0 0 0
SMALL
GASTEIGER

@<TRIPOS>ATOM
      1  N        189.0270  -69.6010  -29.1270 N.3   176  ASN176     -0.1225
      2  CA       190.0710  -70.6070  -29.3000 C.3   176  ASN176      0.1785
      3  C        189.9620  -71.7010  -28.2460 C.2   176  ASN176      0.2597
      4  O        190.0630  -72.8920  -28.5640 O.2   176  ASN176     -0.2718
      5  CB       191.4520  -69.9530  -29.2510 C.3   176  ASN176      0.1169
      6  CG       192.0040  -69.6520  -30.6300 C.2   176  ASN176      0.2627
      7  OD1      191.2680  -69.6300  -31.6150 O.2   176  ASN176     -0.2716
      8  ND2      193.3110  -69.4200  -30.7070 N.am  176  ASN176     -0.0877
      9  N        189.7320  -71.3200  -26.9880 N.am  177  HIS177     -0.1975
     10  CA       189.7170  -72.3180  -25.9210 C.3   177  HIS177      0.1656
     11  C        188.4600  -73.1760  -25.9710 C.2   177  HIS177      0.2291
     12  O        188.5200  -74.3850  -25.7170 O.2   177  HIS177     -0.2864
     13  CB       189.8490  -71.6400  -24.5610 C.3   177  HIS177      0.0771
     14  CG       191.1630  -70.9580  -24.3590 C.ar  177  HIS177      0.0820
     15  ND1      191.5120  -69.8080  -25.0330 N.ar  177  HIS177     -0.2267
     16  CD2      192.2210  -71.2700  -23.5740 C.ar  177  HIS177      0.1154
     17  CE1      192.7250  -69.4360  -24.6660 C.ar  177  HIS177      0.1986
     18  NE2      193.1770  -70.3050  -23.7810 N.ar  177  HIS177     -0.2212
     19  N        188.8400  -75.4750  -29.0970 N.3   180  ALA180     -0.1231
     20  CA       189.9370  -76.4310  -28.9950 C.3   180  ALA180      0.1694
     21  C        189.8330  -77.2890  -27.7360 C.2   180  ALA180      0.2592
     22  O        190.0130  -78.5100  -27.7930 O.2   180  ALA180     -0.2718
     23  CB       191.2720  -75.6880  -29.0340 C.3   180  ALA180      0.0304
     24  N        189.5460  -76.6710  -26.5910 N.am  181  GLY181     -0.1957
     25  CA       189.5340  -77.3960  -25.3360 C.3   181  GLY181      0.1869
     26  C        188.1740  -77.9120  -24.9100 C.2   181  GLY181      0.2309
     27  O        187.9990  -79.1160  -24.7010 O.2   181  GLY181     -0.2863
     28  N        189.0010  -81.2000  -26.9290 N.3   185  VAL185     -0.1245
     29  CA       189.6360  -82.0660  -25.9380 C.3   185  VAL185      0.1561
     30  C        188.5950  -82.9260  -25.2310 C.2   185  VAL185      0.2260
     31  O        188.8490  -84.0930  -24.9130 O.2   185  VAL185     -0.2867
     32  CB       190.4510  -81.2220  -24.9400 C.3   185  VAL185      0.0252
     33  CG1      191.0140  -82.0920  -23.8260 C.3   185  VAL185      0.0019
     34  CG2      191.5650  -80.4960  -25.6640 C.3   185  VAL185      0.0019
     35  N        187.6250  -85.6710  -27.6270 N.3   188  LEU188     -0.1245
     36  CA       188.7270  -86.6270  -27.6430 C.3   188  LEU188      0.1561
     37  C        188.7090  -87.5050  -26.3970 C.2   188  LEU188      0.2260
     38  O        188.9380  -88.7170  -26.4760 O.2   188  LEU188     -0.2867
     39  CB       190.0540  -85.8760  -27.7650 C.3   188  LEU188      0.0270
     40  CG       191.3510  -86.6800  -27.8570 C.3   188  LEU188      0.0019
     41  CD1      191.3700  -87.5230  -29.1170 C.3   188  LEU188      0.0001
     42  CD2      192.5670  -85.7590  -27.7960 C.3   188  LEU188      0.0001
     43  N        189.6890  -79.2030  -32.4760 N.3   285  ILE285     -0.1245
     44  CA       191.0160  -78.7570  -32.0650 C.3   285  ILE285      0.1561
     45  C        191.6130  -77.8460  -33.1280 C.2   285  ILE285      0.2260
     46  O        192.1320  -76.7650  -32.8220 O.2   285  ILE285     -0.2867
     47  CB       191.9240  -79.9650  -31.7700 C.3   285  ILE285      0.0252
     48  CG1      191.5470  -80.5910  -30.4250 C.3   285  ILE285      0.0019
     49  CG2      193.3880  -79.5500  -31.7840 C.3   285  ILE285      0.0019
     50  CD1      192.3840  -81.7920  -30.0470 C.3   285  ILE285      0.0001
     51  N        190.0550  -74.4940  -33.0010 N.3   288  GLY288     -0.1210
     52  CA       190.5460  -73.6840  -31.9020 C.3   288  GLY288      0.1956
     53  C        191.9090  -73.0540  -32.1280 C.2   288  GLY288      0.2611
     54  O        192.5840  -72.6710  -31.1670 O.2   288  GLY288     -0.2717
     55  N        192.3270  -72.9400  -33.3870 N.am  289  HIS289     -0.1975
     56  CA       193.5810  -72.2980  -33.7640 C.3   289  HIS289      0.1656
     57  C        193.3440  -71.2620  -34.8490 C.2   289  HIS289      0.2291
     58  O        194.1670  -71.0800  -35.7500 O.2   289  HIS289     -0.2864
     59  CB       194.6120  -73.3190  -34.2370 C.3   289  HIS289      0.0771
     60  CG       194.9220  -74.3790  -33.2310 C.ar  289  HIS289      0.0820
     61  ND1      194.5060  -75.6850  -33.3760 N.ar  289  HIS289     -0.2267
     62  CD2      195.6070  -74.3290  -32.0650 C.ar  289  HIS289      0.1154
     63  CE1      194.9240  -76.3940  -32.3420 C.ar  289  HIS289      0.1986
     64  NE2      195.5900  -75.5940  -31.5310 N.ar  289  HIS289     -0.2212
     65  N        191.8370  -67.8190  -34.1700 N.3   291  TYR291     -0.1241
     66  CA       191.8720  -66.4350  -33.7320 C.3   291  TYR291      0.1605
     67  C        193.1530  -66.1470  -32.9610 C.2   291  TYR291      0.2264
     68  O        193.6180  -66.9740  -32.1710 O.2   291  TYR291     -0.2867
     69  CB       190.6410  -66.1230  -32.8810 C.3   291  TYR291      0.0534
     70  CG       189.3560  -66.4850  -33.5870 C.ar  291  TYR291     -0.0201
     71  CD1      188.9900  -65.8490  -34.7690 C.ar  291  TYR291     -0.0009
     72  CD2      188.5190  -67.4720  -33.0880 C.ar  291  TYR291     -0.0009
     73  CE1      187.8250  -66.1810  -35.4300 C.ar  291  TYR291      0.0417
     74  CE2      187.3500  -67.8110  -33.7420 C.ar  291  TYR291      0.0417
     75  CZ       187.0070  -67.1600  -34.9120 C.ar  291  TYR291      0.1957
     76  OH       185.8420  -67.4900  -35.5670 O.3   291  TYR291     -0.2866
     77  N        195.8540  -64.5990  -30.3280 N.3   293  THR293     -0.1218
     78  CA       195.8470  -64.3310  -28.8970 C.3   293  THR293      0.1862
     79  C        197.1120  -63.5930  -28.4830 C.2   293  THR293      0.2287
     80  O        197.1120  -62.3620  -28.3670 O.2   293  THR293     -0.2866
     81  CB       195.7160  -65.6280  -28.0940 C.3   293  THR293      0.1770
     82  OG1      196.6680  -66.5880  -28.5680 O.3   293  THR293     -0.2211
     83  CG2      194.3120  -66.2000  -28.2180 C.3   293  THR293      0.0375
     84  N        200.4710  -64.5060  -29.8130 N.3   295  TRP295     -0.1241
     85  CA       201.6210  -64.9160  -30.6140 C.3   295  TRP295      0.1605
     86  C        201.5680  -64.4010  -32.0490 C.2   295  TRP295      0.2264
     87  O        202.2400  -64.9650  -32.9220 O.2   295  TRP295     -0.2867
     88  CB       201.7580  -66.4430  -30.6340 C.3   295  TRP295      0.0550
     89  CG       202.1570  -67.0320  -29.3170 C.ar  295  TRP295      0.0003
     90  CD1      203.4270  -67.2150  -28.8540 C.ar  295  TRP295      0.0946
     91  CD2      201.2820  -67.5200  -28.2920 C.ar  295  TRP295      0.0152
     92  NE1      203.3980  -67.7860  -27.6050 N.ar  295  TRP295     -0.2442
     93  CE2      202.0930  -67.9830  -27.2370 C.ar  295  TRP295      0.0810
     94  CE3      199.8930  -67.6110  -28.1650 C.ar  295  TRP295      0.0012
     95  CZ2      201.5610  -68.5290  -26.0700 C.ar  295  TRP295      0.0191
     96  CZ3      199.3660  -68.1520  -27.0060 C.ar  295  TRP295      0.0001
     97  CH2      200.1990  -68.6030  -25.9740 C.ar  295  TRP295      0.0015
     98  N        200.1760  -64.7830  -34.8840 N.3   297  ILE297     -0.1231
     99  CA       199.3650  -65.5330  -35.8320 C.3   297  ILE297      0.1692
    100  C        197.9460  -65.6870  -35.2940 C.2   297  ILE297      0.2592
    101  O        197.6900  -65.6310  -34.0840 O.2   297  ILE297     -0.2718
    102  CB       199.9970  -66.8980  -36.1500 C.3   297  ILE297      0.0266
    103  CG1      200.6710  -67.4990  -34.9120 C.3   297  ILE297      0.0019
    104  CG2      201.0070  -66.7590  -37.2790 C.3   297  ILE297      0.0020
    105  CD1      199.7290  -68.1700  -33.9390 C.3   297  ILE297      0.0001
    106  N        197.0120  -65.8830  -36.2100 N.am  298  GLY298     -0.1957
    107  CA       195.6050  -65.9430  -35.8820 C.3   298  GLY298      0.1869
    108  C        194.8340  -64.7860  -36.4860 C.2   298  GLY298      0.2309
    109  O        195.3940  -63.8580  -37.0780 O.2   298  GLY298     -0.2863
@<TRIPOS>BOND
     1   104   102    1
     2   109   108    2
     3   108   107    1
     4   106   107    1
     5   106   100   am
     6   102    99    1
     7   102   103    1
     8    99   100    1
     9    99    98    1
    10    58    57    2
    11    76    75    1
    12    73    75   ar
    13    73    71   ar
    14   100   101    2
    15   103   105    1
    16    75    74   ar
    17    57    56    1
    18    71    70   ar
    19    59    56    1
    20    59    60    1
    21    65    66    1
    22    56    55    1
    23    74    72   ar
    24    66    67    1
    25    66    69    1
    26    70    72   ar
    27    70    69    1
    28    55    53   am
    29    61    60   ar
    30    61    63   ar
    31    60    62   ar
    32    45    46    2
    33    45    44    1
    34    51    52    1
    35    67    68    2
    36    87    86    2
    37    43    44    1
    38    63    64   ar
    39    53    52    1
    40    53    54    2
    41    62    64   ar
    42    44    47    1
    43    86    85    1
    44    49    47    1
    45    47    48    1
    46     7     6    2
    47     8     6   am
    48    88    85    1
    49    88    89    1
    50     6     5    1
    51    85    84    1
    52    48    50    1
    53    77    78    1
    54    89    90   ar
    55    89    91   ar
    56     2     5    1
    57     2     1    1
    58     2     3    1
    59    41    40    1
    60    19    20    1
    61    23    20    1
    62    20    21    1
    63    78    79    1
    64    78    81    1
    65    90    92   ar
    66    82    81    1
    67     4     3    2
    68    79    80    2
    69    91    94   ar
    70    91    93   ar
    71     3     9   am
    72    83    81    1
    73    94    96   ar
    74    40    42    1
    75    40    39    1
    76    22    21    2
    77    39    36    1
    78    21    24   am
    79    36    35    1
    80    36    37    1
    81    92    93   ar
    82    93    95   ar
    83    96    97   ar
    84     9    10    1
    85    28    29    1
    86    24    25    1
    87    38    37    2
    88    95    97   ar
    89    11    10    1
    90    11    12    2
    91    29    30    1
    92    29    32    1
    93    10    13    1
    94    34    32    1
    95    25    26    1
    96    30    31    2
    97    15    17   ar
    98    15    14   ar
    99    32    33    1
   100    26    27    2
   101    17    18   ar
   102    13    14    1
   103    14    16   ar
   104    18    16   ar
