@<TRIPOS>MOLECULE
tmp/5oy0B50.pdb
 92 89 0 0 0
SMALL
GASTEIGER

@<TRIPOS>ATOM
      1  N        145.2480  -69.9900  -44.2900 N.3   429  PHE429     -0.1227
      2  CA       144.1040  -70.1470  -45.1800 C.3   429  PHE429      0.1736
      3  C        144.1210  -71.5020  -45.8690 C.2   429  PHE429      0.2595
      4  O        143.1490  -72.2600  -45.7940 O.2   429  PHE429     -0.2718
      5  CB       144.0920  -69.0300  -46.2260 C.3   429  PHE429      0.0547
      6  CG       143.6740  -67.6940  -45.6870 C.ar  429  PHE429     -0.0202
      7  CD1      142.6130  -67.5890  -44.8060 C.ar  429  PHE429     -0.0042
      8  CD2      144.3410  -66.5400  -46.0680 C.ar  429  PHE429     -0.0042
      9  CE1      142.2270  -66.3580  -44.3110 C.ar  429  PHE429     -0.0003
     10  CE2      143.9620  -65.3060  -45.5750 C.ar  429  PHE429     -0.0003
     11  CZ       142.9040  -65.2150  -44.6990 C.ar  429  PHE429     -0.0000
     12  N        145.2340  -71.8470  -46.5190 N.am  430  HIS430     -0.1975
     13  CA       145.1790  -73.0070  -47.4010 C.3   430  HIS430      0.1656
     14  C        145.2520  -74.3270  -46.6370 C.2   430  HIS430      0.2291
     15  O        144.5820  -75.2970  -47.0130 O.2   430  HIS430     -0.2864
     16  CB       146.2780  -72.8940  -48.4500 C.3   430  HIS430      0.0771
     17  CG       146.1740  -71.6500  -49.2710 C.ar  430  HIS430      0.0820
     18  ND1      146.2950  -70.3900  -48.7260 N.ar  430  HIS430     -0.2267
     19  CD2      145.9180  -71.4670  -50.5870 C.ar  430  HIS430      0.1154
     20  CE1      146.1280  -69.4850  -49.6720 C.ar  430  HIS430      0.1986
     21  NE2      145.9110  -70.1140  -50.8120 N.ar  430  HIS430     -0.2212
     22  N        141.9650  -74.7660  -45.0670 N.3   433  GLY433     -0.1210
     23  CA       141.0150  -75.0650  -46.1250 C.3   433  GLY433      0.1956
     24  C        141.0560  -76.5180  -46.5490 C.2   433  GLY433      0.2611
     25  O        140.0160  -77.1640  -46.6860 O.2   433  GLY433     -0.2717
     26  N        142.2620  -77.0550  -46.7570 N.am  434  LEU434     -0.1979
     27  CA       142.3810  -78.4630  -47.1270 C.3   434  LEU434      0.1596
     28  C        141.8630  -79.3710  -46.0160 C.2   434  LEU434      0.2287
     29  O        141.1330  -80.3360  -46.2810 O.2   434  LEU434     -0.2864
     30  CB       143.8320  -78.8000  -47.4720 C.3   434  LEU434      0.0297
     31  CG       144.3610  -78.1320  -48.7430 C.3   434  LEU434      0.0022
     32  CD1      145.7380  -78.6620  -49.1170 C.3   434  LEU434      0.0001
     33  CD2      143.3770  -78.3150  -49.8880 C.3   434  LEU434      0.0001
     34  N        139.6010  -78.6990  -43.6260 N.3   436  VAL436     -0.1231
     35  CA       138.1520  -78.6000  -43.4680 C.3   436  VAL436      0.1692
     36  C        137.4350  -79.2100  -44.6690 C.2   436  VAL436      0.2592
     37  O        136.3740  -79.8330  -44.5240 O.2   436  VAL436     -0.2718
     38  CB       137.7450  -77.1330  -43.2340 C.3   436  VAL436      0.0266
     39  CG1      136.2330  -76.9820  -43.2400 C.3   436  VAL436      0.0020
     40  CG2      138.3060  -76.6480  -41.9080 C.3   436  VAL436      0.0020
     41  N        137.9960  -79.0460  -45.8700 N.am  437  HIS437     -0.1976
     42  CA       137.4520  -79.7300  -47.0360 C.3   437  HIS437      0.1656
     43  C        137.4470  -81.2330  -46.8220 C.2   437  HIS437      0.2291
     44  O        136.4460  -81.9050  -47.0950 O.2   437  HIS437     -0.2864
     45  CB       138.2600  -79.3750  -48.2830 C.3   437  HIS437      0.0771
     46  CG       138.1240  -80.3720  -49.3920 C.ar  437  HIS437      0.0820
     47  ND1      137.0060  -80.4490  -50.1940 N.ar  437  HIS437     -0.2267
     48  CD2      138.9670  -81.3360  -49.8310 C.ar  437  HIS437      0.1154
     49  CE1      137.1680  -81.4120  -51.0840 C.ar  437  HIS437      0.1986
     50  NE2      138.3500  -81.9660  -50.8860 N.ar  437  HIS437     -0.2212
     51  N        134.6830  -82.1990  -44.2840 N.3   440  VAL440     -0.1231
     52  CA       133.3150  -82.1530  -44.7940 C.3   440  VAL440      0.1692
     53  C        133.0890  -83.2460  -45.8330 C.2   440  VAL440      0.2591
     54  O        132.0130  -83.8550  -45.8950 O.2   440  VAL440     -0.2718
     55  CB       133.0070  -80.7530  -45.3570 C.3   440  VAL440      0.0266
     56  CG1      131.6820  -80.7480  -46.1190 C.3   440  VAL440      0.0020
     57  CG2      132.9860  -79.7310  -44.2290 C.3   440  VAL440      0.0020
     58  N        134.1050  -83.5310  -46.6470 N.am  441  VAL441     -0.1980
     59  CA       133.9490  -84.5100  -47.7120 C.3   441  VAL441      0.1595
     60  C        133.9190  -85.9260  -47.1460 C.2   441  VAL441      0.2287
     61  O        133.2520  -86.8100  -47.7010 O.2   441  VAL441     -0.2864
     62  CB       135.0690  -84.2930  -48.7480 C.3   441  VAL441      0.0276
     63  CG1      135.9170  -85.5360  -48.9260 C.3   441  VAL441      0.0022
     64  CG2      134.4850  -83.8110  -50.0680 C.3   441  VAL441      0.0022
     65  N        130.2970  -86.3990  -45.1420 N.3   444  PHE444     -0.1241
     66  CA       129.1510  -86.6820  -45.9940 C.3   444  PHE444      0.1605
     67  C        129.2400  -88.0360  -46.6890 C.2   444  PHE444      0.2264
     68  O        128.4500  -88.3020  -47.5990 O.2   444  PHE444     -0.2867
     69  CB       128.9860  -85.5670  -47.0280 C.3   444  PHE444      0.0534
     70  CG       128.5650  -84.2530  -46.4330 C.ar  444  PHE444     -0.0203
     71  CD1      128.0430  -84.1940  -45.1490 C.ar  444  PHE444     -0.0042
     72  CD2      128.6900  -83.0780  -47.1540 C.ar  444  PHE444     -0.0042
     73  CE1      127.6510  -82.9890  -44.5960 C.ar  444  PHE444     -0.0003
     74  CE2      128.3000  -81.8680  -46.6070 C.ar  444  PHE444     -0.0003
     75  CZ       127.7770  -81.8230  -45.3270 C.ar  444  PHE444     -0.0000
     76  N        136.7540  -88.0530  -52.0510 N.3   449  LYS449     -0.1245
     77  CA       136.8000  -86.6980  -52.5820 C.3   449  LYS449      0.1561
     78  C        137.7510  -85.7870  -51.8110 C.2   449  LYS449      0.2260
     79  O        137.6580  -84.5600  -51.9420 O.2   449  LYS449     -0.2867
     80  CB       135.3980  -86.0860  -52.5950 C.3   449  LYS449      0.0271
     81  CG       134.4970  -86.5900  -53.7020 C.3   449  LYS449      0.0035
     82  CD       133.3800  -85.5960  -53.9920 C.3   449  LYS449      0.0206
     83  CE       132.5480  -85.3170  -52.7570 C.3   449  LYS449      0.1093
     84  NZ       131.4840  -84.3070  -53.0200 N.3   449  LYS449     -0.1314
     85  N        141.3860  -83.9820  -50.7830 N.3   451  ILE451     -0.1245
     86  CA       142.5640  -83.4540  -51.4570 C.3   451  ILE451      0.1561
     87  C        143.7710  -84.0250  -50.7210 C.2   451  ILE451      0.2260
     88  O        144.1710  -83.5230  -49.6640 O.2   451  ILE451     -0.2867
     89  CB       142.5670  -81.9240  -51.4850 C.3   451  ILE451      0.0252
     90  CG1      141.3340  -81.4180  -52.2410 C.3   451  ILE451      0.0019
     91  CG2      143.8440  -81.4060  -52.1350 C.3   451  ILE451      0.0019
     92  CD1      141.1860  -79.9130  -52.2640 C.3   451  ILE451      0.0001
@<TRIPOS>BOND
     1    82    81    1
     2    82    83    1
     3    81    80    1
     4    84    83    1
     5    80    77    1
     6    77    76    1
     7    77    78    1
     8    92    90    1
     9    90    89    1
    10    91    89    1
    11    79    78    2
    12    89    86    1
    13    86    85    1
    14    86    87    1
    15    49    50   ar
    16    49    47   ar
    17    50    48   ar
    18    21    19   ar
    19    21    20   ar
    20    87    88    2
    21    19    17   ar
    22    47    46   ar
    23    64    62    1
    24    33    31    1
    25    48    46   ar
    26    20    18   ar
    27    46    45    1
    28    17    18   ar
    29    17    16    1
    30    32    31    1
    31    63    62    1
    32    62    59    1
    33    31    30    1
    34    16    13    1
    35    45    42    1
    36    59    60    1
    37    59    58    1
    38    61    60    2
    39    68    67    2
    40    30    27    1
    41    13    14    1
    42    13    12    1
    43    72    74   ar
    44    72    70   ar
    45    27    26    1
    46    27    28    1
    47    44    43    2
    48    42    43    1
    49    42    41    1
    50    69    70    1
    51    69    66    1
    52    15    14    2
    53    26    24   am
    54    67    66    1
    55    25    24    2
    56    58    53   am
    57    74    75   ar
    58    24    23    1
    59    12     3   am
    60    70    71   ar
    61    29    28    2
    62     5     6    1
    63     5     2    1
    64    23    22    1
    65    56    55    1
    66     8     6   ar
    67     8    10   ar
    68    66    65    1
    69    54    53    2
    70    41    36   am
    71     3     4    2
    72     3     2    1
    73    53    52    1
    74     6     7   ar
    75    10    11   ar
    76    55    52    1
    77    55    57    1
    78    75    73   ar
    79     2     1    1
    80    71    73   ar
    81     7     9   ar
    82    52    51    1
    83    11     9   ar
    84    36    37    2
    85    36    35    1
    86    34    35    1
    87    35    38    1
    88    39    38    1
    89    38    40    1
