@<TRIPOS>MOLECULE
tmp/5oy0X23.pdb
 137 133 0 0 0
SMALL
GASTEIGER

@<TRIPOS>ATOM
      1  N        194.5570  -75.9710   79.2190 N.3   334  LEU334     -0.1245
      2  CA       194.6780  -76.8790   80.3580 C.3   334  LEU334      0.1561
      3  C        193.6830  -78.0290   80.2410 C.2   334  LEU334      0.2260
      4  O        194.0510  -79.2080   80.3730 O.2   334  LEU334     -0.2867
      5  CB       194.4660  -76.1180   81.6680 C.3   334  LEU334      0.0270
      6  CG       195.5080  -75.0870   82.1100 C.3   334  LEU334      0.0019
      7  CD1      194.9730  -74.2590   83.2700 C.3   334  LEU334      0.0001
      8  CD2      196.8060  -75.7680   82.5000 C.3   334  LEU334      0.0001
      9  N        194.6560  -80.4480   77.2810 N.3   337  ALA337     -0.1231
     10  CA       195.7970  -81.3050   77.5880 C.3   337  ALA337      0.1694
     11  C        195.3960  -82.4080   78.5590 C.2   337  ALA337      0.2592
     12  O        195.6930  -83.5920   78.3350 O.2   337  ALA337     -0.2718
     13  CB       196.9480  -80.4720   78.1530 C.3   337  ALA337      0.0304
     14  N        194.6930  -82.0390   79.6360 N.am  338  SER338     -0.1952
     15  CA       194.2840  -83.0350   80.6210 C.3   338  SER338      0.1924
     16  C        193.3570  -84.0760   80.0030 C.2   338  SER338      0.2314
     17  O        193.5280  -85.2860   80.2200 O.2   338  SER338     -0.2863
     18  CB       193.6050  -82.3460   81.8060 C.3   338  SER338      0.2116
     19  OG       194.4220  -81.3170   82.3390 O.3   338  SER338     -0.2180
     20  N        195.2230  -86.4620   77.6070 N.3   341  VAL341     -0.1231
     21  CA       195.9760  -87.4470   78.3790 C.3   341  VAL341      0.1692
     22  C        195.0470  -88.5370   78.8940 C.2   341  VAL341      0.2591
     23  O        195.3110  -89.7340   78.7270 O.2   341  VAL341     -0.2718
     24  CB       196.7380  -86.7660   79.5280 C.3   341  VAL341      0.0266
     25  CG1      197.2240  -87.8020   80.5370 C.3   341  VAL341      0.0020
     26  CG2      197.9010  -86.0040   78.9710 C.3   341  VAL341      0.0020
     27  N        193.9270  -88.1450   79.5020 N.am  342  ILE342     -0.1980
     28  CA       193.0650  -89.1650   80.0900 C.3   342  ILE342      0.1595
     29  C        192.2450  -89.9130   79.0400 C.2   342  ILE342      0.2287
     30  O        191.8010  -91.0340   79.3030 O.2   342  ILE342     -0.2864
     31  CB       192.1720  -88.5520   81.1810 C.3   342  ILE342      0.0276
     32  CG1      191.1130  -87.6360   80.5760 C.3   342  ILE342      0.0022
     33  CG2      193.0260  -87.8080   82.2030 C.3   342  ILE342      0.0022
     34  CD1      189.7200  -88.1960   80.6940 C.3   342  ILE342      0.0001
     35  N        194.5160  -92.4550   78.1140 N.3   345  LEU345     -0.1245
     36  CA       194.5200  -93.3860   79.2410 C.3   345  LEU345      0.1561
     37  C        193.3480  -94.3590   79.1600 C.2   345  LEU345      0.2260
     38  O        193.5120  -95.5640   79.3870 O.2   345  LEU345     -0.2867
     39  CB       194.4850  -92.6150   80.5610 C.3   345  LEU345      0.0270
     40  CG       194.8230  -93.4550   81.7950 C.3   345  LEU345      0.0019
     41  CD1      196.2590  -93.9370   81.7060 C.3   345  LEU345      0.0001
     42  CD2      194.5950  -92.6800   83.0840 C.3   345  LEU345      0.0001
     43  N        194.1640  -96.8930   76.5950 N.3   348  GLN348     -0.1231
     44  CA       195.1330  -97.8900   77.0390 C.3   348  GLN348      0.1698
     45  C        194.5360  -98.8550   78.0570 C.2   348  GLN348      0.2592
     46  O        194.9770 -100.0050   78.1480 O.2   348  GLN348     -0.2718
     47  CB       196.3690  -97.2080   77.6250 C.3   348  GLN348      0.0381
     48  CG       197.1520  -96.3490   76.6430 C.3   348  GLN348      0.0905
     49  CD       197.9860  -97.1530   75.6620 C.2   348  GLN348      0.2608
     50  OE1      197.6320  -98.2690   75.2880 O.2   348  GLN348     -0.2717
     51  NE2      199.1070  -96.5810   75.2400 N.am  348  GLN348     -0.0878
     52  N        193.5410  -98.4160   78.8240 N.am  349  HIS349     -0.1976
     53  CA       192.9780  -99.2470   79.8810 C.3   349  HIS349      0.1656
     54  C        191.7690 -100.0610   79.4400 C.2   349  HIS349      0.2291
     55  O        191.3820 -100.9940   80.1510 O.2   349  HIS349     -0.2864
     56  CB       192.5930  -98.3830   81.0870 C.3   349  HIS349      0.0771
     57  CG       193.7650  -97.7790   81.7930 C.ar  349  HIS349      0.0820
     58  ND1      193.6580  -97.1630   83.0220 N.ar  349  HIS349     -0.2267
     59  CD2      195.0690  -97.6960   81.4430 C.ar  349  HIS349      0.1154
     60  CE1      194.8460  -96.7240   83.3960 C.ar  349  HIS349      0.1986
     61  NE2      195.7190  -97.0350   82.4550 N.ar  349  HIS349     -0.2212
     62  N        191.4740 -101.7470   76.3580 N.3   351  TYR351     -0.1227
     63  CA       191.8660 -102.9570   75.6460 C.3   351  TYR351      0.1736
     64  C        192.5220 -103.9640   76.5780 C.2   351  TYR351      0.2596
     65  O        192.3680 -105.1740   76.3820 O.2   351  TYR351     -0.2718
     66  CB       192.8010 -102.6200   74.4790 C.3   351  TYR351      0.0548
     67  CG       194.2710 -102.4670   74.8300 C.ar  351  TYR351     -0.0200
     68  CD1      195.1490 -103.5410   74.7240 C.ar  351  TYR351     -0.0009
     69  CD2      194.7850 -101.2440   75.2390 C.ar  351  TYR351     -0.0009
     70  CE1      196.4920 -103.4050   75.0300 C.ar  351  TYR351      0.0417
     71  CE2      196.1270 -101.0990   75.5460 C.ar  351  TYR351      0.0417
     72  CZ       196.9740 -102.1810   75.4420 C.ar  351  TYR351      0.1957
     73  OH       198.3060 -102.0270   75.7490 O.3   351  TYR351     -0.2866
     74  N        193.2310 -103.4840   77.5980 N.am  352  SER352     -0.1938
     75  CA       193.9780 -104.3420   78.5110 C.3   352  SER352      0.2055
     76  C        193.1100 -104.8660   79.6520 C.2   352  SER352      0.2642
     77  O        193.1370 -106.0630   79.9560 O.2   352  SER352     -0.2714
     78  CB       195.1820 -103.5780   79.0680 C.3   352  SER352      0.2130
     79  OG       196.0210 -104.4380   79.8140 O.3   352  SER352     -0.2179
     80  N        192.3360 -103.9850   80.2890 N.am  353  LEU353     -0.1977
     81  CA       191.4610 -104.3370   81.4070 C.3   353  LEU353      0.1596
     82  C        190.0150 -104.0180   81.0410 C.2   353  LEU353      0.2287
     83  O        189.4300 -103.0600   81.5650 O.2   353  LEU353     -0.2864
     84  CB       191.8650 -103.5900   82.6760 C.3   353  LEU353      0.0297
     85  CG       193.1740 -103.9750   83.3640 C.3   353  LEU353      0.0022
     86  CD1      193.6320 -102.8450   84.2640 C.3   353  LEU353      0.0001
     87  CD2      192.9950 -105.2540   84.1650 C.3   353  LEU353      0.0001
     88  N        206.5370 -104.8290   84.0840 N.3   462  GLN462     -0.1245
     89  CA       205.5060 -105.8630   84.0920 C.3   462  GLN462      0.1566
     90  C        205.7000 -106.8200   85.2590 C.2   462  GLN462      0.2260
     91  O        204.7410 -107.1700   85.9550 O.2   462  GLN462     -0.2867
     92  CB       205.5180 -106.6370   82.7760 C.3   462  GLN462      0.0367
     93  CG       205.0690 -105.8530   81.5670 C.3   462  GLN462      0.0905
     94  CD       204.9050 -106.7340   80.3460 C.2   462  GLN462      0.2608
     95  OE1      205.3220 -107.8930   80.3470 O.2   462  GLN462     -0.2717
     96  NE2      204.2910 -106.1930   79.2980 N.am  462  GLN462     -0.0878
     97  N        194.5400 -110.6180   90.3930 N.3   494  TRP494     -0.1241
     98  CA       195.4390 -109.8360   89.5500 C.3   494  TRP494      0.1605
     99  C        196.5580 -110.7030   88.9880 C.2   494  TRP494      0.2264
    100  O        196.8660 -110.6380   87.7920 O.2   494  TRP494     -0.2867
    101  CB       196.0130 -108.6630   90.3440 C.3   494  TRP494      0.0550
    102  CG       197.0950 -107.9170   89.6300 C.ar  494  TRP494      0.0003
    103  CD1      198.4220 -107.8980   89.9460 C.ar  494  TRP494      0.0946
    104  CD2      196.9440 -107.0780   88.4770 C.ar  494  TRP494      0.0152
    105  NE1      199.1070 -107.0980   89.0640 N.ar  494  TRP494     -0.2442
    106  CE2      198.2230 -106.5840   88.1520 C.ar  494  TRP494      0.0810
    107  CE3      195.8530 -106.6980   87.6880 C.ar  494  TRP494      0.0012
    108  CZ2      198.4390 -105.7280   87.0740 C.ar  494  TRP494      0.0191
    109  CZ3      196.0700 -105.8460   86.6190 C.ar  494  TRP494      0.0001
    110  CH2      197.3520 -105.3720   86.3210 C.ar  494  TRP494      0.0015
    111  N        196.0390 -108.3150   78.8810 N.3   505  LEU505     -0.1231
    112  CA       196.5950 -107.6440   80.0520 C.3   505  LEU505      0.1693
    113  C        198.1070 -107.8300   80.0830 C.2   505  LEU505      0.2592
    114  O        198.5930 -108.9660   80.1150 O.2   505  LEU505     -0.2718
    115  CB       195.9640 -108.1860   81.3330 C.3   505  LEU505      0.0284
    116  CG       196.4770 -107.5820   82.6400 C.3   505  LEU505      0.0019
    117  CD1      196.2520 -106.0830   82.6580 C.3   505  LEU505      0.0001
    118  CD2      195.7950 -108.2360   83.8240 C.3   505  LEU505      0.0001
    119  N        198.8390 -106.7120   80.0880 N.am  506  PHE506     -0.1962
    120  CA       200.3000 -106.6880   80.0810 C.3   506  PHE506      0.1771
    121  C        200.8800 -107.6870   79.0870 C.2   506  PHE506      0.2619
    122  O        201.3990 -108.7380   79.4780 O.2   506  PHE506     -0.2715
    123  CB       200.8450 -106.9460   81.4880 C.3   506  PHE506      0.0574
    124  CG       200.7680 -105.7480   82.3920 C.ar  506  PHE506     -0.0200
    125  CD1      201.8270 -104.8610   82.4800 C.ar  506  PHE506     -0.0042
    126  CD2      199.6340 -105.5030   83.1450 C.ar  506  PHE506     -0.0042
    127  CE1      201.7590 -103.7550   83.3080 C.ar  506  PHE506     -0.0003
    128  CE2      199.5600 -104.3990   83.9740 C.ar  506  PHE506     -0.0003
    129  CZ       200.6230 -103.5240   84.0560 C.ar  506  PHE506     -0.0000
    130  N        200.8020 -107.3530   77.8020 N.am  507  LEU507     -0.1977
    131  CA       201.2050 -108.2740   76.7500 C.3   507  LEU507      0.1596
    132  C        202.7200 -108.4470   76.7200 C.2   507  LEU507      0.2287
    133  O        203.4770 -107.4930   76.9200 O.2   507  LEU507     -0.2864
    134  CB       200.7060 -107.7690   75.3960 C.3   507  LEU507      0.0297
    135  CG       199.1900 -107.6170   75.2530 C.3   507  LEU507      0.0022
    136  CD1      198.8640 -106.6270   74.1570 C.3   507  LEU507      0.0001
    137  CD2      198.5460 -108.9590   74.9580 C.3   507  LEU507      0.0001
@<TRIPOS>BOND
     1   136   135    1
     2    66    67    1
     3    66    63    1
     4    68    67   ar
     5    68    70   ar
     6    67    69   ar
     7   137   135    1
     8    70    72   ar
     9    69    71   ar
    10    51    49   am
    11   135   134    1
    12    50    49    2
    13   134   131    1
    14    72    71   ar
    15    72    73    1
    16    63    62    1
    17    63    64    1
    18    49    48    1
    19    65    64    2
    20    64    74   am
    21    43    44    1
    22    48    47    1
    23   132   131    1
    24   132   133    2
    25   131   130    1
    26    44    47    1
    27    44    45    1
    28     9    10    1
    29    10    13    1
    30    10    11    1
    31    74    75    1
    32    20    21    1
    33   130   121   am
    34    45    46    2
    35    45    52   am
    36    35    36    1
    37    12    11    2
    38    21    22    1
    39    21    24    1
    40    75    78    1
    41    75    76    1
    42    11    14   am
    43    23    22    2
    44    52    53    1
    45   111   112    1
    46    22    27   am
    47    26    24    1
    48    29    30    2
    49    29    28    1
    50    78    79    1
    51   121   122    2
    52   121   120    1
    53    37    36    1
    54    37    38    2
    55     1     2    1
    56    36    39    1
    57    96    94   am
    58    54    53    1
    59    54    55    2
    60    27    28    1
    61    24    25    1
    62    14    15    1
    63    76    77    2
    64    76    80   am
    65    53    56    1
    66    16    17    2
    67    16    15    1
    68   112   113    1
    69   112   115    1
    70   120   119    1
    71   120   123    1
    72   113   119   am
    73   113   114    2
    74    28    31    1
    75     3     2    1
    76     3     4    2
    77    80    81    1
    78    94    95    2
    79    94    93    1
    80     2     5    1
    81    39    40    1
    82    32    34    1
    83    32    31    1
    84    15    18    1
    85    82    81    1
    86    82    83    2
    87    56    57    1
    88    31    33    1
    89   115   116    1
    90    81    84    1
    91    59    57   ar
    92    59    61   ar
    93   123   124    1
    94    93    92    1
    95     5     6    1
    96    41    40    1
    97    57    58   ar
    98    40    42    1
    99    18    19    1
   100     6     8    1
   101     6     7    1
   102   124   125   ar
   103   124   126   ar
   104    61    60   ar
   105   125   127   ar
   106   116   117    1
   107   116   118    1
   108    84    85    1
   109    92    89    1
   110    58    60   ar
   111   126   128   ar
   112   127   129   ar
   113    85    87    1
   114    85    86    1
   115   128   129   ar
   116    88    89    1
   117    89    90    1
   118    90    91    2
   119   110   109   ar
   120   110   108   ar
   121   109   107   ar
   122   108   106   ar
   123   107   104   ar
   124   100    99    2
   125   106   104   ar
   126   106   105   ar
   127   104   102   ar
   128    99    98    1
   129   105   103   ar
   130    98   101    1
   131    98    97    1
   132   102   103   ar
   133   102   101    1
