@<TRIPOS>MOLECULE
tmp/5oy0I07.pdb
 100 94 0 0 0
SMALL
GASTEIGER

@<TRIPOS>ATOM
      1  N         76.3960  -76.2860   -5.5520 N.3     7  THR7       -0.1218
      2  CA        74.9490  -76.2820   -5.3780 C.3     7  THR7        0.1862
      3  C         74.2650  -75.7790   -6.6400 C.2     7  THR7        0.2287
      4  O         74.7070  -74.8040   -7.2540 O.2     7  THR7       -0.2866
      5  CB        74.5110  -75.4140   -4.1870 C.3     7  THR7        0.1770
      6  OG1       75.1690  -74.1410   -4.2430 O.3     7  THR7       -0.2211
      7  CG2       74.8280  -76.1010   -2.8670 C.3     7  THR7        0.0375
      8  N         68.5770  -69.5410   -0.8970 N.3    13  LEU13      -0.1245
      9  CA        69.7960  -69.4570   -0.1060 C.3    13  LEU13       0.1561
     10  C         70.9600  -68.9010   -0.9120 C.2    13  LEU13       0.2260
     11  O         71.7270  -68.0780   -0.4050 O.2    13  LEU13      -0.2867
     12  CB        70.1720  -70.8350    0.4370 C.3    13  LEU13       0.0270
     13  CG        69.0410  -71.8280    0.6810 C.3    13  LEU13       0.0019
     14  CD1       69.5310  -73.2230    0.3440 C.3    13  LEU13       0.0001
     15  CD2       68.5560  -71.7510    2.1210 C.3    13  LEU13       0.0001
     16  N         70.5730  -64.6650    0.6360 N.3    17  ILE17      -0.1231
     17  CA        71.1930  -65.1340    1.8650 C.3    17  ILE17       0.1692
     18  C         72.7110  -65.2080    1.7340 C.2    17  ILE17       0.2591
     19  O         73.4180  -65.1530    2.7450 O.2    17  ILE17      -0.2718
     20  CB        70.5660  -66.4870    2.2700 C.3    17  ILE17       0.0266
     21  CG1       69.0390  -66.3560    2.2960 C.3    17  ILE17       0.0019
     22  CG2       71.0600  -66.9370    3.6360 C.3    17  ILE17       0.0020
     23  CD1       68.3030  -67.6090    2.7270 C.3    17  ILE17       0.0001
     24  N         73.2390  -65.2970    0.5090 N.am   18  ILE18      -0.1980
     25  CA        74.6860  -65.2500    0.3100 C.3    18  ILE18       0.1595
     26  C         75.0630  -64.1390   -0.6660 C.2    18  ILE18       0.2287
     27  O         75.6950  -63.1520   -0.2740 O.2    18  ILE18      -0.2864
     28  CB        75.2490  -66.5970   -0.1790 C.3    18  ILE18       0.0276
     29  CG1       74.5730  -67.7740    0.5260 C.3    18  ILE18       0.0022
     30  CG2       76.7510  -66.6510    0.0640 C.3    18  ILE18       0.0022
     31  CD1       74.8790  -67.8910    1.9960 C.3    18  ILE18       0.0001
     32  N         73.8350  -60.6950    0.0020 N.3    21  LEU21      -0.1231
     33  CA        74.3880  -60.2940    1.2900 C.3    21  LEU21       0.1693
     34  C         75.8680  -59.9400    1.1710 C.2    21  LEU21       0.2592
     35  O         76.3180  -58.9300    1.7260 O.2    21  LEU21      -0.2718
     36  CB        74.1720  -61.4040    2.3170 C.3    21  LEU21       0.0284
     37  CG        73.3800  -60.9750    3.5530 C.3    21  LEU21       0.0019
     38  CD1       73.0690  -62.1660    4.4540 C.3    21  LEU21       0.0001
     39  CD2       74.1370  -59.8910    4.3150 C.3    21  LEU21       0.0001
     40  N         76.6380  -60.7510    0.4410 N.am   22  CYS22      -0.1970
     41  CA        78.0420  -60.4260    0.2150 C.3    22  CYS22       0.1712
     42  C         78.1850  -59.1450   -0.5950 C.2    22  CYS22       0.2296
     43  O         79.1030  -58.3500   -0.3610 O.2    22  CYS22      -0.2864
     44  CB        78.7440  -61.5890   -0.4850 C.3    22  CYS22       0.0983
     45  SG        78.7720  -63.1120    0.4760 S.3    22  CYS22      -0.0798
     46  N         77.6620  -56.3420    1.7830 N.3    25  PHE25      -0.1241
     47  CA        78.8630  -56.1880    2.6010 C.3    25  PHE25       0.1605
     48  C         79.9570  -55.4490    1.8370 C.2    25  PHE25       0.2264
     49  O         80.6300  -54.5690    2.3930 O.2    25  PHE25      -0.2867
     50  CB        79.3550  -57.5580    3.0730 C.3    25  PHE25       0.0534
     51  CG        80.7650  -57.5520    3.6030 C.ar   25  PHE25      -0.0203
     52  CD1       81.0380  -57.1180    4.8910 C.ar   25  PHE25      -0.0042
     53  CD2       81.8180  -57.9870    2.8120 C.ar   25  PHE25      -0.0042
     54  CE1       82.3360  -57.1130    5.3780 C.ar   25  PHE25      -0.0003
     55  CE2       83.1170  -57.9830    3.2910 C.ar   25  PHE25      -0.0003
     56  CZ        83.3760  -57.5460    4.5760 C.ar   25  PHE25      -0.0000
     57  N         82.1530  -67.3780   -1.2040 N.3    73  MET73      -0.1230
     58  CA        81.3800  -67.8360   -0.0540 C.3    73  MET73       0.1702
     59  C         80.3990  -68.9420   -0.4330 C.2    73  MET73       0.2592
     60  O         80.2620  -69.9280    0.3010 O.2    73  MET73      -0.2718
     61  CB        80.6480  -66.6600    0.5870 C.3    73  MET73       0.0401
     62  CG        79.9600  -67.0320    1.8830 C.3    73  MET73       0.0596
     63  SD        79.7270  -65.6340    2.9880 S.3    73  MET73      -0.1393
     64  CE        79.5260  -66.4890    4.5480 C.3    73  MET73       0.0692
     65  N         79.6890  -68.7910   -1.5560 N.am   74  VAL74      -0.1980
     66  CA        78.7990  -69.8500   -2.0270 C.3    74  VAL74       0.1595
     67  C         79.5780  -71.1450   -2.2110 C.2    74  VAL74       0.2287
     68  O         79.1750  -72.2100   -1.7200 O.2    74  VAL74      -0.2864
     69  CB        78.0980  -69.4300   -3.3320 C.3    74  VAL74       0.0276
     70  CG1       77.4270  -70.6350   -3.9800 C.3    74  VAL74       0.0022
     71  CG2       77.0760  -68.3220   -3.0740 C.3    74  VAL74       0.0022
     72  N         82.4770  -72.0630   -0.9400 N.3    76  GLY76      -0.1210
     73  CA        82.9900  -72.6010    0.3090 C.3    76  GLY76       0.1956
     74  C         81.9080  -73.2590    1.1410 C.2    76  GLY76       0.2612
     75  O         82.0670  -74.3910    1.6040 O.2    76  GLY76      -0.2717
     76  N         80.7850  -72.5620    1.3310 N.am   77  LEU77      -0.1965
     77  CA        79.6820  -73.1190    2.1060 C.3    77  LEU77       0.1728
     78  C         79.1220  -74.3830    1.4610 C.2    77  LEU77       0.2616
     79  O         78.5860  -75.2480    2.1620 O.2    77  LEU77      -0.2715
     80  CB        78.5850  -72.0660    2.2830 C.3    77  LEU77       0.0311
     81  CG        78.6210  -71.1690    3.5280 C.3    77  LEU77       0.0022
     82  CD1       78.2060  -71.9500    4.7590 C.3    77  LEU77       0.0001
     83  CD2       79.9910  -70.5550    3.7410 C.3    77  LEU77       0.0001
     84  N         79.2370  -74.5160    0.1370 N.am   78  ALA78      -0.1963
     85  CA        78.9440  -75.7870   -0.5290 C.3    78  ALA78       0.1728
     86  C         80.2510  -76.5700   -0.6540 C.2    78  ALA78       0.2617
     87  O         80.9220  -76.5730   -1.6880 O.2    78  ALA78      -0.2715
     88  CB        78.2850  -75.5480   -1.8810 C.3    78  ALA78       0.0334
     89  N         80.6190  -77.2360    0.4420 N.am   79  SER79      -0.1936
     90  CA        81.8630  -77.9960    0.5430 C.3    79  SER79       0.2055
     91  C         83.0820  -77.1990    0.0860 C.2    79  SER79       0.2643
     92  O         83.6930  -76.4840    0.8860 O.2    79  SER79      -0.2714
     93  CB        81.7590  -79.3040   -0.2400 C.3    79  SER79       0.2130
     94  OG        81.5280  -80.3830    0.6480 O.3    79  SER79      -0.2179
     95  N         83.4580  -77.3170   -1.1830 N.am   80  SER80      -0.1949
     96  CA        84.6460  -76.6220   -1.6700 C.3    80  SER80       0.1924
     97  C         84.5840  -76.3410   -3.1660 C.2    80  SER80       0.2314
     98  O         85.4130  -75.6030   -3.6990 O.2    80  SER80      -0.2863
     99  CB        85.9040  -77.4300   -1.3520 C.3    80  SER80       0.2116
    100  OG        86.0670  -77.5880    0.0460 O.3    80  SER80      -0.2180
@<TRIPOS>BOND
     1     4     3    2
     2     3     2    1
     3     1     2    1
     4     2     5    1
     5     6     5    1
     6     5     7    1
     7    70    69    1
     8    98    97    2
     9    69    71    1
    10    69    66    1
    11    97    96    1
    12    67    66    1
    13    67    68    2
    14    66    65    1
    15    88    85    1
    16    87    86    2
    17    96    99    1
    18    96    95    1
    19    65    59   am
    20    99   100    1
    21    57    58    1
    22    95    91   am
    23    72    73    1
    24    10    11    2
    25    10     9    1
    26     8     9    1
    27    26    27    2
    28    26    25    1
    29    86    85    1
    30    86    89   am
    31    42    43    2
    32    42    41    1
    33    85    84    1
    34    44    41    1
    35    44    45    1
    36    59    58    1
    37    59    60    2
    38    93    90    1
    39    93    94    1
    40    28    30    1
    41    28    25    1
    42    28    29    1
    43     9    12    1
    44    58    61    1
    45    32    33    1
    46    91    90    1
    47    91    92    2
    48    84    78   am
    49    41    40    1
    50    73    74    1
    51    25    24    1
    52    14    13    1
    53    12    13    1
    54    40    34   am
    55    89    90    1
    56    24    18   am
    57    29    31    1
    58    61    62    1
    59    16    17    1
    60    13    15    1
    61    74    76   am
    62    74    75    2
    63    34    33    1
    64    34    35    2
    65    33    36    1
    66    76    77    1
    67    78    77    1
    68    78    79    2
    69    18    17    1
    70    18    19    2
    71    46    47    1
    72    48    49    2
    73    48    47    1
    74    17    20    1
    75    62    63    1
    76    77    80    1
    77    20    21    1
    78    20    22    1
    79    80    81    1
    80    21    23    1
    81    36    37    1
    82    47    50    1
    83    53    55   ar
    84    53    51   ar
    85    63    64    1
    86    50    51    1
    87    55    56   ar
    88    81    83    1
    89    81    82    1
    90    37    39    1
    91    37    38    1
    92    51    52   ar
    93    56    54   ar
    94    52    54   ar
