@<TRIPOS>MOLECULE
tmp/5oy0X16.pdb
 113 108 0 0 0
SMALL
GASTEIGER

@<TRIPOS>ATOM
      1  N        185.1470  -75.0370   91.1620 N.3   175  LEU175     -0.1245
      2  CA       185.9450  -76.2220   91.4470 C.3   175  LEU175      0.1561
      3  C        185.2940  -77.0740   92.5270 C.2   175  LEU175      0.2260
      4  O        185.2670  -78.3060   92.4230 O.2   175  LEU175     -0.2867
      5  CB       187.3570  -75.8170   91.8550 C.3   175  LEU175      0.0270
      6  CG       188.2760  -75.5030   90.6790 C.3   175  LEU175      0.0019
      7  CD1      189.6110  -74.9990   91.1730 C.3   175  LEU175      0.0001
      8  CD2      188.4560  -76.7480   89.8340 C.3   175  LEU175      0.0001
      9  N        184.2110  -80.8670   91.5140 N.3   179  LEU179     -0.1245
     10  CA       184.8650  -81.9830   92.1910 C.3   179  LEU179      0.1561
     11  C        183.8820  -82.7600   93.0590 C.2   179  LEU179      0.2260
     12  O        183.8220  -83.9930   92.9970 O.2   179  LEU179     -0.2867
     13  CB       186.0340  -81.4680   93.0300 C.3   179  LEU179      0.0270
     14  CG       187.2560  -81.0190   92.2320 C.3   179  LEU179      0.0019
     15  CD1      188.3540  -80.5100   93.1520 C.3   179  LEU179      0.0001
     16  CD2      187.7490  -82.1740   91.3900 C.3   179  LEU179      0.0001
     17  N        181.4710  -84.5710   89.7320 N.3   183  PHE183     -0.1241
     18  CA       182.2680  -85.7900   89.6690 C.3   183  PHE183      0.1605
     19  C        181.8730  -86.7930   90.7500 C.2   183  PHE183      0.2264
     20  O        181.6110  -87.9620   90.4500 O.2   183  PHE183     -0.2867
     21  CB       183.7580  -85.4480   89.7880 C.3   183  PHE183      0.0534
     22  CG       184.3570  -84.8420   88.5410 C.ar  183  PHE183     -0.0203
     23  CD1      183.9060  -83.6260   88.0510 C.ar  183  PHE183     -0.0042
     24  CD2      185.3900  -85.4800   87.8750 C.ar  183  PHE183     -0.0042
     25  CE1      184.4610  -83.0660   86.9170 C.ar  183  PHE183     -0.0003
     26  CE2      185.9510  -84.9230   86.7400 C.ar  183  PHE183     -0.0003
     27  CZ       185.4840  -83.7160   86.2600 C.ar  183  PHE183     -0.0000
     28  N        186.1720  -89.8830   97.5360 N.3   283  ILE283     -0.1231
     29  CA       187.3830  -89.0880   97.3320 C.3   283  ILE283      0.1692
     30  C        187.0500  -87.7440   96.6920 C.2   283  ILE283      0.2592
     31  O        187.5600  -86.6970   97.1120 O.2   283  ILE283     -0.2718
     32  CB       188.4040  -89.8750   96.4890 C.3   283  ILE283      0.0266
     33  CG1      188.9420  -91.0680   97.2820 C.3   283  ILE283      0.0019
     34  CG2      189.5420  -88.9670   96.0410 C.3   283  ILE283      0.0020
     35  CD1      189.9530  -91.9010   96.5250 C.3   283  ILE283      0.0001
     36  N        186.1890  -87.7490   95.6680 N.am  284  PHE284     -0.1976
     37  CA       185.8550  -86.5140   94.9640 C.3   284  PHE284      0.1639
     38  C        185.0340  -85.5740   95.8380 C.2   284  PHE284      0.2290
     39  O        185.2320  -84.3540   95.7990 O.2   284  PHE284     -0.2864
     40  CB       185.1030  -86.8260   93.6680 C.3   284  PHE284      0.0560
     41  CG       185.9960  -87.0240   92.4760 C.ar  284  PHE284     -0.0200
     42  CD1      186.5900  -85.9420   91.8510 C.ar  284  PHE284     -0.0042
     43  CD2      186.2320  -88.2910   91.9740 C.ar  284  PHE284     -0.0042
     44  CE1      187.4100  -86.1220   90.7530 C.ar  284  PHE284     -0.0003
     45  CE2      187.0500  -88.4790   90.8780 C.ar  284  PHE284     -0.0003
     46  CZ       187.6390  -87.3930   90.2660 C.ar  284  PHE284     -0.0000
     47  N        185.2840  -85.4010   99.0450 N.3   286  ILE286     -0.1231
     48  CA       186.2760  -84.8270   99.9540 C.3   286  ILE286      0.1692
     49  C        187.0540  -83.7120   99.2610 C.2   286  ILE286      0.2591
     50  O        187.2760  -82.6390   99.8370 O.2   286  ILE286     -0.2718
     51  CB       187.2100  -85.9260  100.4950 C.3   286  ILE286      0.0266
     52  CG1      186.4570  -86.8270  101.4760 C.3   286  ILE286      0.0019
     53  CG2      188.4370  -85.3170  101.1630 C.3   286  ILE286      0.0020
     54  CD1      187.2840  -87.9740  102.0030 C.3   286  ILE286      0.0001
     55  N        187.4640  -83.9420   98.0100 N.am  287  ALA287     -0.1980
     56  CA       188.1980  -82.9240   97.2590 C.3   287  ALA287      0.1597
     57  C        187.3760  -81.6540   97.0840 C.2   287  ALA287      0.2287
     58  O        187.9180  -80.5430   97.1230 O.2   287  ALA287     -0.2864
     59  CB       188.6090  -83.4730   95.8930 C.3   287  ALA287      0.0319
     60  N        187.6420  -78.0090   99.3660 N.3   290  MET290     -0.1230
     61  CA       188.9500  -77.4110   99.5940 C.3   290  MET290      0.1702
     62  C        188.9150  -75.8890   99.5680 C.2   290  MET290      0.2592
     63  O        189.5730  -75.2400  100.3900 O.2   290  MET290     -0.2718
     64  CB       189.9470  -77.9240   98.5500 C.3   290  MET290      0.0401
     65  CG       191.3330  -77.3110   98.6700 C.3   290  MET290      0.0596
     66  SD       192.5640  -78.1240   97.6340 S.3   290  MET290     -0.1393
     67  CE       193.9920  -77.0850   97.9320 C.3   290  MET290      0.0692
     68  N        188.1500  -75.3080   98.6530 N.am  291  TYR291     -0.1976
     69  CA       188.2020  -73.8800   98.3870 C.3   291  TYR291      0.1639
     70  C        187.0050  -73.1750   99.0120 C.2   291  TYR291      0.2290
     71  O        185.8720  -73.6590   98.9330 O.2   291  TYR291     -0.2864
     72  CB       188.2550  -73.6360   96.8780 C.3   291  TYR291      0.0560
     73  CG       189.1520  -74.6280   96.1720 C.ar  291  TYR291     -0.0198
     74  CD1      190.5350  -74.5260   96.2560 C.ar  291  TYR291     -0.0009
     75  CD2      188.6170  -75.6830   95.4410 C.ar  291  TYR291     -0.0009
     76  CE1      191.3570  -75.4390   95.6260 C.ar  291  TYR291      0.0417
     77  CE2      189.4330  -76.6010   94.8050 C.ar  291  TYR291      0.0417
     78  CZ       190.8040  -76.4730   94.9010 C.ar  291  TYR291      0.1957
     79  OH       191.6240  -77.3820   94.2720 O.3   291  TYR291     -0.2866
     80  N        192.5870  -69.9780   95.9070 N.3   301  ILE301     -0.1245
     81  CA       193.6050  -70.4150   94.9560 C.3   301  ILE301      0.1561
     82  C        194.6890  -69.3550   94.7990 C.2   301  ILE301      0.2260
     83  O        195.8750  -69.6750   94.6380 O.2   301  ILE301     -0.2867
     84  CB       192.9500  -70.7590   93.6060 C.3   301  ILE301      0.0252
     85  CG1      191.7440  -71.6730   93.8260 C.3   301  ILE301      0.0019
     86  CG2      193.9570  -71.4090   92.6740 C.3   301  ILE301      0.0019
     87  CD1      190.9970  -72.0060   92.5630 C.3   301  ILE301      0.0001
     88  N        197.3030  -69.5360   97.6330 N.3   304  ILE304     -0.1231
     89  CA       198.1320  -70.7300   97.4820 C.3   304  ILE304      0.1692
     90  C        199.1610  -70.5250   96.3790 C.2   304  ILE304      0.2591
     91  O        200.3400  -70.8660   96.5360 O.2   304  ILE304     -0.2718
     92  CB       197.2530  -71.9640   97.2060 C.3   304  ILE304      0.0266
     93  CG1      196.2520  -72.1780   98.3420 C.3   304  ILE304      0.0019
     94  CG2      198.1180  -73.2020   97.0080 C.3   304  ILE304      0.0020
     95  CD1      195.2720  -73.3000   98.0830 C.3   304  ILE304      0.0001
     96  N        198.7330  -69.9590   95.2470 N.am  305  LEU305     -0.1980
     97  CA       199.6550  -69.7390   94.1360 C.3   305  LEU305      0.1596
     98  C        200.6770  -68.6560   94.4710 C.2   305  LEU305      0.2287
     99  O        201.8560  -68.7780   94.1180 O.2   305  LEU305     -0.2864
    100  CB       198.8720  -69.3810   92.8700 C.3   305  LEU305      0.0297
    101  CG       198.2600  -70.4930   91.9990 C.3   305  LEU305      0.0022
    102  CD1      199.2740  -71.0350   91.0100 C.3   305  LEU305      0.0001
    103  CD2      197.6800  -71.6390   92.8210 C.3   305  LEU305      0.0001
    104  N        203.7510  -69.7980   96.7850 N.3   308  HIS308     -0.1241
    105  CA       204.7850  -70.6730   96.2340 C.3   308  HIS308      0.1621
    106  C        205.8510  -69.8730   95.4810 C.2   308  HIS308      0.2264
    107  O        206.0820  -70.0440   94.2840 O.2   308  HIS308     -0.2867
    108  CB       204.1510  -71.7340   95.3450 C.3   308  HIS308      0.0745
    109  CG       203.4130  -72.7890   96.1070 C.ar  308  HIS308      0.0817
    110  ND1      202.3320  -72.5040   96.9130 N.ar  308  HIS308     -0.2268
    111  CD2      203.6080  -74.1250   96.1970 C.ar  308  HIS308      0.1154
    112  CE1      201.8890  -73.6210   97.4620 C.ar  308  HIS308      0.1986
    113  NE2      202.6450  -74.6190   97.0420 N.ar  308  HIS308     -0.2212
@<TRIPOS>BOND
     1    27    26   ar
     2    27    25   ar
     3    26    24   ar
     4    25    23   ar
     5    24    22   ar
     6    23    22   ar
     7    22    21    1
     8    18    17    1
     9    18    21    1
    10    18    19    1
    11     8     6    1
    12    46    44   ar
    13    46    45   ar
    14    20    19    2
    15     6     7    1
    16     6     5    1
    17    44    42   ar
    18    45    43   ar
    19   102   101    1
    20     1     2    1
    21    16    14    1
    22     2     5    1
    23     2     3    1
    24     9    10    1
    25    42    41   ar
    26    43    41   ar
    27   101   103    1
    28   101   100    1
    29    10    13    1
    30    10    11    1
    31    14    13    1
    32    14    15    1
    33     4     3    2
    34    41    40    1
    35    87    85    1
    36    86    84    1
    37   100    97    1
    38    12    11    2
    39    84    85    1
    40    84    81    1
    41    40    37    1
    42    99    98    2
    43    97    98    1
    44    97    96    1
    45    79    78    1
    46   107   106    2
    47    83    82    2
    48    82    81    1
    49    77    78   ar
    50    77    75   ar
    51    78    76   ar
    52    81    80    1
    53    37    36    1
    54    37    38    1
    55    96    90   am
    56   108   109    1
    57   108   105    1
    58    75    73   ar
    59   106   105    1
    60    76    74   ar
    61    36    30   am
    62    39    38    2
    63    59    56    1
    64    34    32    1
    65   109   111   ar
    66   109   110   ar
    67    73    74   ar
    68    73    72    1
    69   111   113   ar
    70   105   104    1
    71    90    91    2
    72    90    89    1
    73    32    33    1
    74    32    29    1
    75    35    33    1
    76    30    31    2
    77    30    29    1
    78    72    69    1
    79   110   112   ar
    80    94    92    1
    81   113   112   ar
    82    57    58    2
    83    57    56    1
    84    92    89    1
    85    92    93    1
    86    56    55    1
    87    29    28    1
    88    89    88    1
    89    66    67    1
    90    66    65    1
    91    55    49   am
    92    95    93    1
    93    69    68    1
    94    69    70    1
    95    64    65    1
    96    64    61    1
    97    68    62   am
    98    71    70    2
    99    47    48    1
   100    49    50    2
   101    49    48    1
   102    60    61    1
   103    62    61    1
   104    62    63    2
   105    48    51    1
   106    51    53    1
   107    51    52    1
   108    52    54    1
