@<TRIPOS>MOLECULE
tmp/5oy0W09.pdb
 110 105 0 0 0
SMALL
GASTEIGER

@<TRIPOS>ATOM
      1  N        222.0680  -77.3450    7.2710 N.3   191  ASN191     -0.1225
      2  CA       222.5370  -78.1600    6.1540 C.3   191  ASN191      0.1785
      3  C        223.4530  -79.2770    6.6340 C.2   191  ASN191      0.2597
      4  O        223.3180  -80.4320    6.2100 O.2   191  ASN191     -0.2718
      5  CB       223.2630  -77.2840    5.1310 C.3   191  ASN191      0.1169
      6  CG       222.3150  -76.6120    4.1590 C.2   191  ASN191      0.2627
      7  OD1      221.1230  -76.4690    4.4310 O.2   191  ASN191     -0.2716
      8  ND2      222.8420  -76.1980    3.0110 N.am  191  ASN191     -0.0877
      9  N        224.3760  -78.9550    7.5420 N.am  192  HIS192     -0.1975
     10  CA       225.3340  -79.9590    7.9950 C.3   192  HIS192      0.1656
     11  C        224.6830  -80.9800    8.9190 C.2   192  HIS192      0.2291
     12  O        224.9390  -82.1830    8.7940 O.2   192  HIS192     -0.2864
     13  CB       226.5160  -79.2890    8.6850 C.3   192  HIS192      0.0771
     14  CG       227.2980  -78.3830    7.7890 C.ar  192  HIS192      0.0820
     15  ND1      226.8080  -77.1740    7.3480 N.ar  192  HIS192     -0.2267
     16  CD2      228.5300  -78.5110    7.2440 C.ar  192  HIS192      0.1154
     17  CE1      227.7070  -76.5920    6.5750 C.ar  192  HIS192      0.1986
     18  NE2      228.7600  -77.3830    6.4950 N.ar  192  HIS192     -0.2212
     19  N        222.6890  -83.2820    6.5310 N.3   195  ALA195     -0.1231
     20  CA       223.4710  -84.1190    5.6280 C.3   195  ALA195      0.1694
     21  C        224.6370  -84.7850    6.3510 C.2   195  ALA195      0.2592
     22  O        224.8060  -86.0130    6.2700 O.2   195  ALA195     -0.2718
     23  CB       223.9790  -83.2820    4.4530 C.3   195  ALA195      0.0304
     24  N        225.4370  -84.0040    7.0820 N.am  196  GLY196     -0.1957
     25  CA       226.6690  -84.5380    7.6440 C.3   196  GLY196      0.1869
     26  C        226.4340  -85.4350    8.8520 C.2   196  GLY196      0.2309
     27  O        227.0060  -86.5220    8.9630 O.2   196  GLY196     -0.2863
     28  N        225.0140  -88.8320    6.7320 N.3   200  LEU200     -0.1245
     29  CA       226.2150  -89.6600    6.7320 C.3   200  LEU200      0.1561
     30  C        226.1790  -90.7030    7.8390 C.2   200  LEU200      0.2260
     31  O        226.6890  -91.8140    7.6570 O.2   200  LEU200     -0.2867
     32  CB       227.4610  -88.7870    6.8700 C.3   200  LEU200      0.0270
     33  CG       227.6590  -87.7060    5.8060 C.3   200  LEU200      0.0019
     34  CD1      229.0410  -87.0840    5.9310 C.3   200  LEU200      0.0001
     35  CD2      227.4420  -88.2770    4.4140 C.3   200  LEU200      0.0001
     36  N        223.9890  -93.4610    6.6770 N.3   203  LEU203     -0.1245
     37  CA       224.6400  -94.0930    5.5320 C.3   203  LEU203      0.1561
     38  C        225.7320  -95.0580    5.9860 C.2   203  LEU203      0.2260
     39  O        225.7650  -96.2270    5.5730 O.2   203  LEU203     -0.2867
     40  CB       225.2080  -93.0170    4.6050 C.3   203  LEU203      0.0270
     41  CG       225.5240  -93.3860    3.1550 C.3   203  LEU203      0.0019
     42  CD1      225.3130  -92.1820    2.2560 C.3   203  LEU203      0.0001
     43  CD2      226.9450  -93.8800    3.0270 C.3   203  LEU203      0.0001
     44  N        220.4000  -86.4610    3.4070 N.3   298  ILE298     -0.1245
     45  CA       221.3820  -85.7790    2.5680 C.3   298  ILE298      0.1561
     46  C        220.6830  -84.8120    1.6230 C.2   298  ILE298      0.2260
     47  O        221.1020  -83.6590    1.4640 O.2   298  ILE298     -0.2867
     48  CB       222.2460  -86.7920    1.7960 C.3   298  ILE298      0.0252
     49  CG1      223.0090  -87.7070    2.7530 C.3   298  ILE298      0.0019
     50  CG2      223.2440  -86.0530    0.9330 C.3   298  ILE298      0.0019
     51  CD1      224.1640  -87.0410    3.4380 C.3   298  ILE298      0.0001
     52  N        219.6690  -81.8110    3.4630 N.3   301  GLY301     -0.1210
     53  CA       220.7640  -80.9540    3.8770 C.3   301  GLY301      0.1956
     54  C        221.2700  -79.9980    2.8160 C.2   301  GLY301      0.2611
     55  O        222.3490  -79.4170    2.9650 O.2   301  GLY301     -0.2717
     56  N        220.5030  -79.8200    1.7400 N.am  302  HIS302     -0.1975
     57  CA       220.8740  -78.9250    0.6500 C.3   302  HIS302      0.1656
     58  C        219.8950  -77.7720    0.4710 C.2   302  HIS302      0.2291
     59  O        220.0020  -77.0340   -0.5160 O.2   302  HIS302     -0.2864
     60  CB       220.9750  -79.6960   -0.6700 C.3   302  HIS302      0.0771
     61  CG       222.1200  -80.6560   -0.7330 C.ar  302  HIS302      0.0820
     62  ND1      222.3440  -81.6160    0.2290 N.ar  302  HIS302     -0.2267
     63  CD2      223.0980  -80.8120   -1.6560 C.ar  302  HIS302      0.1154
     64  CE1      223.4140  -82.3190   -0.0940 C.ar  302  HIS302      0.1986
     65  NE2      223.8860  -81.8560   -1.2370 N.ar  302  HIS302     -0.2212
     66  N        219.1450  -74.9550    2.3270 N.3   304  TYR304     -0.1241
     67  CA       219.3610  -73.6070    2.8320 C.3   304  TYR304      0.1605
     68  C        220.5980  -72.9660    2.2160 C.2   304  TYR304      0.2264
     69  O        221.6290  -73.6190    2.0280 O.2   304  TYR304     -0.2867
     70  CB       219.4640  -73.6290    4.3560 C.3   304  TYR304      0.0534
     71  CG       218.2080  -74.1670    5.0000 C.ar  304  TYR304     -0.0201
     72  CD1      217.0360  -73.4230    4.9990 C.ar  304  TYR304     -0.0009
     73  CD2      218.1850  -75.4240    5.5860 C.ar  304  TYR304     -0.0009
     74  CE1      215.8800  -73.9090    5.5760 C.ar  304  TYR304      0.0417
     75  CE2      217.0320  -75.9180    6.1630 C.ar  304  TYR304      0.0417
     76  CZ       215.8850  -75.1550    6.1590 C.ar  304  TYR304      0.1957
     77  OH       214.7360  -75.6450    6.7350 O.3   304  TYR304     -0.2866
     78  N        223.9250  -70.9690    1.6790 N.3   306  THR306     -0.1218
     79  CA       225.1270  -70.7480    2.4640 C.3   306  THR306      0.1862
     80  C        226.0300  -69.8010    1.6810 C.2   306  THR306      0.2287
     81  O        225.8310  -68.5800    1.7290 O.2   306  THR306     -0.2866
     82  CB       225.8040  -72.0760    2.8200 C.3   306  THR306      0.1770
     83  OG1      226.1580  -72.7770    1.6230 O.3   306  THR306     -0.2211
     84  CG2      224.8740  -72.9450    3.6530 C.3   306  THR306      0.0375
     85  N        226.8280  -69.9280   -1.7930 N.3   308  TRP308     -0.1241
     86  CA       226.7920  -70.1110   -3.2410 C.3   308  TRP308      0.1605
     87  C        225.4780  -69.6890   -3.8950 C.2   308  TRP308      0.2264
     88  O        225.1870  -70.1510   -5.0050 O.2   308  TRP308     -0.2867
     89  CB       227.0840  -71.5730   -3.5970 C.3   308  TRP308      0.0550
     90  CG       228.5130  -71.9530   -3.3790 C.ar  308  TRP308      0.0003
     91  CD1      229.5650  -71.7010   -4.2110 C.ar  308  TRP308      0.0946
     92  CD2      229.0520  -72.6430   -2.2470 C.ar  308  TRP308      0.0152
     93  NE1      230.7260  -72.1950   -3.6670 N.ar  308  TRP308     -0.2442
     94  CE2      230.4380  -72.7780   -2.4610 C.ar  308  TRP308      0.0810
     95  CE3      228.4970  -73.1610   -1.0740 C.ar  308  TRP308      0.0012
     96  CZ2      231.2760  -73.4110   -1.5460 C.ar  308  TRP308      0.0191
     97  CZ3      229.3300  -73.7900   -0.1690 C.ar  308  TRP308      0.0001
     98  CH2      230.7030  -73.9090   -0.4080 C.ar  308  TRP308      0.0015
     99  N        222.5550  -70.5170   -4.2500 N.3   310  ILE310     -0.1231
    100  CA       221.4910  -71.5110   -4.2360 C.3   310  ILE310      0.1692
    101  C        221.1200  -71.8340   -2.7970 C.2   310  ILE310      0.2592
    102  O        221.9760  -71.8490   -1.9020 O.2   310  ILE310     -0.2718
    103  CB       221.9240  -72.7790   -4.9920 C.3   310  ILE310      0.0266
    104  CG1      223.2980  -73.2400   -4.5020 C.3   310  ILE310      0.0019
    105  CG2      221.9400  -72.5260   -6.4890 C.3   310  ILE310      0.0020
    106  CD1      223.4370  -74.7380   -4.3740 C.3   310  ILE310      0.0001
    107  N        219.8390  -72.0890   -2.5640 N.am  311  GLY311     -0.1957
    108  CA       219.3560  -72.4640   -1.2560 C.3   311  GLY311      0.1869
    109  C        218.2100  -71.5880   -0.8060 C.2   311  GLY311      0.2309
    110  O        217.7800  -70.6650   -1.4950 O.2   311  GLY311     -0.2863
@<TRIPOS>BOND
     1   105   103    1
     2    88    87    2
     3   103   104    1
     4   103   100    1
     5   104   106    1
     6    99   100    1
     7   100   101    1
     8    91    93   ar
     9    91    90   ar
    10    87    86    1
    11    93    94   ar
    12    89    90    1
    13    89    86    1
    14    90    92   ar
    15    86    85    1
    16   101   107   am
    17   101   102    2
    18   107   108    1
    19    94    92   ar
    20    94    96   ar
    21    92    95   ar
    22    63    65   ar
    23    63    61   ar
    24    96    98   ar
    25   110   109    2
    26   108   109    1
    27    65    64   ar
    28    95    97   ar
    29    61    60    1
    30    61    62   ar
    31    60    57    1
    32    59    58    2
    33    98    97   ar
    34    64    62   ar
    35    58    57    1
    36    57    56    1
    37    50    48    1
    38    47    46    2
    39    83    82    1
    40    46    45    1
    41    78    79    1
    42    80    81    2
    43    80    79    1
    44    56    54   am
    45    48    45    1
    46    48    49    1
    47    69    68    2
    48    68    67    1
    49    42    41    1
    50    66    67    1
    51    79    82    1
    52    45    44    1
    53    49    51    1
    54    54    55    2
    55    54    53    1
    56    82    84    1
    57    67    70    1
    58     8     6   am
    59    43    41    1
    60    41    40    1
    61    52    53    1
    62     6     7    2
    63     6     5    1
    64    70    71    1
    65    35    33    1
    66    23    20    1
    67    40    37    1
    68    72    71   ar
    69    72    74   ar
    70    71    73   ar
    71     5     2    1
    72    37    38    1
    73    37    36    1
    74    39    38    2
    75    74    76   ar
    76    73    75   ar
    77    20    21    1
    78    20    19    1
    79    33    34    1
    80    33    32    1
    81     2     3    1
    82     2     1    1
    83    76    75   ar
    84    76    77    1
    85     4     3    2
    86    22    21    2
    87    21    24   am
    88    18    17   ar
    89    18    16   ar
    90    17    15   ar
    91     3     9   am
    92    28    29    1
    93    29    32    1
    94    29    30    1
    95    24    25    1
    96    16    14   ar
    97    15    14   ar
    98     9    10    1
    99    25    26    1
   100    31    30    2
   101    14    13    1
   102    10    13    1
   103    10    11    1
   104    12    11    2
   105    26    27    2
