@<TRIPOS>MOLECULE
tmp/5oy0I04.pdb
 65 60 0 0 0
SMALL
GASTEIGER

@<TRIPOS>ATOM
      1  N         84.5860  -81.6890   -5.5200 N.3     4  ALA4       -0.1245
      2  CA        83.9830  -80.8430   -4.4970 C.3     4  ALA4        0.1562
      3  C         82.5540  -80.4790   -4.8840 C.2     4  ALA4        0.2260
      4  O         82.2940  -80.0690   -6.0180 O.2     4  ALA4       -0.2867
      5  CB        84.8250  -79.5850   -4.2940 C.3     4  ALA4        0.0290
      6  N         82.9480  -61.3750   -6.3430 N.3    68  ILE68      -0.1231
      7  CA        84.0810  -62.2040   -5.9370 C.3    68  ILE68       0.1692
      8  C         83.8240  -62.8080   -4.5590 C.2    68  ILE68       0.2591
      9  O         83.9760  -64.0210   -4.3460 O.2    68  ILE68      -0.2718
     10  CB        85.3830  -61.3830   -5.9640 C.3    68  ILE68       0.0266
     11  CG1       85.6770  -60.9090   -7.3870 C.3    68  ILE68       0.0019
     12  CG2       86.5430  -62.1980   -5.4090 C.3    68  ILE68       0.0020
     13  CD1       87.0150  -60.2170   -7.5340 C.3    68  ILE68       0.0001
     14  N         83.4140  -61.9650   -3.6070 N.am   69  LEU69      -0.1980
     15  CA        83.0770  -62.4360   -2.2660 C.3    69  LEU69       0.1596
     16  C         81.9820  -63.4960   -2.3050 C.2    69  LEU69       0.2287
     17  O         82.0820  -64.5330   -1.6400 O.2    69  LEU69      -0.2864
     18  CB        82.6370  -61.2580   -1.3980 C.3    69  LEU69       0.0297
     19  CG        83.7120  -60.3450   -0.8210 C.3    69  LEU69       0.0022
     20  CD1       83.0730  -59.0740   -0.3030 C.3    69  LEU69       0.0001
     21  CD2       84.4470  -61.0620    0.2940 C.3    69  LEU69       0.0001
     22  N         83.1670  -66.8540   -3.8200 N.3    72  GLY72      -0.1210
     23  CA        83.9620  -67.5540   -2.8240 C.3    72  GLY72       0.1956
     24  C         83.1220  -68.1440   -1.7070 C.2    72  GLY72       0.2611
     25  O         83.3120  -69.2980   -1.3170 O.2    72  GLY72      -0.2717
     26  N         82.1530  -67.3780   -1.2040 N.am   73  MET73      -0.1979
     27  CA        81.3800  -67.8360   -0.0540 C.3    73  MET73       0.1605
     28  C         80.3990  -68.9420   -0.4330 C.2    73  MET73       0.2287
     29  O         80.2620  -69.9280    0.3010 O.2    73  MET73      -0.2864
     30  CB        80.6480  -66.6600    0.5870 C.3    73  MET73       0.0413
     31  CG        79.9600  -67.0320    1.8830 C.3    73  MET73       0.0598
     32  SD        79.7270  -65.6340    2.9880 S.3    73  MET73      -0.1393
     33  CE        79.5260  -66.4890    4.5480 C.3    73  MET73       0.0692
     34  N         80.7190  -71.0690   -2.9070 N.3    75  LEU75      -0.1231
     35  CA        81.4970  -72.2740   -3.1710 C.3    75  LEU75       0.1693
     36  C         82.0140  -72.8910   -1.8780 C.2    75  LEU75       0.2593
     37  O         81.9840  -74.1160   -1.7150 O.2    75  LEU75      -0.2718
     38  CB        82.6540  -71.9540   -4.1190 C.3    75  LEU75       0.0284
     39  CG        82.4230  -72.0410   -5.6320 C.3    75  LEU75       0.0019
     40  CD1       80.9580  -71.8820   -6.0010 C.3    75  LEU75       0.0001
     41  CD2       83.2590  -70.9870   -6.3350 C.3    75  LEU75       0.0001
     42  N         82.4770  -72.0630   -0.9400 N.am   76  GLY76      -0.1942
     43  CA        82.9900  -72.6010    0.3090 C.3    76  GLY76       0.2014
     44  C         81.9080  -73.2590    1.1410 C.2    76  GLY76       0.2638
     45  O         82.0670  -74.3910    1.6040 O.2    76  GLY76      -0.2714
     46  N         80.7850  -72.5620    1.3310 N.am   77  LEU77      -0.1977
     47  CA        79.6820  -73.1190    2.1060 C.3    77  LEU77       0.1596
     48  C         79.1220  -74.3830    1.4610 C.2    77  LEU77       0.2287
     49  O         78.5860  -75.2480    2.1620 O.2    77  LEU77      -0.2864
     50  CB        78.5850  -72.0660    2.2830 C.3    77  LEU77       0.0297
     51  CG        78.6210  -71.1690    3.5280 C.3    77  LEU77       0.0022
     52  CD1       78.2060  -71.9500    4.7590 C.3    77  LEU77       0.0001
     53  CD2       79.9910  -70.5550    3.7410 C.3    77  LEU77       0.0001
     54  N         80.6190  -77.2360    0.4420 N.3    79  SER79      -0.1202
     55  CA        81.8630  -77.9960    0.5430 C.3    79  SER79       0.2020
     56  C         83.0820  -77.1990    0.0860 C.2    79  SER79       0.2619
     57  O         83.6930  -76.4840    0.8860 O.2    79  SER79      -0.2717
     58  CB        81.7590  -79.3040   -0.2400 C.3    79  SER79       0.2103
     59  OG        81.5280  -80.3830    0.6480 O.3    79  SER79      -0.2182
     60  N         83.4580  -77.3170   -1.1830 N.am   80  SER80      -0.1951
     61  CA        84.6460  -76.6220   -1.6700 C.3    80  SER80       0.1924
     62  C         84.5840  -76.3410   -3.1660 C.2    80  SER80       0.2314
     63  O         85.4130  -75.6030   -3.6990 O.2    80  SER80      -0.2863
     64  CB        85.9040  -77.4300   -1.3520 C.3    80  SER80       0.2116
     65  OG        86.0670  -77.5880    0.0460 O.3    80  SER80      -0.2180
@<TRIPOS>BOND
     1    13    11    1
     2    11    10    1
     3     6     7    1
     4    41    39    1
     5     4     3    2
     6    40    39    1
     7    10     7    1
     8    10    12    1
     9     7     8    1
    10    39    38    1
    11     1     2    1
    12     3     2    1
    13     8     9    2
    14     8    14   am
    15     2     5    1
    16    38    35    1
    17    22    23    1
    18    63    62    2
    19    14    15    1
    20    35    34    1
    21    35    36    1
    22    62    61    1
    23    23    24    1
    24    16    15    1
    25    16    17    2
    26    15    18    1
    27    36    37    2
    28    36    42   am
    29    24    25    2
    30    24    26   am
    31    61    64    1
    32    61    60    1
    33    18    19    1
    34    64    65    1
    35    26    27    1
    36    60    56   am
    37    42    43    1
    38    19    20    1
    39    19    21    1
    40    28    27    1
    41    28    29    2
    42    58    55    1
    43    58    59    1
    44    27    30    1
    45    56    55    1
    46    56    57    2
    47    43    44    1
    48    54    55    1
    49    30    31    1
    50    44    46   am
    51    44    45    2
    52    46    47    1
    53    48    47    1
    54    48    49    2
    55    31    32    1
    56    47    50    1
    57    50    51    1
    58    32    33    1
    59    51    53    1
    60    51    52    1
