@<TRIPOS>MOLECULE
tmp/5oy0W07.pdb
 132 125 0 0 0
SMALL
GASTEIGER

@<TRIPOS>ATOM
      1  N        215.6870 -105.7810    1.7450 N.3   269  THR269     -0.1203
      2  CA       214.3560 -106.3670    1.7030 C.3   269  THR269      0.1994
      3  C        213.3130 -105.4120    2.2760 C.2   269  THR269      0.2617
      4  O        213.6230 -104.3540    2.8280 O.2   269  THR269     -0.2717
      5  CB       214.3290 -107.6940    2.4690 C.3   269  THR269      0.1784
      6  OG1      214.4440 -107.4400    3.8740 O.3   269  THR269     -0.2211
      7  CG2      215.4780 -108.5900    2.0270 C.3   269  THR269      0.0376
      8  N        212.0520 -105.8120    2.1330 N.am  270  PHE270     -0.1975
      9  CA       210.9070 -105.0870    2.6750 C.3   270  PHE270      0.1639
     10  C        209.9560 -106.0870    3.3250 C.2   270  PHE270      0.2290
     11  O        208.7530 -106.1030    3.0660 O.2   270  PHE270     -0.2864
     12  CB       210.2100 -104.2780    1.5810 C.3   270  PHE270      0.0560
     13  CG       209.6300 -102.9720    2.0580 C.ar  270  PHE270     -0.0200
     14  CD1      209.6930 -101.8430    1.2580 C.ar  270  PHE270     -0.0042
     15  CD2      209.0180 -102.8730    3.2980 C.ar  270  PHE270     -0.0042
     16  CE1      209.1650 -100.6410    1.6840 C.ar  270  PHE270     -0.0003
     17  CE2      208.4860 -101.6720    3.7300 C.ar  270  PHE270     -0.0003
     18  CZ       208.5600 -100.5560    2.9210 C.ar  270  PHE270     -0.0000
     19  N        208.9670 -106.5950    6.5240 N.3   272  GLY272     -0.1225
     20  CA       207.9680 -105.9770    7.3740 C.3   272  GLY272      0.1811
     21  C        207.6960 -106.6840    8.6860 C.2   272  GLY272      0.2280
     22  O        207.5270 -106.0310    9.7230 O.2   272  GLY272     -0.2866
     23  N        213.2960 -107.2000   14.3340 N.3   281  LEU281     -0.1245
     24  CA       213.1620 -106.7100   12.9710 C.3   281  LEU281      0.1561
     25  C        214.2480 -107.3140   12.0910 C.2   281  LEU281      0.2260
     26  O        215.3620 -107.5940   12.5430 O.2   281  LEU281     -0.2867
     27  CB       213.2460 -105.1830   12.9360 C.3   281  LEU281      0.0270
     28  CG       212.1170 -104.4080   13.6160 C.3   281  LEU281      0.0019
     29  CD1      212.3520 -102.9090   13.4960 C.3   281  LEU281      0.0001
     30  CD2      210.7750 -104.7940   13.0190 C.3   281  LEU281      0.0001
     31  N        215.8190 -105.2610    6.5400 N.3   285  ASP285     -0.1225
     32  CA       214.8670 -104.1580    6.5720 C.3   285  ASP285      0.1805
     33  C        215.4730 -102.9270    7.2370 C.2   285  ASP285      0.2598
     34  O        215.2860 -101.8040    6.7590 O.2   285  ASP285     -0.2718
     35  CB       213.5880 -104.5970    7.2880 C.3   285  ASP285      0.1424
     36  CG       212.8150 -105.6520    6.5140 C.2   285  ASP285      0.3668
     37  OD1      212.8860 -105.6510    5.2680 O.co2 285  ASP285     -0.2456
     38  OD2      212.1280 -106.4790    7.1500 O.co2 285  ASP285     -0.2456
     39  N        216.2270 -103.1170    8.3260 N.am  286  THR286     -0.1953
     40  CA       216.8250 -101.9720    9.0090 C.3   286  THR286      0.1897
     41  C        217.9150 -101.3240    8.1610 C.2   286  THR286      0.2313
     42  O        218.0650 -100.0980    8.1670 O.2   286  THR286     -0.2863
     43  CB       217.3850 -102.3900   10.3690 C.3   286  THR286      0.1794
     44  OG1      218.5750 -103.1670   10.1840 O.3   286  THR286     -0.2208
     45  CG2      216.3620 -103.2120   11.1400 C.3   286  THR286      0.0378
     46  N        218.0360 -101.3660    4.7660 N.3   288  HIS288     -0.1226
     47  CA       217.2880 -100.6530    3.7350 C.3   288  HIS288      0.1752
     48  C        216.7230  -99.3450    4.2790 C.2   288  HIS288      0.2596
     49  O        216.7640  -98.3030    3.6090 O.2   288  HIS288     -0.2718
     50  CB       216.1690 -101.5570    3.2200 C.3   288  HIS288      0.0759
     51  CG       215.5730 -101.1180    1.9210 C.ar  288  HIS288      0.0818
     52  ND1      214.4740 -101.7370    1.3650 N.ar  288  HIS288     -0.2268
     53  CD2      215.9240 -100.1310    1.0640 C.ar  288  HIS288      0.1154
     54  CE1      214.1710 -101.1470    0.2220 C.ar  288  HIS288      0.1986
     55  NE2      215.0360 -100.1700    0.0170 N.ar  288  HIS288     -0.2212
     56  N        216.2110  -99.3860    5.5100 N.am  289  HIS289     -0.1975
     57  CA       215.6540  -98.2000    6.1450 C.3   289  HIS289      0.1656
     58  C        216.7200  -97.1410    6.3810 C.2   289  HIS289      0.2291
     59  O        216.4830  -95.9510    6.1490 O.2   289  HIS289     -0.2864
     60  CB       214.9920  -98.6070    7.4580 C.3   289  HIS289      0.0771
     61  CG       214.8770  -97.4970    8.4490 C.ar  289  HIS289      0.0820
     62  ND1      214.1230  -96.3670    8.2200 N.ar  289  HIS289     -0.2267
     63  CD2      215.4200  -97.3460    9.6790 C.ar  289  HIS289      0.1154
     64  CE1      214.1980  -95.5720    9.2710 C.ar  289  HIS289      0.1986
     65  NE2      214.9870  -96.1380   10.1650 N.ar  289  HIS289     -0.2212
     66  N        217.5780  -95.5000    3.0240 N.3   292  ALA292     -0.1231
     67  CA       216.5660  -94.5270    2.6230 C.3   292  ALA292      0.1694
     68  C        216.6400  -93.2660    3.4790 C.2   292  ALA292      0.2591
     69  O        216.5720  -92.1460    2.9570 O.2   292  ALA292     -0.2718
     70  CB       215.1740  -95.1540    2.7030 C.3   292  ALA292      0.0304
     71  N        216.7870  -93.4300    4.7970 N.am  293  ILE293     -0.1980
     72  CA       216.8530  -92.2850    5.7010 C.3   293  ILE293      0.1595
     73  C        218.0890  -91.4470    5.4100 C.2   293  ILE293      0.2287
     74  O        218.0470  -90.2110    5.4590 O.2   293  ILE293     -0.2864
     75  CB       216.8170  -92.7680    7.1630 C.3   293  ILE293      0.0276
     76  CG1      215.3810  -93.0770    7.5760 C.3   293  ILE293      0.0022
     77  CG2      217.4340  -91.7420    8.1020 C.3   293  ILE293      0.0022
     78  CD1      214.4860  -91.8620    7.6330 C.3   293  ILE293      0.0001
     79  N        217.4410  -89.4500    2.2500 N.3   296  LEU296     -0.1245
     80  CA       216.4910  -88.3880    2.5650 C.3   296  LEU296      0.1561
     81  C        217.1760  -87.2350    3.2860 C.2   296  LEU296      0.2260
     82  O        217.0020  -86.0670    2.9220 O.2   296  LEU296     -0.2867
     83  CB       215.3510  -88.9510    3.4130 C.3   296  LEU296      0.0270
     84  CG       213.9180  -88.7020    2.9400 C.3   296  LEU296      0.0019
     85  CD1      212.9310  -89.2720    3.9460 C.3   296  LEU296      0.0001
     86  CD2      213.6670  -87.2210    2.7140 C.3   296  LEU296      0.0001
     87  N        208.3380  -91.1980   21.5110 N.3   358  ILE358     -0.1245
     88  CA       208.0490  -91.9150   20.2720 C.3   358  ILE358      0.1561
     89  C        208.9750  -93.1160   20.1220 C.2   358  ILE358      0.2260
     90  O        208.5620  -94.1800   19.6500 O.2   358  ILE358     -0.2867
     91  CB       208.1570  -90.9510   19.0750 C.3   358  ILE358      0.0252
     92  CG1      206.9550  -90.0020   19.0460 C.3   358  ILE358      0.0019
     93  CG2      208.2880  -91.7100   17.7650 C.3   358  ILE358      0.0019
     94  CD1      207.0920  -88.8640   18.0640 C.3   358  ILE358      0.0001
     95  N        207.6500  -96.8680   19.7540 N.3   362  HIS362     -0.1226
     96  CA       207.9680  -97.5930   18.5320 C.3   362  HIS362      0.1752
     97  C        208.8640  -98.7970   18.7800 C.2   362  HIS362      0.2595
     98  O        208.8600  -99.7300   17.9700 O.2   362  HIS362     -0.2718
     99  CB       208.6310  -96.6560   17.5220 C.3   362  HIS362      0.0759
    100  CG       207.6960  -95.6500   16.9300 C.ar  362  HIS362      0.0818
    101  ND1      208.0470  -94.8390   15.8730 N.ar  362  HIS362     -0.2268
    102  CD2      206.4180  -95.3290   17.2430 C.ar  362  HIS362      0.1154
    103  CE1      207.0280  -94.0600   15.5610 C.ar  362  HIS362      0.1986
    104  NE2      206.0280  -94.3360   16.3780 N.ar  362  HIS362     -0.2212
    105  N        209.6260  -98.8000   19.8720 N.am  363  MET363     -0.1979
    106  CA       210.4660  -99.9430   20.1940 C.3   363  MET363      0.1605
    107  C        209.7290 -101.0070   20.9930 C.2   363  MET363      0.2287
    108  O        210.0890 -102.1870   20.9040 O.2   363  MET363     -0.2864
    109  CB       211.7110  -99.4920   20.9650 C.3   363  MET363      0.0413
    110  CG       212.7020  -98.6800   20.1350 C.3   363  MET363      0.0598
    111  SD       214.2350  -98.3270   21.0160 S.3   363  MET363     -0.1393
    112  CE       214.8520  -99.9910   21.2580 C.3   363  MET363      0.0692
    113  N        207.6700 -102.7120   18.0230 N.3   366  MET366     -0.1245
    114  CA       208.4800 -103.1430   16.8860 C.3   366  MET366      0.1570
    115  C        209.8720 -103.4600   17.4100 C.2   366  MET366      0.2261
    116  O        210.8050 -102.6650   17.2380 O.2   366  MET366     -0.2867
    117  CB       208.5370 -102.0700   15.7980 C.3   366  MET366      0.0387
    118  CG       207.2090 -101.7510   15.1450 C.3   366  MET366      0.0595
    119  SD       207.3460 -100.2890   14.0990 S.3   366  MET366     -0.1393
    120  CE       206.0140 -100.5790   12.9390 C.3   366  MET366      0.0692
    121  N        213.3860 -104.0760   17.6370 N.3   368  PRO368     -0.2116
    122  CA       214.3980 -104.0330   16.5740 C.3   368  PRO368      0.1372
    123  C        215.5980 -104.9170   16.8700 C.2   368  PRO368      0.2244
    124  O        216.2570 -105.4100   15.9490 O.2   368  PRO368     -0.2868
    125  CB       214.7920 -102.5480   16.5280 C.3   368  PRO368      0.0268
    126  CG       214.1020 -101.8910   17.7310 C.3   368  PRO368      0.0207
    127  CD       213.5690 -102.9780   18.5970 C.3   368  PRO368      0.0892
    128  N        203.5770 -103.9520    9.2000 N.3   498  ALA498     -0.1245
    129  CA       204.6050 -103.1370    9.8390 C.3   498  ALA498      0.1562
    130  C        204.8580 -103.6010   11.2680 C.2   498  ALA498      0.2260
    131  O        205.9960 -103.5640   11.7510 O.2   498  ALA498     -0.2867
    132  CB       204.1970 -101.6650    9.8130 C.3   498  ALA498      0.0290
@<TRIPOS>BOND
     1    55    54   ar
     2    55    53   ar
     3    54    52   ar
     4    53    51   ar
     5    14    16   ar
     6    14    13   ar
     7    52    51   ar
     8    12    13    1
     9    12     9    1
    10    16    18   ar
    11     2     1    1
    12     2     3    1
    13     2     5    1
    14    51    50    1
    15     7     5    1
    16    13    15   ar
    17     8     3   am
    18     8     9    1
    19    79    80    1
    20     3     4    2
    21     5     6    1
    22    80    81    1
    23    80    83    1
    24    67    70    1
    25    67    66    1
    26    67    68    1
    27     9    10    1
    28    86    84    1
    29    18    17   ar
    30    82    81    2
    31    84    83    1
    32    84    85    1
    33    69    68    2
    34    11    10    2
    35    50    47    1
    36    15    17   ar
    37    68    71   am
    38    49    48    2
    39    47    48    1
    40    47    46    1
    41    48    56   am
    42    71    72    1
    43    37    36   ar
    44    73    74    2
    45    73    72    1
    46    56    57    1
    47    72    75    1
    48    57    58    1
    49    57    60    1
    50    59    58    2
    51    36    38   ar
    52    36    35    1
    53    19    20    1
    54    31    32    1
    55    32    33    1
    56    32    35    1
    57    34    33    2
    58    75    76    1
    59    75    77    1
    60    33    39   am
    61    20    21    1
    62    60    61    1
    63    76    78    1
    64    41    42    2
    65    41    40    1
    66    62    61   ar
    67    62    64   ar
    68    39    40    1
    69    61    63   ar
    70    21    22    2
    71    40    43    1
    72   128   129    1
    73    64    65   ar
    74    63    65   ar
    75   132   129    1
    76   129   130    1
    77    44    43    1
    78    43    45    1
    79   130   131    2
    80    25    26    2
    81    25    24    1
    82    27    24    1
    83    27    28    1
    84   120   119    1
    85    24    23    1
    86    30    28    1
    87    29    28    1
    88   119   118    1
    89   118   117    1
    90   103   101   ar
    91   103   104   ar
    92   117   114    1
    93   101   100   ar
    94   124   123    2
    95   104   102   ar
    96   125   122    1
    97   125   126    1
    98   122   123    1
    99   122   121    1
   100   114   115    1
   101   114   113    1
   102   100   102   ar
   103   100    99    1
   104   116   115    2
   105    99    96    1
   106   121   127    1
   107   126   127    1
   108    93    91    1
   109    98    97    2
   110    94    92    1
   111    96    97    1
   112    96    95    1
   113    97   105   am
   114    92    91    1
   115    91    88    1
   116    90    89    2
   117   105   106    1
   118    89    88    1
   119   110   109    1
   120   110   111    1
   121   106   109    1
   122   106   107    1
   123    88    87    1
   124   108   107    2
   125   111   112    1
