@<TRIPOS>MOLECULE
tmp/5oy0A03.pdb
 171 167 0 0 0
SMALL
GASTEIGER

@<TRIPOS>ATOM
      1  N         92.3550  -66.8570  -21.1010 N.3   210  LEU210     -0.1231
      2  CA        90.9270  -67.1440  -21.2420 C.3   210  LEU210      0.1693
      3  C         90.6160  -67.6830  -22.6350 C.2   210  LEU210      0.2592
      4  O         89.9580  -68.7230  -22.7820 O.2   210  LEU210     -0.2718
      5  CB        90.0970  -65.8890  -20.9560 C.3   210  LEU210      0.0284
      6  CG        88.7320  -66.0200  -20.2590 C.3   210  LEU210      0.0019
      7  CD1       87.8280  -64.8330  -20.5970 C.3   210  LEU210      0.0001
      8  CD2       88.0260  -67.3340  -20.5700 C.3   210  LEU210      0.0001
      9  N         91.0800  -66.9840  -23.6720 N.am  211  GLY211     -0.1957
     10  CA        90.9050  -67.4760  -25.0260 C.3   211  GLY211      0.1869
     11  C         91.5760  -68.8140  -25.2520 C.2   211  GLY211      0.2309
     12  O         91.0580  -69.6590  -25.9910 O.2   211  GLY211     -0.2863
     13  N         92.0320  -71.1460  -22.8940 N.3   213  ALA213     -0.1231
     14  CA        91.1570  -72.1200  -22.2570 C.3   213  ALA213      0.1694
     15  C         89.9810  -72.4420  -23.1640 C.2   213  ALA213      0.2592
     16  O         89.5670  -73.6020  -23.2700 O.2   213  ALA213     -0.2718
     17  CB        90.6770  -71.5980  -20.9020 C.3   213  ALA213      0.0304
     18  N         89.4550  -71.4250  -23.8510 N.am  214  GLY214     -0.1957
     19  CA        88.3960  -71.6650  -24.8220 C.3   214  GLY214      0.1869
     20  C         88.8210  -72.6100  -25.9320 C.2   214  GLY214      0.2309
     21  O         88.1170  -73.5760  -26.2470 O.2   214  GLY214     -0.2863
     22  N         89.3310  -76.2070  -24.5320 N.3   217  ILE217     -0.1231
     23  CA        88.0830  -76.8990  -24.2350 C.3   217  ILE217      0.1692
     24  C         87.3700  -77.2980  -25.5210 C.2   217  ILE217      0.2592
     25  O         86.8440  -78.4120  -25.6330 O.2   217  ILE217     -0.2718
     26  CB        87.1930  -76.0170  -23.3390 C.3   217  ILE217      0.0266
     27  CG1       87.8300  -75.8340  -21.9590 C.3   217  ILE217      0.0019
     28  CG2       85.8010  -76.6140  -23.2110 C.3   217  ILE217      0.0020
     29  CD1       87.0550  -74.9100  -21.0470 C.3   217  ILE217      0.0001
     30  N         87.3510  -76.4110  -26.5180 N.am  218  HIS218     -0.1976
     31  CA        86.5340  -76.6590  -27.7000 C.3   218  HIS218      0.1656
     32  C         87.2700  -77.3800  -28.8200 C.2   218  HIS218      0.2291
     33  O         86.6220  -78.0440  -29.6380 O.2   218  HIS218     -0.2864
     34  CB        85.9700  -75.3430  -28.2360 C.3   218  HIS218      0.0771
     35  CG        84.8180  -74.8240  -27.4400 C.ar  218  HIS218      0.0820
     36  ND1       83.5170  -75.2040  -27.6850 N.ar  218  HIS218     -0.2267
     37  CD2       84.7710  -73.9690  -26.3920 C.ar  218  HIS218      0.1154
     38  CE1       82.7160  -74.6000  -26.8250 C.ar  218  HIS218      0.1986
     39  NE2       83.4540  -73.8480  -26.0290 N.ar  218  HIS218     -0.2212
     40  N         82.6860  -79.6570  -33.6280 N.3   242  PHE242     -0.1227
     41  CA        82.2690  -79.7570  -32.2320 C.3   242  PHE242      0.1736
     42  C         81.4860  -78.5360  -31.7780 C.2   242  PHE242      0.2595
     43  O         80.7130  -78.6300  -30.8180 O.2   242  PHE242     -0.2718
     44  CB        83.4820  -79.9560  -31.3290 C.3   242  PHE242      0.0547
     45  CG        84.2620  -81.1940  -31.6330 C.ar  242  PHE242     -0.0202
     46  CD1       83.9410  -82.3970  -31.0250 C.ar  242  PHE242     -0.0042
     47  CD2       85.3150  -81.1600  -32.5310 C.ar  242  PHE242     -0.0042
     48  CE1       84.6610  -83.5490  -31.3050 C.ar  242  PHE242     -0.0003
     49  CE2       86.0380  -82.3060  -32.8190 C.ar  242  PHE242     -0.0003
     50  CZ        85.7100  -83.5040  -32.2050 C.ar  242  PHE242     -0.0000
     51  N         81.6680  -77.4000  -32.4460 N.am  243  ILE243     -0.1980
     52  CA        80.9060  -76.2010  -32.1300 C.3   243  ILE243      0.1595
     53  C         79.6080  -76.1350  -32.9310 C.2   243  ILE243      0.2287
     54  O         78.6010  -75.6190  -32.4370 O.2   243  ILE243     -0.2864
     55  CB        81.7820  -74.9600  -32.3700 C.3   243  ILE243      0.0276
     56  CG1       83.0980  -75.1040  -31.5990 C.3   243  ILE243      0.0022
     57  CG2       81.0510  -73.6900  -31.9590 C.3   243  ILE243      0.0022
     58  CD1       84.1460  -74.0750  -31.9580 C.3   243  ILE243      0.0001
     59  N         76.9210  -79.5950  -31.1360 N.3   246  PRO246     -0.2116
     60  CA        77.2640  -79.6730  -29.7050 C.3   246  PRO246      0.1372
     61  C         77.0350  -81.0480  -29.1000 C.2   246  PRO246      0.2244
     62  O         77.5380  -81.3130  -27.9980 O.2   246  PRO246     -0.2868
     63  CB        76.3450  -78.6230  -29.0600 C.3   246  PRO246      0.0268
     64  CG        75.8050  -77.8040  -30.2030 C.3   246  PRO246      0.0207
     65  CD        75.7590  -78.7270  -31.3730 C.3   246  PRO246      0.0892
     66  N         80.3950  -82.7600  -28.4180 N.3   249  MET249     -0.1245
     67  CA        80.9370  -82.3910  -27.1150 C.3   249  MET249      0.1570
     68  C         80.1830  -83.1010  -25.9990 C.2   249  MET249      0.2261
     69  O         80.7920  -83.7230  -25.1210 O.2   249  MET249     -0.2867
     70  CB        80.8750  -80.8750  -26.9220 C.3   249  MET249      0.0387
     71  CG        81.7230  -80.0740  -27.8940 C.3   249  MET249      0.0595
     72  SD        83.4860  -80.4290  -27.7660 S.3   249  MET249     -0.1393
     73  CE        83.8110  -80.0080  -26.0610 C.3   249  MET249      0.0692
     74  N         78.3610  -80.9050  -20.8980 N.3   256  PHE256     -0.1241
     75  CA        77.9220  -80.0120  -21.9630 C.3   256  PHE256      0.1605
     76  C         76.4230  -80.0960  -22.1990 C.2   256  PHE256      0.2264
     77  O         75.8370  -79.1440  -22.7260 O.2   256  PHE256     -0.2867
     78  CB        78.6860  -80.3150  -23.2520 C.3   256  PHE256      0.0534
     79  CG        79.9830  -79.5770  -23.3600 C.ar  256  PHE256     -0.0203
     80  CD1       81.1340  -80.0860  -22.7890 C.ar  256  PHE256     -0.0042
     81  CD2       80.0460  -78.3560  -24.0080 C.ar  256  PHE256     -0.0042
     82  CE1       82.3320  -79.3940  -22.8720 C.ar  256  PHE256     -0.0003
     83  CE2       81.2380  -77.6610  -24.0940 C.ar  256  PHE256     -0.0003
     84  CZ        82.3820  -78.1800  -23.5240 C.ar  256  PHE256     -0.0000
     85  N         75.0600  -77.1960  -20.4230 N.3   259  GLY259     -0.1210
     86  CA        75.3460  -75.9060  -21.0210 C.3   259  GLY259      0.1956
     87  C         76.0350  -74.9410  -20.0690 C.2   259  GLY259      0.2612
     88  O         76.8010  -75.3290  -19.1850 O.2   259  GLY259     -0.2717
     89  N         75.7430  -73.6550  -20.2640 N.am  260  LEU260     -0.1965
     90  CA        76.3840  -72.5720  -19.5310 C.3   260  LEU260      0.1728
     91  C         75.6970  -72.2380  -18.2160 C.2   260  LEU260      0.2616
     92  O         76.2710  -71.5000  -17.4080 O.2   260  LEU260     -0.2715
     93  CB        76.4280  -71.3070  -20.3920 C.3   260  LEU260      0.0311
     94  CG        77.1230  -71.3930  -21.7480 C.3   260  LEU260      0.0022
     95  CD1       76.9850  -70.0620  -22.4680 C.3   260  LEU260      0.0001
     96  CD2       78.5840  -71.7770  -21.5790 C.3   260  LEU260      0.0001
     97  N         74.4850  -72.7360  -17.9910 N.am  261  THR261     -0.1951
     98  CA        73.7730  -72.4390  -16.7490 C.3   261  THR261      0.1897
     99  C         74.5740  -72.7800  -15.4990 C.2   261  THR261      0.2313
    100  O         74.6400  -71.9340  -14.5920 O.2   261  THR261     -0.2863
    101  CB        72.4190  -73.1590  -16.7590 C.3   261  THR261      0.1794
    102  OG1       71.5610  -72.5450  -17.7300 O.3   261  THR261     -0.2208
    103  CG2       71.7710  -73.0970  -15.3870 C.3   261  THR261      0.0378
    104  N         77.6160  -72.5750  -15.0330 N.3   263  PHE263     -0.1227
    105  CA        78.6810  -71.5890  -14.8890 C.3   263  PHE263      0.1736
    106  C         78.1830  -70.3370  -14.1790 C.2   263  PHE263      0.2595
    107  O         78.8130  -69.8590  -13.2280 O.2   263  PHE263     -0.2718
    108  CB        79.2600  -71.2360  -16.2590 C.3   263  PHE263      0.0547
    109  CG        80.1540  -70.0280  -16.2440 C.ar  263  PHE263     -0.0202
    110  CD1       81.4510  -70.1170  -15.7740 C.ar  263  PHE263     -0.0042
    111  CD2       79.6950  -68.8010  -16.7000 C.ar  263  PHE263     -0.0042
    112  CE1       82.2760  -69.0040  -15.7590 C.ar  263  PHE263     -0.0003
    113  CE2       80.5150  -67.6850  -16.6850 C.ar  263  PHE263     -0.0003
    114  CZ        81.8070  -67.7870  -16.2160 C.ar  263  PHE263     -0.0000
    115  N         77.0510  -69.7900  -14.6250 N.am  264  PHE264     -0.1962
    116  CA        76.5430  -68.5400  -14.0740 C.3   264  PHE264      0.1771
    117  C         75.8800  -68.7020  -12.7110 C.2   264  PHE264      0.2620
    118  O         75.6670  -67.6950  -12.0270 O.2   264  PHE264     -0.2715
    119  CB        75.5580  -67.8960  -15.0540 C.3   264  PHE264      0.0574
    120  CG        76.2010  -67.3920  -16.3150 C.ar  264  PHE264     -0.0200
    121  CD1       76.9370  -66.2170  -16.3120 C.ar  264  PHE264     -0.0042
    122  CD2       76.0730  -68.0930  -17.5030 C.ar  264  PHE264     -0.0042
    123  CE1       77.5340  -65.7510  -17.4710 C.ar  264  PHE264     -0.0003
    124  CE2       76.6660  -67.6320  -18.6670 C.ar  264  PHE264     -0.0003
    125  CZ        77.3970  -66.4600  -18.6500 C.ar  264  PHE264     -0.0000
    126  N         75.5570  -69.9240  -12.2940 N.am  265  THR265     -0.1951
    127  CA        74.9300  -70.1590  -11.0000 C.3   265  THR265      0.1897
    128  C         75.9050  -70.6940   -9.9600 C.2   265  THR265      0.2313
    129  O         75.4690  -71.1560   -8.9010 O.2   265  THR265     -0.2863
    130  CB        73.7480  -71.1220  -11.1460 C.3   265  THR265      0.1794
    131  OG1       74.1810  -72.3300  -11.7850 O.3   265  THR265     -0.2208
    132  CG2       72.6460  -70.4880  -11.9720 C.3   265  THR265      0.0378
    133  N         80.7550  -79.3750  -14.2520 N.3   271  TYR271     -0.1241
    134  CA        81.8410  -79.3740  -15.2280 C.3   271  TYR271      0.1605
    135  C         83.0080  -80.2650  -14.8360 C.2   271  TYR271      0.2264
    136  O         84.0700  -80.1070  -15.4500 O.2   271  TYR271     -0.2867
    137  CB        82.3570  -77.9490  -15.4290 C.3   271  TYR271      0.0534
    138  CG        81.3420  -76.9760  -15.9740 C.ar  271  TYR271     -0.0201
    139  CD1       80.3050  -77.4050  -16.7900 C.ar  271  TYR271     -0.0009
    140  CD2       81.4290  -75.6190  -15.6790 C.ar  271  TYR271     -0.0009
    141  CE1       79.3750  -76.5120  -17.2960 C.ar  271  TYR271      0.0417
    142  CE2       80.5080  -74.7180  -16.1790 C.ar  271  TYR271      0.0417
    143  CZ        79.4800  -75.1700  -16.9890 C.ar  271  TYR271      0.1957
    144  OH        78.5510  -74.2850  -17.4950 O.3   271  TYR271     -0.2866
    145  N         85.4340  -82.1980  -17.6370 N.3   274  PHE274     -0.1227
    146  CA        86.4060  -81.5640  -18.5160 C.3   274  PHE274      0.1736
    147  C         87.2220  -80.4590  -17.8540 C.2   274  PHE274      0.2595
    148  O         88.2040  -80.0080  -18.4530 O.2   274  PHE274     -0.2718
    149  CB        85.7210  -81.0130  -19.7790 C.3   274  PHE274      0.0547
    150  CG        84.8400  -79.8200  -19.5400 C.ar  274  PHE274     -0.0202
    151  CD1       85.3180  -78.5370  -19.7550 C.ar  274  PHE274     -0.0042
    152  CD2       83.5250  -79.9800  -19.1380 C.ar  274  PHE274     -0.0042
    153  CE1       84.5060  -77.4370  -19.5520 C.ar  274  PHE274     -0.0003
    154  CE2       82.7080  -78.8840  -18.9350 C.ar  274  PHE274     -0.0003
    155  CZ        83.1980  -77.6120  -19.1410 C.ar  274  PHE274     -0.0000
    156  N         86.8620  -80.0160  -16.6520 N.am  275  LEU275     -0.1980
    157  CA        87.7020  -79.1320  -15.8450 C.3   275  LEU275      0.1596
    158  C         88.1920  -79.9710  -14.6700 C.2   275  LEU275      0.2287
    159  O         87.4710  -80.1680  -13.6870 O.2   275  LEU275     -0.2864
    160  CB        86.9340  -77.8910  -15.3960 C.3   275  LEU275      0.0297
    161  CG        86.3980  -77.0240  -16.5370 C.3   275  LEU275      0.0022
    162  CD1       85.5970  -75.8500  -15.9990 C.3   275  LEU275      0.0001
    163  CD2       87.5400  -76.5440  -17.4200 C.3   275  LEU275      0.0001
    164  N         91.9460  -71.5260  -17.2470 N.3   298  LEU298     -0.1245
    165  CA        90.7510  -70.8320  -16.7790 C.3   298  LEU298      0.1561
    166  C         91.0150  -70.1230  -15.4540 C.2   298  LEU298      0.2260
    167  O         90.6810  -68.9400  -15.2850 O.2   298  LEU298     -0.2867
    168  CB        89.5970  -71.8250  -16.6470 C.3   298  LEU298      0.0270
    169  CG        88.3150  -71.3270  -15.9810 C.3   298  LEU298      0.0019
    170  CD1       87.8320  -70.0260  -16.6140 C.3   298  LEU298      0.0001
    171  CD2       87.2350  -72.3980  -16.0620 C.3   298  LEU298      0.0001
@<TRIPOS>BOND
     1    40    41    1
     2    53    54    2
     3    53    52    1
     4    49    47   ar
     5    49    50   ar
     6    47    45   ar
     7    51    52    1
     8    51    42   am
     9    55    52    1
    10    55    57    1
    11    55    56    1
    12    41    42    1
    13    41    44    1
    14    50    48   ar
    15    58    56    1
    16    42    43    2
    17    45    44    1
    18    45    46   ar
    19    65    59    1
    20    65    64    1
    21    48    46   ar
    22    59    60    1
    23    64    63    1
    24    60    61    1
    25    60    63    1
    26    33    32    2
    27    61    62    2
    28    32    31    1
    29    66    67    1
    30    34    31    1
    31    34    35    1
    32    71    72    1
    33    71    70    1
    34    72    73    1
    35    31    30    1
    36    36    35   ar
    37    36    38   ar
    38    35    37   ar
    39    67    70    1
    40    67    68    1
    41    38    39   ar
    42    30    24   am
    43    37    39   ar
    44    21    20    2
    45    68    69    2
    46    12    11    2
    47    20    19    1
    48    25    24    2
    49    24    23    1
    50    11    10    1
    51    10     9    1
    52    19    18    1
    53    22    23    1
    54    23    26    1
    55    83    81   ar
    56    83    84   ar
    57    81    79   ar
    58    18    15   am
    59     9     3   am
    60    84    82   ar
    61    79    78    1
    62    79    80   ar
    63    26    28    1
    64    26    27    1
    65    16    15    2
    66    78    75    1
    67    15    14    1
    68    13    14    1
    69    82    80   ar
    70     4     3    2
    71    77    76    2
    72     3     2    1
    73    95    94    1
    74    14    17    1
    75    76    75    1
    76    75    74    1
    77    27    29    1
    78    94    96    1
    79    94    93    1
    80     2     1    1
    81     2     5    1
    82    86    85    1
    83    86    87    1
    84     5     6    1
    85     7     6    1
    86     8     6    1
    87    93    90    1
    88    89    87   am
    89    89    90    1
    90    87    88    2
    91   149   150    1
    92   149   146    1
    93   151   153   ar
    94   151   150   ar
    95   153   155   ar
    96   150   152   ar
    97    90    91    1
    98   155   154   ar
    99   152   154   ar
   100   124   125   ar
   101   124   122   ar
   102   125   123   ar
   103   146   147    1
   104   146   145    1
   105   148   147    2
   106    91    97   am
   107    91    92    2
   108    97    98    1
   109   147   156   am
   110   102   101    1
   111   122   120   ar
   112   144   143    1
   113   123   121   ar
   114   163   161    1
   115   141   143   ar
   116   141   139   ar
   117   164   165    1
   118   143   142   ar
   119   139   138   ar
   120   165   168    1
   121   165   166    1
   122   101    98    1
   123   101   103    1
   124    98    99    1
   125   111   113   ar
   126   111   109   ar
   127   113   114   ar
   128   156   157    1
   129   168   169    1
   130   170   169    1
   131   161   162    1
   132   161   160    1
   133   120   121   ar
   134   120   119    1
   135   108   109    1
   136   108   105    1
   137   109   110   ar
   138   114   112   ar
   139   142   140   ar
   140   171   169    1
   141   138   140   ar
   142   138   137    1
   143   157   160    1
   144   157   158    1
   145   110   112   ar
   146    99   100    2
   147   166   167    2
   148   136   135    2
   149   137   134    1
   150   134   135    1
   151   134   133    1
   152   119   116    1
   153   104   105    1
   154   105   106    1
   155   158   159    2
   156   115   106   am
   157   115   116    1
   158   106   107    2
   159   116   117    1
   160   117   126   am
   161   117   118    2
   162   126   127    1
   163   132   130    1
   164   131   130    1
   165   130   127    1
   166   127   128    1
   167   128   129    2
