@<TRIPOS>MOLECULE
tmp/5oy0W58.pdb
 158 156 0 0 0
SMALL
GASTEIGER

@<TRIPOS>ATOM
      1  N        239.9500  -71.7870   40.1470 N.3    21  TRP21      -0.1241
      2  CA       239.4400  -73.0010   40.7740 C.3    21  TRP21       0.1605
      3  C        239.4160  -72.8840   42.2910 C.2    21  TRP21       0.2264
      4  O        238.6310  -73.5790   42.9450 O.2    21  TRP21      -0.2867
      5  CB       240.2760  -74.2190   40.3680 C.3    21  TRP21       0.0550
      6  CG       240.2180  -74.5800   38.9100 C.ar   21  TRP21       0.0003
      7  CD1      240.0950  -73.7240   37.8530 C.ar   21  TRP21       0.0946
      8  CD2      240.2840  -75.8990   38.3520 C.ar   21  TRP21       0.0152
      9  NE1      240.0810  -74.4280   36.6730 N.ar   21  TRP21      -0.2442
     10  CE2      240.1950  -75.7650   36.9510 C.ar   21  TRP21       0.0810
     11  CE3      240.4100  -77.1790   38.9000 C.ar   21  TRP21       0.0012
     12  CZ2      240.2280  -76.8620   36.0910 C.ar   21  TRP21       0.0191
     13  CZ3      240.4410  -78.2680   38.0440 C.ar   21  TRP21       0.0001
     14  CH2      240.3510  -78.1020   36.6560 C.ar   21  TRP21       0.0015
     15  N        235.5600  -70.3190   44.7090 N.3    24  PRO24      -0.2102
     16  CA       234.2020  -70.7800   44.3710 C.3    24  PRO24       0.1504
     17  C        233.2290  -69.6100   44.3460 C.2    24  PRO24       0.2576
     18  O        233.0400  -68.9200   45.3480 O.2    24  PRO24      -0.2718
     19  CB       233.8740  -71.7730   45.4930 C.3    24  PRO24       0.0282
     20  CG       234.7570  -71.3650   46.6300 C.3    24  PRO24       0.0208
     21  CD       236.0200  -70.8440   46.0060 C.3    24  PRO24       0.0893
     22  N        232.6130  -69.3910   43.1960 N.am   25  GLY25      -0.1943
     23  CA       231.7670  -68.2450   42.9770 C.3    25  GLY25       0.2014
     24  C        232.3780  -67.1540   42.1220 C.2    25  GLY25       0.2639
     25  O        231.9310  -66.0040   42.2110 O.2    25  GLY25      -0.2714
     26  N        233.3840  -67.4760   41.3050 N.am   26  HIS26      -0.1959
     27  CA       234.0180  -66.4650   40.4670 C.3    26  HIS26       0.1787
     28  C        233.0730  -65.9500   39.3900 C.2    26  HIS26       0.2620
     29  O        233.2020  -64.8000   38.9550 O.2    26  HIS26      -0.2715
     30  CB       235.2800  -67.0390   39.8260 C.3    26  HIS26       0.0785
     31  CG       235.0140  -68.1630   38.8740 C.ar   26  HIS26       0.0821
     32  ND1      234.7040  -67.9560   37.5470 N.ar   26  HIS26      -0.2267
     33  CD2      235.0010  -69.5050   39.0580 C.ar   26  HIS26       0.1154
     34  CE1      234.5160  -69.1210   36.9540 C.ar   26  HIS26       0.1986
     35  NE2      234.6920  -70.0780   37.8480 N.ar   26  HIS26      -0.2212
     36  N        232.1240  -66.7770   38.9510 N.am   27  PHE27      -0.1974
     37  CA       231.2220  -66.4190   37.8640 C.3    27  PHE27       0.1639
     38  C        230.0940  -65.4890   38.2940 C.2    27  PHE27       0.2290
     39  O        229.4070  -64.9390   37.4270 O.2    27  PHE27      -0.2864
     40  CB       230.6330  -67.6880   37.2410 C.3    27  PHE27       0.0560
     41  CG       230.0480  -68.6450   38.2460 C.ar   27  PHE27      -0.0200
     42  CD1      228.7720  -68.4480   38.7550 C.ar   27  PHE27      -0.0042
     43  CD2      230.7710  -69.7450   38.6770 C.ar   27  PHE27      -0.0042
     44  CE1      228.2330  -69.3260   39.6790 C.ar   27  PHE27      -0.0003
     45  CE2      230.2360  -70.6280   39.6000 C.ar   27  PHE27      -0.0003
     46  CZ       228.9650  -70.4180   40.1010 C.ar   27  PHE27      -0.0000
     47  N        225.3970  -70.8440   44.6680 N.3    44  LEU44      -0.1231
     48  CA       226.5800  -71.1820   43.8850 C.3    44  LEU44       0.1693
     49  C        226.3080  -72.3510   42.9500 C.2    44  LEU44       0.2592
     50  O        226.8340  -72.3900   41.8310 O.2    44  LEU44      -0.2718
     51  CB       227.7500  -71.4960   44.8200 C.3    44  LEU44       0.0284
     52  CG       229.0900  -71.8920   44.1950 C.3    44  LEU44       0.0019
     53  CD1      230.2350  -71.2550   44.9650 C.3    44  LEU44       0.0001
     54  CD2      229.2520  -73.4070   44.1620 C.3    44  LEU44       0.0001
     55  N        225.4800  -73.3020   43.3830 N.am   45  HIS45      -0.1976
     56  CA       225.1040  -74.4080   42.5150 C.3    45  HIS45       0.1656
     57  C        223.9450  -74.0390   41.6000 C.2    45  HIS45       0.2291
     58  O        223.8150  -74.6110   40.5120 O.2    45  HIS45      -0.2864
     59  CB       224.7350  -75.6330   43.3540 C.3    45  HIS45       0.0771
     60  CG       225.7710  -76.0090   44.3670 C.ar   45  HIS45       0.0820
     61  ND1      225.9850  -75.2830   45.5190 N.ar   45  HIS45      -0.2267
     62  CD2      226.6500  -77.0390   44.4040 C.ar   45  HIS45       0.1154
     63  CE1      226.9520  -75.8470   46.2210 C.ar   45  HIS45       0.1986
     64  NE2      227.3720  -76.9150   45.5660 N.ar   45  HIS45      -0.2212
     65  N        225.3390  -72.0620   38.5090 N.3    48  ALA48      -0.1231
     66  CA       226.5750  -72.6020   37.9490 C.3    48  ALA48       0.1694
     67  C        226.5690  -72.5310   36.4270 C.2    48  ALA48       0.2592
     68  O        227.5020  -71.9990   35.8150 O.2    48  ALA48      -0.2718
     69  CB       226.7810  -74.0400   38.4230 C.3    48  ALA48       0.0304
     70  N        225.5160  -73.0460   35.7990 N.am   49  HIS49      -0.1976
     71  CA       225.3840  -73.0230   34.3490 C.3    49  HIS49       0.1656
     72  C        224.5090  -71.8790   33.8540 C.2    49  HIS49       0.2291
     73  O        224.2480  -71.7900   32.6490 O.2    49  HIS49      -0.2864
     74  CB       224.8240  -74.3580   33.8530 C.3    49  HIS49       0.0771
     75  CG       225.5780  -75.5500   34.3550 C.ar   49  HIS49       0.0820
     76  ND1      225.0120  -76.8030   34.4490 N.ar   49  HIS49      -0.2267
     77  CD2      226.8530  -75.6800   34.7930 C.ar   49  HIS49       0.1154
     78  CE1      225.9060  -77.6540   34.9220 C.ar   49  HIS49       0.1986
     79  NE2      227.0300  -76.9970   35.1390 N.ar   49  HIS49      -0.2212
     80  N        224.5820  -69.0570   32.5300 N.3    51  PHE51      -0.1241
     81  CA       225.5730  -68.1960   31.8890 C.3    51  PHE51       0.1605
     82  C        225.0350  -66.7930   31.6260 C.2    51  PHE51       0.2264
     83  O        225.8190  -65.8400   31.5540 O.2    51  PHE51      -0.2867
     84  CB       226.0500  -68.8230   30.5770 C.3    51  PHE51       0.0534
     85  CG       226.7800  -70.1280   30.7530 C.ar   51  PHE51      -0.0203
     86  CD1      227.3720  -70.4540   31.9640 C.ar   51  PHE51      -0.0042
     87  CD2      226.8770  -71.0270   29.7010 C.ar   51  PHE51      -0.0042
     88  CE1      228.0430  -71.6550   32.1230 C.ar   51  PHE51      -0.0003
     89  CE2      227.5460  -72.2310   29.8540 C.ar   51  PHE51      -0.0003
     90  CZ       228.1310  -72.5440   31.0660 C.ar   51  PHE51      -0.0000
     91  N        225.6370  -64.5390   34.4860 N.3    54  GLN54      -0.1245
     92  CA       227.0600  -64.3480   34.7350 C.3    54  GLN54       0.1566
     93  C        227.6810  -63.2670   33.8630 C.2    54  GLN54       0.2260
     94  O        228.6180  -62.5950   34.3050 O.2    54  GLN54      -0.2867
     95  CB       227.8200  -65.6610   34.5150 C.3    54  GLN54       0.0367
     96  CG       227.3500  -66.8170   35.3850 C.3    54  GLN54       0.0905
     97  CD       228.0670  -68.1170   35.0650 C.2    54  GLN54       0.2608
     98  OE1      229.0910  -68.1230   34.3810 O.2    54  GLN54      -0.2717
     99  NE2      227.5320  -69.2260   35.5620 N.am   54  GLN54      -0.0878
    100  N        230.9320  -70.3560   26.0960 N.3    64  LYS64      -0.1245
    101  CA       230.7290  -71.2160   27.2560 C.3    64  LYS64       0.1561
    102  C        229.8140  -72.3840   26.9140 C.2    64  LYS64       0.2260
    103  O        230.0700  -73.5240   27.3170 O.2    64  LYS64      -0.2867
    104  CB       230.1500  -70.4080   28.4180 C.3    64  LYS64       0.0271
    105  CG       231.0320  -69.2770   28.9260 C.3    64  LYS64       0.0035
    106  CD       230.2410  -68.3430   29.8350 C.3    64  LYS64       0.0206
    107  CE       231.0670  -67.1490   30.2990 C.3    64  LYS64       0.1093
    108  NZ       232.0670  -67.5100   31.3430 N.3    64  LYS64      -0.1314
    109  N        231.7460  -75.0100   24.6460 N.3    67  SER67      -0.1202
    110  CA       232.6740  -75.8330   25.4160 C.3    67  SER67       0.2020
    111  C        231.9440  -76.7440   26.3980 C.2    67  SER67       0.2618
    112  O        232.3900  -77.8720   26.6420 O.2    67  SER67      -0.2717
    113  CB       233.6840  -74.9510   26.1470 C.3    67  SER67       0.2103
    114  OG       233.0420  -73.8430   26.7450 O.3    67  SER67      -0.2182
    115  N        230.8170  -76.2920   26.9550 N.am   68  ALA68      -0.1979
    116  CA       230.0320  -77.1580   27.8280 C.3    68  ALA68       0.1597
    117  C        229.4320  -78.3210   27.0500 C.2    68  ALA68       0.2287
    118  O        229.3420  -79.4420   27.5660 O.2    68  ALA68      -0.2864
    119  CB       228.9380  -76.3480   28.5190 C.3    68  ALA68       0.0319
    120  N        232.1630  -80.7790   26.7180 N.3    71  GLY71      -0.1210
    121  CA       232.3530  -81.4950   27.9710 C.3    71  GLY71       0.1956
    122  C        231.2940  -82.5570   28.2070 C.2    71  GLY71       0.2611
    123  O        231.6000  -83.6720   28.6420 O.2    71  GLY71      -0.2717
    124  N        230.0330  -82.2300   27.9150 N.am   72  HIS72      -0.1975
    125  CA       228.9640  -83.2110   28.0820 C.3    72  HIS72       0.1656
    126  C        229.1250  -84.3740   27.1120 C.2    72  HIS72       0.2291
    127  O        228.8220  -85.5230   27.4580 O.2    72  HIS72      -0.2864
    128  CB       227.5940  -82.5570   27.8990 C.3    72  HIS72       0.0771
    129  CG       226.4620  -83.5380   27.8780 C.ar   72  HIS72       0.0820
    130  ND1      226.0880  -84.2170   26.7380 N.ar   72  HIS72      -0.2267
    131  CD2      225.6360  -83.9690   28.8610 C.ar   72  HIS72       0.1154
    132  CE1      225.0780  -85.0210   27.0180 C.ar   72  HIS72       0.1986
    133  NE2      224.7820  -84.8870   28.2980 N.ar   72  HIS72      -0.2212
    134  N        231.5410  -86.6080   28.5820 N.3    75  VAL75      -0.1245
    135  CA       230.9430  -87.3810   29.6700 C.3    75  VAL75       0.1561
    136  C        230.1350  -88.5540   29.1210 C.2    75  VAL75       0.2260
    137  O        230.1960  -89.6740   29.6480 O.2    75  VAL75      -0.2867
    138  CB       230.0790  -86.4710   30.5610 C.3    75  VAL75       0.0252
    139  CG1      229.3430  -87.2950   31.6030 C.3    75  VAL75       0.0019
    140  CG2      230.9380  -85.4200   31.2310 C.3    75  VAL75       0.0019
    141  N        236.9090  -83.4890   25.1530 N.3   166  LEU166     -0.1245
    142  CA       237.3710  -82.6160   26.2280 C.3   166  LEU166      0.1561
    143  C        238.4260  -81.6360   25.7210 C.2   166  LEU166      0.2260
    144  O        238.3800  -80.4320   26.0210 O.2   166  LEU166     -0.2867
    145  CB       237.9170  -83.4650   27.3750 C.3   166  LEU166      0.0270
    146  CG       237.8420  -82.8510   28.7690 C.3   166  LEU166      0.0019
    147  CD1      236.4050  -82.4890   29.0980 C.3   166  LEU166      0.0001
    148  CD2      238.4020  -83.8180   29.7980 C.3   166  LEU166      0.0001
    149  N        239.4340  -71.6610   25.1280 N.3   174  HIS174     -0.1241
    150  CA       240.6480  -70.9420   25.5030 C.3   174  HIS174      0.1621
    151  C        241.5340  -70.5730   24.3250 C.2   174  HIS174      0.2264
    152  O        242.1250  -69.4910   24.3230 O.2   174  HIS174     -0.2867
    153  CB       241.4630  -71.7670   26.5030 C.3   174  HIS174      0.0745
    154  CG       240.8490  -71.8370   27.8650 C.ar  174  HIS174      0.0817
    155  ND1      241.1760  -70.9570   28.8740 N.ar  174  HIS174     -0.2268
    156  CD2      239.9220  -72.6770   28.3830 C.ar  174  HIS174      0.1154
    157  CE1      240.4810  -71.2550   29.9570 C.ar  174  HIS174      0.1986
    158  NE2      239.7110  -72.2930   29.6840 N.ar  174  HIS174     -0.2212
@<TRIPOS>BOND
     1   152   151    2
     2   151   150    1
     3   109   110    1
     4   149   150    1
     5   141   142    1
     6   110   113    1
     7   110   111    1
     8   150   153    1
     9   143   144    2
    10   143   142    1
    11   100   101    1
    12   113   114    1
    13   142   145    1
    14   111   112    2
    15   111   115   am
    16   153   154    1
    17   120   121    1
    18   130   132   ar
    19   130   129   ar
    20   102   101    1
    21   102   103    2
    22   115   116    1
    23   132   133   ar
    24   117   118    2
    25   117   116    1
    26   126   127    2
    27   126   125    1
    28   101   104    1
    29   145   146    1
    30   116   119    1
    31   154   156   ar
    32   154   155   ar
    33   129   128    1
    34   129   131   ar
    35   128   125    1
    36   124   125    1
    37   124   122   am
    38   121   122    1
    39   122   123    2
    40   133   131   ar
    41   156   158   ar
    42   104   105    1
    43   134   135    1
    44   146   147    1
    45   146   148    1
    46   155   157   ar
    47   105   106    1
    48   136   137    2
    49   136   135    1
    50   135   138    1
    51   158   157   ar
    52    87    89   ar
    53    87    85   ar
    54   106   107    1
    55    89    90   ar
    56   107   108    1
    57   138   140    1
    58   138   139    1
    59    84    85    1
    60    84    81    1
    61    85    86   ar
    62    90    88   ar
    63    83    82    2
    64    82    81    1
    65    81    80    1
    66    86    88   ar
    67    73    72    2
    68    74    71    1
    69    74    75    1
    70    72    71    1
    71    93    94    2
    72    93    92    1
    73    71    70    1
    74    75    76   ar
    75    75    77   ar
    76    98    97    2
    77    76    78   ar
    78    91    92    1
    79    95    92    1
    80    95    96    1
    81    77    79   ar
    82    78    79   ar
    83    97    96    1
    84    97    99   am
    85    70    67   am
    86    68    67    2
    87    12    14   ar
    88    12    10   ar
    89    67    66    1
    90    14    13   ar
    91     9    10   ar
    92     9     7   ar
    93    10     8   ar
    94    34    32   ar
    95    34    35   ar
    96    40    37    1
    97    40    41    1
    98    39    38    2
    99    32    31   ar
   100    35    33   ar
   101     7     6   ar
   102    37    38    1
   103    37    36    1
   104    66    69    1
   105    66    65    1
   106    13    11   ar
   107    41    43   ar
   108    41    42   ar
   109     8    11   ar
   110     8     6   ar
   111    43    45   ar
   112    42    44   ar
   113    31    33   ar
   114    31    30    1
   115     6     5    1
   116    36    28   am
   117    29    28    2
   118    28    27    1
   119    45    46   ar
   120    44    46   ar
   121    30    27    1
   122     1     2    1
   123     5     2    1
   124    27    26    1
   125    58    57    2
   126     2     3    1
   127    26    24   am
   128    57    56    1
   129    50    49    2
   130    24    25    2
   131    24    23    1
   132     3     4    2
   133    56    59    1
   134    56    55    1
   135    49    55   am
   136    49    48    1
   137    23    22    1
   138    22    17   am
   139    59    60    1
   140    48    47    1
   141    48    51    1
   142    54    52    1
   143    52    51    1
   144    52    53    1
   145    17    16    1
   146    17    18    2
   147    60    62   ar
   148    60    61   ar
   149    16    15    1
   150    16    19    1
   151    62    64   ar
   152    15    21    1
   153    19    20    1
   154    61    63   ar
   155    64    63   ar
   156    21    20    1
