@<TRIPOS>MOLECULE
tmp/5oy0B44.pdb
 120 118 0 0 0
SMALL
GASTEIGER

@<TRIPOS>ATOM
      1  N        202.1710  -95.7990  -38.9460 N.3   228  GLY228     -0.1210
      2  CA       201.4690  -95.3880  -40.1450 C.3   228  GLY228      0.1956
      3  C        200.0720  -95.9470  -40.3280 C.2   228  GLY228      0.2612
      4  O        199.0990  -95.1890  -40.3680 O.2   228  GLY228     -0.2717
      5  N        199.9590  -97.2690  -40.4430 N.am  229  ASN229     -0.1960
      6  CA       198.7010  -97.8860  -40.8490 C.3   229  ASN229      0.1819
      7  C        197.6870  -97.8390  -39.7100 C.2   229  ASN229      0.2621
      8  O        197.9390  -98.3560  -38.6160 O.2   229  ASN229     -0.2715
      9  CB       198.9370  -99.3250  -41.3000 C.3   229  ASN229      0.1195
     10  CG       197.7770  -99.8830  -42.1080 C.2   229  ASN229      0.2630
     11  OD1      196.6100  -99.6930  -41.7600 O.2   229  ASN229     -0.2716
     12  ND2      198.0950 -100.5670  -43.2000 N.am  229  ASN229     -0.0877
     13  N        196.5360  -97.2260  -39.9790 N.am  230  TRP230     -0.1960
     14  CA       195.4370  -97.1640  -39.0280 C.3   230  TRP230      0.1771
     15  C        194.3290  -98.1620  -39.3320 C.2   230  TRP230      0.2620
     16  O        193.4150  -98.3110  -38.5140 O.2   230  TRP230     -0.2715
     17  CB       194.8530  -95.7480  -38.9900 C.3   230  TRP230      0.0590
     18  CG       195.7700  -94.7490  -38.3560 C.ar  230  TRP230      0.0006
     19  CD1      196.9160  -95.0130  -37.6620 C.ar  230  TRP230      0.0946
     20  CD2      195.6200  -93.3240  -38.3550 C.ar  230  TRP230      0.0152
     21  NE1      197.4870  -93.8410  -37.2290 N.ar  230  TRP230     -0.2442
     22  CE2      196.7110  -92.7900  -37.6420 C.ar  230  TRP230      0.0810
     23  CE3      194.6690  -92.4480  -38.8900 C.ar  230  TRP230      0.0012
     24  CZ2      196.8770  -91.4200  -37.4470 C.ar  230  TRP230      0.0191
     25  CZ3      194.8360  -91.0870  -38.6950 C.ar  230  TRP230      0.0001
     26  CH2      195.9310  -90.5870  -37.9790 C.ar  230  TRP230      0.0015
     27  N        194.3840  -98.8430  -40.4780 N.am  231  GLY231     -0.1954
     28  CA       193.3960  -99.8610  -40.7890 C.3   231  GLY231      0.1869
     29  C        193.3550 -100.9960  -39.7890 C.2   231  GLY231      0.2309
     30  O        192.3280 -101.6740  -39.6730 O.2   231  GLY231     -0.2863
     31  N        190.6670 -100.6440  -37.5130 N.3   234  ALA234     -0.1231
     32  CA       189.3850 -101.1050  -38.0290 C.3   234  ALA234      0.1694
     33  C        189.2360 -102.6180  -37.9500 C.2   234  ALA234      0.2591
     34  O        188.1030 -103.1110  -37.9330 O.2   234  ALA234     -0.2718
     35  CB       189.1950 -100.6450  -39.4770 C.3   234  ALA234      0.0304
     36  N        190.3570 -103.3500  -37.9340 N.am  235  ALA235     -0.1980
     37  CA       190.4500 -104.7580  -37.5500 C.3   235  ALA235      0.1597
     38  C        189.2660 -105.6160  -37.9730 C.2   235  ALA235      0.2287
     39  O        188.8350 -105.5830  -39.1300 O.2   235  ALA235     -0.2864
     40  CB       190.6210 -104.8700  -36.0320 C.3   235  ALA235      0.0319
     41  N        185.5520 -105.7700  -37.1260 N.3   237  PRO237     -0.2116
     42  CA       184.4300 -105.1430  -36.4250 C.3   237  PRO237      0.1372
     43  C        183.4490 -106.1930  -35.9310 C.2   237  PRO237      0.2244
     44  O        183.3930 -107.3170  -36.4360 O.2   237  PRO237     -0.2868
     45  CB       183.8000 -104.2480  -37.4950 C.3   237  PRO237      0.0268
     46  CG       184.1510 -104.9180  -38.7830 C.3   237  PRO237      0.0207
     47  CD       185.5150 -105.5130  -38.5760 C.3   237  PRO237      0.0892
     48  N        181.0280  -98.4570  -40.2950 N.3   258  LEU258     -0.1245
     49  CA       180.0930  -99.3360  -40.9790 C.3   258  LEU258      0.1561
     50  C        178.6560  -98.8440  -40.9110 C.2   258  LEU258      0.2260
     51  O        177.7800  -99.4580  -41.5290 O.2   258  LEU258     -0.2867
     52  CB       180.1900 -100.7570  -40.4150 C.3   258  LEU258      0.0270
     53  CG       180.0330 -100.9810  -38.9140 C.3   258  LEU258      0.0019
     54  CD1      178.8910 -101.9290  -38.6920 C.3   258  LEU258      0.0001
     55  CD2      181.3030 -101.5640  -38.3310 C.3   258  LEU258      0.0001
     56  N        189.4470  -83.9050  -33.5530 N.3   282  VAL282     -0.1231
     57  CA       190.5110  -83.3390  -34.3800 C.3   282  VAL282      0.1692
     58  C        190.0360  -82.0510  -35.0420 C.2   282  VAL282      0.2591
     59  O        190.7500  -81.0370  -35.0540 O.2   282  VAL282     -0.2718
     60  CB       190.9910  -84.3660  -35.4240 C.3   282  VAL282      0.0266
     61  CG1      192.1570  -83.8040  -36.2220 C.3   282  VAL282      0.0020
     62  CG2      191.3800  -85.6710  -34.7540 C.3   282  VAL282      0.0020
     63  N        188.8130  -82.0630  -35.5790 N.am  283  ILE283     -0.1980
     64  CA       188.3150  -80.8910  -36.2990 C.3   283  ILE283      0.1595
     65  C        188.1400  -79.7030  -35.3560 C.2   283  ILE283      0.2287
     66  O        188.5050  -78.5710  -35.6950 O.2   283  ILE283     -0.2864
     67  CB       187.0070  -81.2210  -37.0410 C.3   283  ILE283      0.0276
     68  CG1      187.2180  -82.3890  -38.0050 C.3   283  ILE283      0.0022
     69  CG2      186.5130  -80.0020  -37.8080 C.3   283  ILE283      0.0022
     70  CD1      185.9830  -82.7600  -38.7910 C.3   283  ILE283      0.0001
     71  N        191.5220  -78.2530  -34.3970 N.3   286  ILE286     -0.1245
     72  CA       192.0210  -77.4040  -35.4770 C.3   286  ILE286      0.1561
     73  C        191.2650  -76.0800  -35.5100 C.2   286  ILE286      0.2260
     74  O        191.8540  -75.0170  -35.7390 O.2   286  ILE286     -0.2867
     75  CB       191.9370  -78.1430  -36.8250 C.3   286  ILE286      0.0252
     76  CG1      192.8050  -79.4010  -36.7930 C.3   286  ILE286      0.0019
     77  CG2      192.3700  -77.2300  -37.9580 C.3   286  ILE286      0.0019
     78  CD1      192.7820  -80.1960  -38.0810 C.3   286  ILE286      0.0001
     79  N        181.1190  -95.5880  -54.7750 N.3   486  THR486     -0.1203
     80  CA       182.2870  -94.9580  -54.1750 C.3   486  THR486      0.1994
     81  C        183.1370  -95.9160  -53.3540 C.2   486  THR486      0.2618
     82  O        184.3180  -95.6290  -53.1260 O.2   486  THR486     -0.2717
     83  CB       181.8670  -93.7900  -53.2720 C.3   486  THR486      0.1784
     84  OG1      181.0620  -94.2810  -52.1940 O.3   486  THR486     -0.2211
     85  CG2      181.0790  -92.7610  -54.0530 C.3   486  THR486      0.0376
     86  N        182.5750  -97.0360  -52.9100 N.am  487  GLY487     -0.1942
     87  CA       183.2870  -97.9010  -51.9930 C.3   487  GLY487      0.2014
     88  C        183.3330  -97.3790  -50.5760 C.2   487  GLY487      0.2639
     89  O        184.2800  -97.6810  -49.8420 O.2   487  GLY487     -0.2714
     90  N        182.3380  -96.5910  -50.1730 N.am  488  ALA488     -0.1963
     91  CA       182.2910  -96.0650  -48.8160 C.3   488  ALA488      0.1728
     92  C        181.9220  -97.1710  -47.8380 C.2   488  ALA488      0.2616
     93  O        180.9840  -97.9380  -48.0750 O.2   488  ALA488     -0.2715
     94  CB       181.2860  -94.9190  -48.7250 C.3   488  ALA488      0.0334
     95  N        182.6600  -97.2460  -46.7280 N.am  489  ALA489     -0.1963
     96  CA       182.4800  -98.3230  -45.7620 C.3   489  ALA489      0.1728
     97  C        181.1510  -98.2500  -45.0230 C.2   489  ALA489      0.2616
     98  O        180.8330  -99.1720  -44.2660 O.2   489  ALA489     -0.2715
     99  CB       183.6320  -98.3160  -44.7540 C.3   489  ALA489      0.0334
    100  N        180.3700  -97.1900  -45.2210 N.am  490  TRP490     -0.1974
    101  CA       179.1090  -97.0210  -44.5170 C.3   490  TRP490      0.1640
    102  C        177.8850  -97.2960  -45.3720 C.2   490  TRP490      0.2290
    103  O        176.7970  -97.4710  -44.8160 O.2   490  TRP490     -0.2864
    104  CB       179.0040  -95.5960  -43.9590 C.3   490  TRP490      0.0576
    105  CG       179.0420  -94.5270  -45.0220 C.ar  490  TRP490      0.0006
    106  CD1      178.0100  -94.1290  -45.8280 C.ar  490  TRP490      0.0946
    107  CD2      180.1620  -93.7090  -45.3760 C.ar  490  TRP490      0.0152
    108  NE1      178.4240  -93.1220  -46.6650 N.ar  490  TRP490     -0.2442
    109  CE2      179.7410  -92.8450  -46.4080 C.ar  490  TRP490      0.0810
    110  CE3      181.4820  -93.6280  -44.9270 C.ar  490  TRP490      0.0012
    111  CZ2      180.5930  -91.9130  -46.9940 C.ar  490  TRP490      0.0191
    112  CZ3      182.3260  -92.7010  -45.5080 C.ar  490  TRP490      0.0001
    113  CH2      181.8790  -91.8560  -46.5310 C.ar  490  TRP490      0.0015
    114  N        176.6870  -99.9280  -47.2200 N.3   492  PRO492     -0.2116
    115  CA       175.8580 -101.1280  -46.9910 C.3   492  PRO492      0.1372
    116  C        175.0430 -101.0660  -45.7100 C.2   492  PRO492      0.2244
    117  O        173.8400 -101.3600  -45.7340 O.2   492  PRO492     -0.2868
    118  CB       176.8900 -102.2680  -46.9740 C.3   492  PRO492      0.0268
    119  CG       178.2020 -101.6100  -46.7350 C.3   492  PRO492      0.0207
    120  CD       178.1050 -100.2830  -47.4040 C.3   492  PRO492      0.0892
@<TRIPOS>BOND
     1    79    80    1
     2    80    81    1
     3    80    83    1
     4    85    83    1
     5    81    82    2
     6    81    86   am
     7    83    84    1
     8    86    87    1
     9    87    88    1
    10    88    90   am
    11    88    89    2
    12    90    91    1
    13    91    94    1
    14    91    92    1
    15    93    92    2
    16    92    95   am
    17   120   114    1
    18   120   119    1
    19   114   115    1
    20   111   113   ar
    21   111   109   ar
    22   115   118    1
    23   115   116    1
    24   118   119    1
    25    95    96    1
    26   108   109   ar
    27   108   106   ar
    28   113   112   ar
    29   109   107   ar
    30   106   105   ar
    31    96    97    1
    32    96    99    1
    33   117   116    2
    34   112   110   ar
    35   107   105   ar
    36   107   110   ar
    37   102   103    2
    38   102   101    1
    39   100    97   am
    40   100   101    1
    41    97    98    2
    42   105   104    1
    43   101   104    1
    44    12    10   am
    45    10    11    2
    46    10     9    1
    47    51    50    2
    48     9     6    1
    49    49    50    1
    50    49    52    1
    51    49    48    1
    52     6     5    1
    53     6     7    1
    54    28    27    1
    55    28    29    1
    56    27    15   am
    57     5     3   am
    58    52    53    1
    59     4     3    2
    60     3     2    1
    61     2     1    1
    62    13     7   am
    63    13    14    1
    64    29    30    2
    65     7     8    2
    66    35    32    1
    67    15    14    1
    68    15    16    2
    69    39    38    2
    70    14    17    1
    71    17    18    1
    72    53    54    1
    73    53    55    1
    74    23    25   ar
    75    23    20   ar
    76    70    68    1
    77    46    47    1
    78    46    45    1
    79    25    26   ar
    80    47    41    1
    81    18    20   ar
    82    18    19   ar
    83    20    22   ar
    84    78    76    1
    85    32    33    1
    86    32    31    1
    87    68    67    1
    88    26    24   ar
    89    38    37    1
    90    77    75    1
    91    33    36   am
    92    33    34    2
    93    36    37    1
    94    69    67    1
    95    19    21   ar
    96    22    24   ar
    97    22    21   ar
    98    37    40    1
    99    45    42    1
   100    41    42    1
   101    67    64    1
   102    75    76    1
   103    75    72    1
   104    44    43    2
   105    42    43    1
   106    64    63    1
   107    64    65    1
   108    61    60    1
   109    74    73    2
   110    66    65    2
   111    63    58   am
   112    73    72    1
   113    72    71    1
   114    60    62    1
   115    60    57    1
   116    59    58    2
   117    58    57    1
   118    57    56    1
