@<TRIPOS>MOLECULE
tmp/5oy0W39.pdb
 132 128 0 0 0
SMALL
GASTEIGER

@<TRIPOS>ATOM
      1  N        186.7280  -81.1660   31.1560 N.3   439  PHE439     -0.1227
      2  CA       185.8490  -82.0860   30.4420 C.3   439  PHE439      0.1736
      3  C        186.4710  -83.4710   30.3400 C.2   439  PHE439      0.2595
      4  O        185.7750  -84.4830   30.4830 O.2   439  PHE439     -0.2718
      5  CB       185.5190  -81.5440   29.0460 C.3   439  PHE439      0.0547
      6  CG       184.8960  -82.5700   28.1420 C.ar  439  PHE439     -0.0202
      7  CD1      183.5410  -82.8500   28.2180 C.ar  439  PHE439     -0.0042
      8  CD2      185.6670  -83.2760   27.2330 C.ar  439  PHE439     -0.0042
      9  CE1      182.9660  -83.8060   27.3980 C.ar  439  PHE439     -0.0003
     10  CE2      185.0970  -84.2370   26.4150 C.ar  439  PHE439     -0.0003
     11  CZ       183.7460  -84.5000   26.4960 C.ar  439  PHE439     -0.0000
     12  N        187.7800  -83.5390   30.0870 N.am  440  LEU440     -0.1980
     13  CA       188.4550  -84.8310   30.0280 C.3   440  LEU440      0.1596
     14  C        188.4810  -85.5000   31.3980 C.2   440  LEU440      0.2287
     15  O        188.1810  -86.6930   31.5220 O.2   440  LEU440     -0.2864
     16  CB       189.8710  -84.6550   29.4770 C.3   440  LEU440      0.0297
     17  CG       189.9760  -84.3990   27.9720 C.3   440  LEU440      0.0022
     18  CD1      191.3800  -83.9350   27.6030 C.3   440  LEU440      0.0001
     19  CD2      189.5920  -85.6500   27.1830 C.3   440  LEU440      0.0001
     20  N        185.2460  -86.9120   32.1310 N.3   443  HIS443     -0.1241
     21  CA       184.8630  -87.9520   31.1840 C.3   443  HIS443      0.1621
     22  C        185.9170  -89.0370   31.0180 C.2   443  HIS443      0.2264
     23  O        185.8190  -89.8440   30.0890 O.2   443  HIS443     -0.2867
     24  CB       184.5360  -87.3280   29.8290 C.3   443  HIS443      0.0745
     25  CG       183.3190  -86.4620   29.8570 C.ar  443  HIS443      0.0817
     26  ND1      183.2530  -85.2990   30.5950 N.ar  443  HIS443     -0.2268
     27  CD2      182.1110  -86.6040   29.2660 C.ar  443  HIS443      0.1154
     28  CE1      182.0580  -84.7560   30.4480 C.ar  443  HIS443      0.1986
     29  NE2      181.3490  -85.5250   29.6420 N.ar  443  HIS443     -0.2212
     30  N        184.4410  -91.6710   34.6880 N.3   447  LEU447     -0.1245
     31  CA       183.9160  -92.9490   34.2160 C.3   447  LEU447      0.1561
     32  C        184.3970  -94.0950   35.0990 C.2   447  LEU447      0.2260
     33  O        183.6240  -95.0070   35.4270 O.2   447  LEU447     -0.2867
     34  CB       184.3250  -93.1740   32.7600 C.3   447  LEU447      0.0270
     35  CG       183.8290  -92.1530   31.7280 C.3   447  LEU447      0.0019
     36  CD1      184.2360  -92.5590   30.3170 C.3   447  LEU447      0.0001
     37  CD2      182.3200  -91.9790   31.8080 C.3   447  LEU447      0.0001
     38  N        175.7420 -104.5170   35.3480 N.3   461  GLN461     -0.1245
     39  CA       175.1800 -104.1590   34.0520 C.3   461  GLN461      0.1566
     40  C        175.1360 -102.6510   33.8240 C.2   461  GLN461      0.2260
     41  O        174.9590 -102.2230   32.6790 O.2   461  GLN461     -0.2867
     42  CB       173.7750 -104.7580   33.9080 C.3   461  GLN461      0.0367
     43  CG       172.6820 -104.0580   34.7160 C.3   461  GLN461      0.0905
     44  CD       172.8070 -104.2700   36.2170 C.2   461  GLN461      0.2608
     45  OE1      173.6780 -105.0050   36.6860 O.2   461  GLN461     -0.2717
     46  NE2      171.9310 -103.6210   36.9800 N.am  461  GLN461     -0.0878
     47  N        180.6640  -99.2720   32.6680 N.3   464  PHE464     -0.1241
     48  CA       181.2720  -99.0000   31.3660 C.3   464  PHE464      0.1605
     49  C        182.2880 -100.1090   31.1050 C.2   464  PHE464      0.2264
     50  O        183.4770  -99.9710   31.3930 O.2   464  PHE464     -0.2867
     51  CB       181.9170  -97.6170   31.3310 C.3   464  PHE464      0.0534
     52  CG       180.9280  -96.4830   31.3030 C.ar  464  PHE464     -0.0203
     53  CD1      180.0830  -96.3100   30.2180 C.ar  464  PHE464     -0.0042
     54  CD2      180.8580  -95.5790   32.3510 C.ar  464  PHE464     -0.0042
     55  CE1      179.1760  -95.2650   30.1870 C.ar  464  PHE464     -0.0003
     56  CE2      179.9540  -94.5320   32.3260 C.ar  464  PHE464     -0.0003
     57  CZ       179.1130  -94.3740   31.2430 C.ar  464  PHE464     -0.0000
     58  N        181.1340 -105.8160   28.5620 N.3   467  THR467     -0.1203
     59  CA       179.9710 -106.6630   28.7820 C.3   467  THR467      0.1994
     60  C        178.7260 -105.8850   29.1790 C.2   467  THR467      0.2618
     61  O        177.6480 -106.4830   29.2680 O.2   467  THR467     -0.2717
     62  CB       180.2730 -107.7090   29.8620 C.3   467  THR467      0.1784
     63  OG1      180.3570 -107.0660   31.1410 O.3   467  THR467     -0.2211
     64  CG2      181.5880 -108.4060   29.5640 C.3   467  THR467      0.0376
     65  N        178.8420 -104.5810   29.4260 N.am  468  ALA468     -0.1965
     66  CA       177.6820 -103.7630   29.7550 C.3   468  ALA468      0.1728
     67  C        177.5310 -102.6140   28.7660 C.2   468  ALA468      0.2616
     68  O        177.1570 -102.8260   27.6080 O.2   468  ALA468     -0.2715
     69  CB       177.7890 -103.2270   31.1840 C.3   468  ALA468      0.0334
     70  N        177.8180 -101.3940   29.2110 N.am  469  ILE469     -0.1963
     71  CA       177.7320 -100.2150   28.3590 C.3   469  ILE469      0.1727
     72  C        179.1050 -100.0310   27.7210 C.2   469  ILE469      0.2616
     73  O        180.0320  -99.5050   28.3410 O.2   469  ILE469     -0.2715
     74  CB       177.2880  -98.9830   29.1460 C.3   469  ILE469      0.0290
     75  CG1      175.9030  -99.2320   29.7480 C.3   469  ILE469      0.0022
     76  CG2      177.2860  -97.7530   28.2540 C.3   469  ILE469      0.0023
     77  CD1      175.4530  -98.1630   30.7120 C.3   469  ILE469      0.0001
     78  N        179.2310 -100.4660   26.4700 N.am  470  GLN470     -0.1963
     79  CA       180.5260 -100.5540   25.8130 C.3   470  GLN470      0.1733
     80  C        181.0150  -99.1900   25.3450 C.2   470  GLN470      0.2616
     81  O        180.2330  -98.3530   24.8860 O.2   470  GLN470     -0.2715
     82  CB       180.4480 -101.5060   24.6200 C.3   470  GLN470      0.0408
     83  CG       179.8910 -102.8740   24.9580 C.3   470  GLN470      0.0908
     84  CD       179.9980 -103.8500   23.8020 C.2   470  GLN470      0.2608
     85  OE1      180.7500 -103.6300   22.8510 O.2   470  GLN470     -0.2717
     86  NE2      179.2420 -104.9380   23.8780 N.am  470  GLN470     -0.0878
     87  N        182.3190  -98.9750   25.4580 N.am  471  LEU471     -0.1963
     88  CA       182.9850  -97.8030   24.8990 C.3   471  LEU471      0.1728
     89  C        184.0320  -98.2920   23.9020 C.2   471  LEU471      0.2616
     90  O        185.2370  -98.1750   24.1350 O.2   471  LEU471     -0.2715
     91  CB       183.6090  -96.9390   26.0060 C.3   471  LEU471      0.0311
     92  CG       182.6510  -96.4220   27.0810 C.3   471  LEU471      0.0022
     93  CD1      183.3750  -95.5050   28.0540 C.3   471  LEU471      0.0001
     94  CD2      181.4620  -95.7090   26.4480 C.3   471  LEU471      0.0001
     95  N        183.5650  -98.8500   22.7950 N.am  472  GLN472     -0.1977
     96  CA       184.4630  -99.4540   21.8210 C.3   472  GLN472      0.1601
     97  C        185.2860  -98.3860   21.1150 C.2   472  GLN472      0.2287
     98  O        184.7080  -97.4780   20.5040 O.2   472  GLN472     -0.2864
     99  CB       183.6700 -100.2680   20.8040 C.3   472  GLN472      0.0394
    100  CG       182.9920 -101.4950   21.3880 C.3   472  GLN472      0.0908
    101  CD       183.9690 -102.4410   22.0670 C.2   472  GLN472      0.2608
    102  OE1      185.1150 -102.5890   21.6380 O.2   472  GLN472     -0.2717
    103  NE2      183.5180 -103.0850   23.1350 N.am  472  GLN472     -0.0878
    104  N        186.3260  -97.4680   18.2210 N.3   474  ILE474     -0.1245
    105  CA       186.0640  -97.9080   16.8540 C.3   474  ILE474      0.1561
    106  C        187.1630  -97.4370   15.9080 C.2   474  ILE474      0.2260
    107  O        187.5940  -98.1790   15.0160 O.2   474  ILE474     -0.2867
    108  CB       184.6720  -97.4160   16.4110 C.3   474  ILE474      0.0252
    109  CG1      183.5790  -98.2800   17.0440 C.3   474  ILE474      0.0019
    110  CG2      184.5500  -97.3950   14.9010 C.3   474  ILE474      0.0019
    111  CD1      182.1810  -97.9020   16.6150 C.3   474  ILE474      0.0001
    112  N        189.9210  -97.6620   25.7670 N.3   525  PHE525     -0.1241
    113  CA       189.3160  -96.3490   25.5540 C.3   525  PHE525      0.1605
    114  C        189.4570  -95.4740   26.7960 C.2   525  PHE525      0.2264
    115  O        189.9000  -94.3160   26.7220 O.2   525  PHE525     -0.2867
    116  CB       187.8440  -96.5510   25.1800 C.3   525  PHE525      0.0534
    117  CG       187.0790  -95.2830   24.9370 C.ar  525  PHE525     -0.0203
    118  CD1      187.0350  -94.7200   23.6740 C.ar  525  PHE525     -0.0042
    119  CD2      186.3640  -94.6790   25.9610 C.ar  525  PHE525     -0.0042
    120  CE1      186.3160  -93.5680   23.4410 C.ar  525  PHE525     -0.0003
    121  CE2      185.6450  -93.5230   25.7350 C.ar  525  PHE525     -0.0003
    122  CZ       185.6210  -92.9660   24.4730 C.ar  525  PHE525     -0.0000
    123  N        191.8010  -92.0640   27.2740 N.3   529  HIS529     -0.1241
    124  CA       191.2580  -90.7660   27.6590 C.3   529  HIS529      0.1621
    125  C        191.8850  -90.2470   28.9460 C.2   529  HIS529      0.2264
    126  O        192.0480  -89.0320   29.1030 O.2   529  HIS529     -0.2867
    127  CB       189.7420  -90.8430   27.7700 C.3   529  HIS529      0.0745
    128  CG       189.0590  -90.8150   26.4430 C.ar  529  HIS529      0.0817
    129  ND1      189.3810  -91.6890   25.4270 N.ar  529  HIS529     -0.2268
    130  CD2      188.1020  -89.9990   25.9490 C.ar  529  HIS529      0.1154
    131  CE1      188.6370  -91.4240   24.3700 C.ar  529  HIS529      0.1986
    132  NE2      187.8480  -90.4050   24.6620 N.ar  529  HIS529     -0.2212
@<TRIPOS>BOND
     1   110   108    1
     2   107   106    2
     3   106   105    1
     4   108   105    1
     5   108   109    1
     6   111   109    1
     7   105   104    1
     8    98    97    2
     9    99   100    1
    10    99    96    1
    11    97    96    1
    12   100   101    1
    13   102   101    2
    14    96    95    1
    15   101   103   am
    16    95    89   am
    17    85    84    2
    18   120   118   ar
    19   120   122   ar
    20   118   117   ar
    21    84    86   am
    22    84    83    1
    23    89    90    2
    24    89    88    1
    25   131   132   ar
    26   131   129   ar
    27   122   121   ar
    28    82    83    1
    29    82    79    1
    30   132   130   ar
    31    81    80    2
    32    88    87    1
    33    88    91    1
    34   117   116    1
    35   117   119   ar
    36   116   113    1
    37    80    87   am
    38    80    79    1
    39   129   128   ar
    40   113   112    1
    41   113   114    1
    42   121   119   ar
    43    79    78    1
    44   130   128   ar
    45    91    92    1
    46    10    11   ar
    47    10     8   ar
    48   128   127    1
    49    94    92    1
    50    78    72   am
    51    11     9   ar
    52   115   114    2
    53    92    93    1
    54    19    17    1
    55     8     6   ar
    56   123   124    1
    57     9     7   ar
    58    18    17    1
    59    68    67    2
    60   124   127    1
    61   124   125    1
    62    72    73    2
    63    72    71    1
    64    17    16    1
    65     6     7   ar
    66     6     5    1
    67    76    74    1
    68    71    74    1
    69    71    70    1
    70    58    59    1
    71    67    70   am
    72    67    66    1
    73    59    60    1
    74    59    62    1
    75   125   126    2
    76     5     2    1
    77    74    75    1
    78    60    61    2
    79    60    65   am
    80    27    29   ar
    81    27    25   ar
    82    65    66    1
    83    16    13    1
    84    64    62    1
    85    29    28   ar
    86    75    77    1
    87    66    69    1
    88    24    25    1
    89    24    21    1
    90    25    26   ar
    91    62    63    1
    92    13    12    1
    93    13    14    1
    94    12     3   am
    95    23    22    2
    96    55    53   ar
    97    55    57   ar
    98    53    52   ar
    99    36    35    1
   100     3     2    1
   101     3     4    2
   102     2     1    1
   103    28    26   ar
   104    22    21    1
   105    49    48    1
   106    49    50    2
   107    21    20    1
   108    57    56   ar
   109    52    51    1
   110    52    54   ar
   111    51    48    1
   112    48    47    1
   113    14    15    2
   114    35    37    1
   115    35    34    1
   116    56    54   ar
   117    41    40    2
   118    34    31    1
   119    40    39    1
   120    42    39    1
   121    42    43    1
   122    39    38    1
   123    31    30    1
   124    31    32    1
   125    43    44    1
   126    32    33    2
   127    44    45    2
   128    44    46   am
