@<TRIPOS>MOLECULE
tmp/5oy3A00.pdb
 124 116 0 0 0
SMALL
GASTEIGER

@<TRIPOS>ATOM
      1  N         71.1600  -17.9670   26.6500 N.3   140  PHE140     -0.1241
      2  CA        71.6600  -17.5570   25.3380 C.3   140  PHE140      0.1605
      3  C         72.8910  -18.4080   25.0480 C.2   140  PHE140      0.2264
      4  O         73.8930  -18.3020   25.7560 O.2   140  PHE140     -0.2867
      5  CB        72.0160  -16.0570   25.3940 C.3   140  PHE140      0.0534
      6  CG        72.7000  -15.4880   24.1770 C.ar  140  PHE140     -0.0203
      7  CD1       72.7690  -16.1510   22.9810 C.ar  140  PHE140     -0.0042
      8  CD2       73.2710  -14.2240   24.2600 C.ar  140  PHE140     -0.0042
      9  CE1       73.4020  -15.5620   21.8710 C.ar  140  PHE140     -0.0003
     10  CE2       73.8810  -13.6380   23.1790 C.ar  140  PHE140     -0.0003
     11  CZ        73.9450  -14.3060   21.9760 C.ar  140  PHE140     -0.0000
     12  N         75.2740  -18.1580   17.1510 N.3   191  TYR191     -0.1241
     13  CA        74.5530  -17.5870   18.2920 C.3   191  TYR191      0.1605
     14  C         73.1440  -18.1540   18.2370 C.2   191  TYR191      0.2264
     15  O         72.4100  -17.9020   17.2760 O.2   191  TYR191     -0.2867
     16  CB        74.5580  -16.0430   18.2330 C.3   191  TYR191      0.0534
     17  CG        75.9620  -15.4550   18.2160 C.ar  191  TYR191     -0.0201
     18  CD1       76.6900  -15.4340   17.0430 C.ar  191  TYR191     -0.0009
     19  CD2       76.5730  -14.9290   19.3820 C.ar  191  TYR191     -0.0009
     20  CE1       77.9770  -14.9160   16.9920 C.ar  191  TYR191      0.0417
     21  CE2       77.8910  -14.4090   19.3430 C.ar  191  TYR191      0.0417
     22  CZ        78.5870  -14.4060   18.1380 C.ar  191  TYR191      0.1957
     23  OH        79.8870  -13.9230   18.0110 O.3   191  TYR191     -0.2866
     24  N         69.5160  -18.2470   20.0830 N.3   193  LYS193     -0.1245
     25  CA        68.8600  -17.2320   20.8940 C.3   193  LYS193      0.1561
     26  C         67.4030  -17.5750   21.2100 C.2   193  LYS193      0.2260
     27  O         66.7070  -18.2190   20.4220 O.2   193  LYS193     -0.2867
     28  CB        68.8950  -15.8720   20.1860 C.3   193  LYS193      0.0271
     29  CG        70.3410  -15.4070   19.8620 C.3   193  LYS193      0.0035
     30  CD        70.3340  -14.0500   19.2610 C.3   193  LYS193      0.0206
     31  CE        71.7330  -13.6130   18.8830 C.3   193  LYS193      0.1093
     32  NZ        71.6780  -12.4640   18.0490 N.3   193  LYS193     -0.1314
     33  N         73.7120   -9.4950   23.4410 N.3   199  THR199     -0.1218
     34  CA        75.1460   -9.2810   23.3110 C.3   199  THR199      0.1862
     35  C         75.4000   -7.8280   23.7230 C.2   199  THR199      0.2287
     36  O         74.9770   -6.9160   23.0070 O.2   199  THR199     -0.2866
     37  CB        75.6330   -9.5510   21.8840 C.3   199  THR199      0.1770
     38  OG1       75.4130  -10.9260   21.5360 O.3   199  THR199     -0.2211
     39  CG2       77.1470   -9.2450   21.7520 C.3   199  THR199      0.0375
     40  N         79.9330   -3.1910   22.9010 N.3   202  HIS202     -0.1241
     41  CA        81.3430   -3.3890   22.5780 C.3   202  HIS202      0.1621
     42  C         81.7000   -2.7420   21.2480 C.2   202  HIS202      0.2264
     43  O         80.8420   -2.4340   20.4090 O.2   202  HIS202     -0.2867
     44  CB        81.7120   -4.8690   22.5090 C.3   202  HIS202      0.0745
     45  CG        80.9520   -5.6250   21.4600 C.ar  202  HIS202      0.0817
     46  ND1       79.6010   -5.8460   21.5640 N.ar  202  HIS202     -0.2268
     47  CD2       81.3330   -6.1810   20.2810 C.ar  202  HIS202      0.1154
     48  CE1       79.1800   -6.5240   20.5080 C.ar  202  HIS202      0.1986
     49  NE2       80.2120   -6.7450   19.7170 N.ar  202  HIS202     -0.2212
     50  N         84.4510   -4.2520   18.3210 N.3   204  GLU204     -0.1245
     51  CA        85.0810   -5.5300   18.0210 C.3   204  GLU204      0.1567
     52  C         86.5120   -5.5360   18.5320 C.2   204  GLU204      0.2260
     53  O         87.1130   -4.4890   18.7740 O.2   204  GLU204     -0.2867
     54  CB        85.0870   -5.8080   16.5150 C.3   204  GLU204      0.0388
     55  CG        83.6980   -5.8930   15.9010 C.3   204  GLU204      0.1160
     56  CD        82.8490   -6.9800   16.5240 C.2   204  GLU204      0.3649
     57  OE1       83.2300   -8.1950   16.4450 O.co2 204  GLU204     -0.2457
     58  OE2       81.8000   -6.6130   17.0970 O.co2 204  GLU204     -0.2457
     59  N         82.7240   -6.3160   11.2940 N.3   210  SER210     -0.1217
     60  CA        81.9910   -7.5210   11.6180 C.3   210  SER210      0.1889
     61  C         80.8780   -7.7440   10.6070 C.2   210  SER210      0.2288
     62  O         80.2780   -6.7920   10.1060 O.2   210  SER210     -0.2866
     63  CB        81.3930   -7.4460   13.0240 C.3   210  SER210      0.2089
     64  OG        80.6960   -8.6310   13.2290 O.3   210  SER210     -0.2183
     65  N         77.3600  -10.1830   10.2330 N.3   212  ASN212     -0.1240
     66  CA        76.3830  -10.9540   10.9990 C.3   212  ASN212      0.1653
     67  C         75.1440  -11.2330   10.1450 C.2   212  ASN212      0.2266
     68  O         74.5630  -10.3110    9.5680 O.2   212  ASN212     -0.2867
     69  CB        76.0060  -10.1920   12.2900 C.3   212  ASN212      0.1155
     70  CG        75.0150  -10.9390   13.1620 C.2   212  ASN212      0.2627
     71  OD1       73.9090  -11.3090   12.7290 O.2   212  ASN212     -0.2716
     72  ND2       75.3930  -11.1510   14.4060 N.am  212  ASN212     -0.0877
     73  N         69.0740   -4.1070   16.8290 N.3   222  TRP222     -0.1241
     74  CA        70.4230   -3.5950   16.9260 C.3   222  TRP222      0.1605
     75  C         70.4220   -2.1390   17.3560 C.2   222  TRP222      0.2264
     76  O         69.5770   -1.3580   16.9250 O.2   222  TRP222     -0.2867
     77  CB        71.1430   -3.6810   15.5770 C.3   222  TRP222      0.0550
     78  CG        71.4360   -5.0550   15.1520 C.ar  222  TRP222      0.0003
     79  CD1       70.5450   -6.0190   14.7740 C.ar  222  TRP222      0.0946
     80  CD2       72.7270   -5.6320   15.0480 C.ar  222  TRP222      0.0152
     81  NE1       71.2250   -7.1700   14.4330 N.ar  222  TRP222     -0.2442
     82  CE2       72.5640   -6.9530   14.6010 C.ar  222  TRP222      0.0810
     83  CE3       74.0200   -5.1520   15.2920 C.ar  222  TRP222      0.0012
     84  CZ2       73.6430   -7.8160   14.4210 C.ar  222  TRP222      0.0191
     85  CZ3       75.0810   -5.9950   15.1070 C.ar  222  TRP222      0.0001
     86  CH2       74.8930   -7.3120   14.6530 C.ar  222  TRP222      0.0015
     87  N         79.0220   -4.2770   10.1700 N.3   276  ILE276     -0.1245
     88  CA        79.4550   -3.3450   11.2070 C.3   276  ILE276      0.1561
     89  C         80.8090   -2.7840   10.7930 C.2   276  ILE276      0.2260
     90  O         81.8040   -3.5100   10.7200 O.2   276  ILE276     -0.2867
     91  CB        79.5080   -4.0120   12.5960 C.3   276  ILE276      0.0252
     92  CG1       78.1790   -4.6720   12.9400 C.3   276  ILE276      0.0019
     93  CG2       79.8370   -2.9430   13.7190 C.3   276  ILE276      0.0019
     94  CD1       77.9560   -6.0330   12.4240 C.3   276  ILE276      0.0001
     95  N         78.3750   -1.1360   19.4270 N.3   282  HIS282     -0.1241
     96  CA        77.0550   -1.6980   19.1760 C.3   282  HIS282      0.1621
     97  C         76.6680   -2.6860   20.2600 C.2   282  HIS282      0.2264
     98  O         77.5160   -3.2070   20.9750 O.2   282  HIS282     -0.2867
     99  CB        77.0150   -2.3680   17.7950 C.3   282  HIS282      0.0745
    100  CG        78.0520   -3.4310   17.6000 C.ar  282  HIS282      0.0817
    101  ND1       79.3780   -3.1400   17.3420 N.ar  282  HIS282     -0.2268
    102  CD2       77.9490   -4.7810   17.5580 C.ar  282  HIS282      0.1154
    103  CE1       80.0530   -4.2700   17.2070 C.ar  282  HIS282      0.1986
    104  NE2       79.2130   -5.2800   17.3320 N.ar  282  HIS282     -0.2212
    105  N         73.1060   -5.6820   20.9190 N.3   284  VAL284     -0.1245
    106  CA        72.1300   -6.4620   20.1620 C.3   284  VAL284      0.1561
    107  C         71.2490   -7.2670   21.1220 C.2   284  VAL284      0.2260
    108  O         71.7380   -7.8120   22.1160 O.2   284  VAL284     -0.2867
    109  CB        72.8360   -7.4360   19.1770 C.3   284  VAL284      0.0252
    110  CG1       71.8370   -8.1090   18.2870 C.3   284  VAL284      0.0019
    111  CG2       73.8750   -6.7470   18.3400 C.3   284  VAL284      0.0019
    112  N         71.8820  -16.5500   14.7930 N.3   292  ASN292     -0.1240
    113  CA        72.7480  -15.6870   14.0000 C.3   292  ASN292      0.1653
    114  C         74.1090  -16.3580   13.8280 C.2   292  ASN292      0.2266
    115  O         74.5300  -17.1820   14.6560 O.2   292  ASN292     -0.2867
    116  CB        72.9310  -14.3060   14.6610 C.3   292  ASN292      0.1155
    117  CG        71.6480  -13.5340   14.7800 C.2   292  ASN292      0.2627
    118  OD1       70.7990  -13.8300   15.6080 O.2   292  ASN292     -0.2716
    119  ND2       71.5340  -12.4780   13.9870 N.am  292  ASN292     -0.0877
    120  N         78.1710  -15.0160   12.7470 N.3   294  ALA294     -0.1245
    121  CA        78.9750  -13.8070   12.5860 C.3   294  ALA294      0.1562
    122  C         80.4680  -14.1400   12.6020 C.2   294  ALA294      0.2260
    123  O         80.9100  -15.1560   13.1490 O.2   294  ALA294     -0.2867
    124  CB        78.6740  -12.7510   13.6860 C.3   294  ALA294      0.0290
@<TRIPOS>BOND
     1    68    67    2
     2    62    61    2
     3    67    66    1
     4    87    88    1
     5    65    66    1
     6    61    60    1
     7    90    89    2
     8    89    88    1
     9    66    69    1
    10    88    91    1
    11    59    60    1
    12    60    63    1
    13    69    70    1
    14    94    92    1
    15   121   122    1
    16   121   120    1
    17   121   124    1
    18    91    92    1
    19    91    93    1
    20   122   123    2
    21    71    70    2
    22    63    64    1
    23    70    72   am
    24   114   113    1
    25   114   115    2
    26   119   117   am
    27   113   116    1
    28   113   112    1
    29    84    82   ar
    30    84    86   ar
    31    81    82   ar
    32    81    79   ar
    33    82    80   ar
    34    86    85   ar
    35   116   117    1
    36    79    78   ar
    37   117   118    2
    38    80    78   ar
    39    80    83   ar
    40    85    83   ar
    41    78    77    1
    42    77    74    1
    43    55    54    1
    44    55    56    1
    45    57    56   ar
    46    54    51    1
    47    56    58   ar
    48    73    74    1
    49    76    75    2
    50    74    75    1
    51    20    18   ar
    52    20    22   ar
    53    18    17   ar
    54    12    13    1
    55   103   104   ar
    56   103   101   ar
    57    15    14    2
    58   104   102   ar
    59   101   100   ar
    60   102   100   ar
    61   100    99    1
    62    99    96    1
    63    23    22    1
    64    51    50    1
    65    51    52    1
    66    32    31    1
    67    22    21   ar
    68    17    16    1
    69    17    19   ar
    70    16    13    1
    71    14    13    1
    72   110   109    1
    73   111   109    1
    74    52    53    2
    75    31    30    1
    76    96    95    1
    77    96    97    1
    78   109   106    1
    79    30    29    1
    80    21    19   ar
    81    49    47   ar
    82    49    48   ar
    83    29    28    1
    84    24    25    1
    85   106   105    1
    86   106   107    1
    87    28    25    1
    88    97    98    2
    89    47    45   ar
    90    43    42    2
    91    27    26    2
    92    48    46   ar
    93    25    26    1
    94   107   108    2
    95    42    41    1
    96    45    46   ar
    97    45    44    1
    98    38    37    1
    99    39    37    1
   100     9    11   ar
   101     9     7   ar
   102    37    34    1
   103    11    10   ar
   104    44    41    1
   105    41    40    1
   106     7     6   ar
   107    36    35    2
   108    10     8   ar
   109    34    33    1
   110    34    35    1
   111     6     8   ar
   112     6     5    1
   113     3     2    1
   114     3     4    2
   115     2     5    1
   116     2     1    1
