@<TRIPOS>MOLECULE
tmp/5oy4B00.pdb
 154 144 0 0 0
SMALL
GASTEIGER

@<TRIPOS>ATOM
      1  N        111.8010   64.0360   52.1850 N.3    33  ILE33      -0.1245
      2  CA       112.2540   62.9330   51.3390 C.3    33  ILE33       0.1561
      3  C        112.5830   63.4190   49.9070 C.2    33  ILE33       0.2260
      4  O        113.1340   62.6600   49.1060 O.2    33  ILE33      -0.2867
      5  CB       111.3010   61.7010   51.3720 C.3    33  ILE33       0.0252
      6  CG1      109.8490   62.0610   50.9630 C.3    33  ILE33       0.0019
      7  CG2      111.3680   60.9970   52.7470 C.3    33  ILE33       0.0019
      8  CD1      108.9930   60.8720   50.4860 C.3    33  ILE33       0.0001
      9  N        108.8000   67.5950   49.2990 N.3    41  VAL41      -0.1245
     10  CA       108.0550   66.3490   49.5160 C.3    41  VAL41       0.1561
     11  C        108.4610   65.7820   50.8770 C.2    41  VAL41       0.2260
     12  O        109.6470   65.6490   51.1630 O.2    41  VAL41      -0.2867
     13  CB       108.1530   65.2980   48.3810 C.3    41  VAL41       0.0252
     14  CG1      107.2230   64.1110   48.6530 C.3    41  VAL41       0.0019
     15  CG2      107.8250   65.9300   47.0360 C.3    41  VAL41       0.0019
     16  N        102.9780   60.4450   51.5810 N.3    54  ALA54      -0.1245
     17  CA       103.9220   61.4220   51.0600 C.3    54  ALA54       0.1562
     18  C        103.1380   62.7560   50.9920 C.2    54  ALA54       0.2260
     19  O        101.9830   62.7580   50.5640 O.2    54  ALA54      -0.2867
     20  CB       104.4090   61.0190   49.6790 C.3    54  ALA54       0.0290
     21  N        103.2880   66.4220   49.3610 N.3    56  LYS56      -0.1245
     22  CA       103.9350   67.3260   48.4250 C.3    56  LYS56       0.1561
     23  C        103.4030   68.7430   48.7270 C.2    56  LYS56       0.2260
     24  O        102.2010   68.9740   48.6610 O.2    56  LYS56      -0.2867
     25  CB       103.6510   66.9110   46.9720 C.3    56  LYS56       0.0271
     26  CG       104.4210   67.7670   45.9700 C.3    56  LYS56       0.0035
     27  CD       103.9590   67.6050   44.5850 C.3    56  LYS56       0.0206
     28  CE       104.9200   68.2320   43.6360 C.3    56  LYS56       0.1093
     29  NZ       104.9020   67.5000   42.3650 N.3    56  LYS56      -0.1314
     30  N         98.4200   70.6020   38.9040 N.3    68  GLU68      -0.1245
     31  CA        98.7060   69.3000   39.4950 C.3    68  GLU68       0.1567
     32  C         97.4990   68.7520   40.2710 C.2    68  GLU68       0.2260
     33  O         97.1390   67.5870   40.0760 O.2    68  GLU68      -0.2867
     34  CB        99.9910   69.3460   40.3300 C.3    68  GLU68       0.0388
     35  CG       100.3870   67.9990   40.9130 C.3    68  GLU68       0.1160
     36  CD       101.7380   68.0020   41.5980 C.2    68  GLU68       0.3649
     37  OE1      102.2840   69.0980   41.8510 O.co2  68  GLU68      -0.2457
     38  OE2      102.2610   66.9040   41.8780 O.co2  68  GLU68      -0.2457
     39  N         95.2450   65.4450   39.4880 N.3    72  MET72      -0.1245
     40  CA        95.2030   64.4030   40.5220 C.3    72  MET72       0.1570
     41  C         93.8000   64.0710   41.0620 C.2    72  MET72       0.2261
     42  O         93.5580   62.9010   41.3640 O.2    72  MET72      -0.2867
     43  CB        96.1710   64.7200   41.6650 C.3    72  MET72       0.0387
     44  CG        97.6560   64.6380   41.2480 C.3    72  MET72       0.0595
     45  SD        98.3340   63.0050   40.8360 S.3    72  MET72      -0.1393
     46  CE        98.0820   62.1250   42.2890 C.3    72  MET72       0.0692
     47  N         99.7490   56.8500   41.7760 N.3    81  VAL81      -0.1245
     48  CA        99.7550   57.2150   43.2070 C.3    81  VAL81       0.1561
     49  C         98.4640   57.9560   43.5010 C.2    81  VAL81       0.2260
     50  O         98.1190   58.9040   42.7870 O.2    81  VAL81      -0.2867
     51  CB       101.0410   58.0010   43.6020 C.3    81  VAL81       0.0252
     52  CG1      100.9700   58.5360   45.0230 C.3    81  VAL81       0.0019
     53  CG2      102.2630   57.1070   43.4520 C.3    81  VAL81       0.0019
     54  N         99.5310   68.1970   49.0340 N.3   100  LEU100     -0.1245
     55  CA        98.9070   67.0060   48.4890 C.3   100  LEU100      0.1561
     56  C         99.3120   65.8330   49.3330 C.2   100  LEU100      0.2260
     57  O        100.4980   65.5420   49.4420 O.2   100  LEU100     -0.2867
     58  CB        99.3170   66.7800   47.0180 C.3   100  LEU100      0.0270
     59  CG        99.0580   67.9220   46.0550 C.3   100  LEU100      0.0019
     60  CD1       99.6960   67.6390   44.7180 C.3   100  LEU100      0.0001
     61  CD2       97.5820   68.2290   45.9480 C.3   100  LEU100      0.0001
     62  N         99.5060   62.1190   49.5170 N.3   102  LEU102     -0.1231
     63  CA        99.5660   60.9860   48.5980 C.3   102  LEU102      0.1693
     64  C         99.9320   59.6940   49.2870 C.2   102  LEU102      0.2592
     65  O        100.6190   59.7240   50.3060 O.2   102  LEU102     -0.2718
     66  CB       100.6310   61.2880   47.5350 C.3   102  LEU102      0.0284
     67  CG       100.4550   62.6140   46.7970 C.3   102  LEU102      0.0019
     68  CD1      101.7370   63.1410   46.2790 C.3   102  LEU102      0.0001
     69  CD2       99.4180   62.5040   45.7150 C.3   102  LEU102      0.0001
     70  N         99.5450   58.5470   48.6980 N.am  103  ASP103     -0.1960
     71  CA        99.9430   57.2470   49.2320 C.3   103  ASP103      0.1840
     72  C        101.4580   57.1360   49.1470 C.2   103  ASP103      0.2622
     73  O        102.0520   57.5550   48.1450 O.2   103  ASP103     -0.2715
     74  CB        99.3270   56.1070   48.4080 C.3   103  ASP103      0.1450
     75  CG        97.9190   55.7140   48.7970 C.2   103  ASP103      0.3671
     76  OD1       97.5520   55.8920   49.9960 O.co2 103  ASP103     -0.2456
     77  OD2       97.1980   55.1710   47.9240 O.co2 103  ASP103     -0.2456
     78  N        102.0790   56.6120   50.2140 N.am  104  TYR104     -0.1960
     79  CA       103.5160   56.3930   50.2370 C.3   104  TYR104      0.1771
     80  C        103.8330   55.0120   49.6240 C.2   104  TYR104      0.2619
     81  O        103.1700   54.0160   49.9260 O.2   104  TYR104     -0.2715
     82  CB       104.0860   56.4830   51.6610 C.3   104  TYR104      0.0574
     83  CG       105.5820   56.2720   51.7220 C.ar  104  TYR104     -0.0198
     84  CD1      106.4650   57.2990   51.3930 C.ar  104  TYR104     -0.0009
     85  CD2      106.1170   55.0380   52.0880 C.ar  104  TYR104     -0.0009
     86  CE1      107.8410   57.1130   51.4420 C.ar  104  TYR104      0.0417
     87  CE2      107.4930   54.8380   52.1400 C.ar  104  TYR104      0.0417
     88  CZ       108.3510   55.8770   51.8050 C.ar  104  TYR104      0.1957
     89  OH       109.7130   55.7010   51.8460 O.3   104  TYR104     -0.2866
     90  N        104.8520   54.9720   48.7710 N.am  105  VAL105     -0.1964
     91  CA       105.3460   53.7770   48.0980 C.3   105  VAL105      0.1712
     92  C        106.8480   53.7760   48.4120 C.2   105  VAL105      0.2458
     93  O        107.5130   54.8070   48.2180 O.2   105  VAL105     -0.2730
     94  CB       105.0260   53.7570   46.5790 C.3   105  VAL105      0.0289
     95  CG1      105.3480   52.4040   45.9640 C.3   105  VAL105      0.0023
     96  CG2      103.5620   54.1280   46.3000 C.3   105  VAL105      0.0023
     97  N        107.3790   52.6640   48.9880 N.am  106  PRO106     -0.2727
     98  CA       108.7690   52.6850   49.4820 C.3   106  PRO106      0.1402
     99  C        109.9040   52.7110   48.4570 C.2   106  PRO106      0.2269
    100  O        110.9740   53.2430   48.7870 O.2   106  PRO106     -0.2865
    101  CB       108.8480   51.4300   50.3400 C.3   106  PRO106      0.0296
    102  CG       107.8080   50.4920   49.7640 C.3   106  PRO106      0.0237
    103  CD       106.7080   51.3730   49.2970 C.3   106  PRO106      0.0939
    104  N        111.5620   52.9080   44.1560 N.3   108  THR108     -0.1218
    105  CA       111.4580   53.5000   42.8190 C.3   108  THR108      0.1862
    106  C        112.1150   52.5550   41.8260 C.2   108  THR108      0.2287
    107  O        112.9640   51.7500   42.2200 O.2   108  THR108     -0.2866
    108  CB       112.1030   54.9000   42.7280 C.3   108  THR108      0.1770
    109  OG1      113.5120   54.7930   42.9200 O.3   108  THR108     -0.2211
    110  CG2      111.5050   55.9040   43.6930 C.3   108  THR108      0.0375
    111  N        115.9740   53.2700   41.9460 N.3   111  ARG111     -0.1245
    112  CA       116.7450   52.6120   42.9930 C.3   111  ARG111      0.1563
    113  C        116.9430   51.1220   42.7310 C.2   111  ARG111      0.2260
    114  O        118.0560   50.6210   42.9080 O.2   111  ARG111     -0.2867
    115  CB       116.1070   52.8590   44.3690 C.3   111  ARG111      0.0307
    116  CG       116.2910   54.2850   44.8950 C.3   111  ARG111      0.0489
    117  CD       115.2020   54.6810   45.8830 C.3   111  ARG111      0.2205
    118  NE       115.0260   53.7680   47.0220 N.pl3 111  ARG111     -0.0865
    119  CZ       115.7430   53.7810   48.1520 C.cat 111  ARG111      0.5346
    120  NH1      116.7670   54.6190   48.2940 N.pl3 111  ARG111      0.1354
    121  NH2      115.4690   52.9180   49.1260 N.pl3 111  ARG111      0.1354
    122  N        107.1940   54.5930   41.0070 N.3   158  LEU158     -0.1245
    123  CA       107.2560   53.9970   42.3340 C.3   158  LEU158      0.1561
    124  C        106.9280   52.5230   42.3320 C.2   158  LEU158      0.2260
    125  O        106.0710   52.0840   41.5800 O.2   158  LEU158     -0.2867
    126  CB       106.3400   54.7460   43.3060 C.3   158  LEU158      0.0270
    127  CG       106.4620   56.2540   43.3500 C.3   158  LEU158      0.0019
    128  CD1      105.5230   56.7990   44.3210 C.3   158  LEU158      0.0001
    129  CD2      107.8820   56.6910   43.6890 C.3   158  LEU158      0.0001
    130  N        104.1640   58.5930   39.6140 N.3   169  CYS169     -0.1221
    131  CA       104.0640   59.7360   40.5190 C.3   169  CYS169      0.1808
    132  C        104.6030   61.0350   39.9160 C.2   169  CYS169      0.2601
    133  O        105.1120   61.0420   38.8050 O.2   169  CYS169     -0.2717
    134  CB       104.7100   59.4230   41.8650 C.3   169  CYS169      0.0970
    135  SG       106.5120   59.6060   41.8990 S.3   169  CYS169     -0.0800
    136  N        104.4980   62.1190   40.6780 N.am  170  ASP170     -0.1959
    137  CA       104.9290   63.4820   40.3880 C.3   170  ASP170      0.1840
    138  C        104.2940   64.0640   39.1390 C.2   170  ASP170      0.2622
    139  O        104.8970   64.0530   38.0710 O.2   170  ASP170     -0.2715
    140  CB       106.4600   63.6160   40.3710 C.3   170  ASP170      0.1450
    141  CG       106.9220   65.0580   40.2380 C.2   170  ASP170      0.3671
    142  OD1      106.0850   65.9780   40.4250 O.co2 170  ASP170     -0.2456
    143  OD2      108.0980   65.2690   39.9060 O.co2 170  ASP170     -0.2456
    144  N        103.1100   64.6370   39.2970 N.am  171  PHE171     -0.1974
    145  CA       102.3530   65.2720   38.2180 C.3   171  PHE171      0.1639
    146  C        102.6180   66.8000   38.1670 C.2   171  PHE171      0.2290
    147  O        101.8350   67.5710   37.5920 O.2   171  PHE171     -0.2864
    148  CB       100.8560   64.9190   38.3590 C.3   171  PHE171      0.0560
    149  CG       100.5690   63.5270   37.8470 C.ar  171  PHE171     -0.0200
    150  CD1      100.8000   62.4070   38.6460 C.ar  171  PHE171     -0.0042
    151  CD2      100.1240   63.3270   36.5460 C.ar  171  PHE171     -0.0042
    152  CE1      100.5550   61.1200   38.1650 C.ar  171  PHE171     -0.0003
    153  CE2       99.8810   62.0330   36.0640 C.ar  171  PHE171     -0.0003
    154  CZ       100.0890   60.9420   36.8810 C.ar  171  PHE171     -0.0000
@<TRIPOS>BOND
     1   153   151   ar
     2   153   154   ar
     3   151   149   ar
     4   154   152   ar
     5   147   146    2
     6   149   148    1
     7   149   150   ar
     8   139   138    2
     9   152   150   ar
    10   146   145    1
    11   145   148    1
    12   145   144    1
    13   133   132    2
    14    30    31    1
    15   138   144   am
    16   138   137    1
    17    39    40    1
    18    31    32    1
    19    31    34    1
    20   130   131    1
    21   143   141   ar
    22   132   131    1
    23   132   136   am
    24    33    32    2
    25   141   140    1
    26   141   142   ar
    27    34    35    1
    28   140   137    1
    29   137   136    1
    30   131   134    1
    31    40    41    1
    32    40    43    1
    33    45    44    1
    34    45    46    1
    35    35    36    1
    36   122   123    1
    37    41    42    2
    38    44    43    1
    39   125   124    2
    40    36    37   ar
    41    36    38   ar
    42    47    48    1
    43   106   107    2
    44   106   105    1
    45   134   135    1
    46   111   112    1
    47   124   123    1
    48   123   126    1
    49    29    28    1
    50   108   105    1
    51   108   109    1
    52   108   110    1
    53   113   114    2
    54   113   112    1
    55    50    49    2
    56   105   104    1
    57   112   115    1
    58    48    49    1
    59    48    51    1
    60   126   127    1
    61   127   129    1
    62   127   128    1
    63    53    51    1
    64    51    52    1
    65    28    27    1
    66   115   116    1
    67    27    26    1
    68    60    59    1
    69   116   117    1
    70    69    67    1
    71   117   118    1
    72    61    59    1
    73    95    94    1
    74    26    25    1
    75    59    58    1
    76    68    67    1
    77    96    94    1
    78    94    91    1
    79    67    66    1
    80    25    22    1
    81    58    55    1
    82   118   119    2
    83    15    13    1
    84    66    63    1
    85    77    75   ar
    86    91    92    1
    87    91    90    1
    88    73    72    2
    89   119   120    1
    90   119   121    1
    91    93    92    2
    92    13    14    1
    93    13    10    1
    94    74    75    1
    95    74    71    1
    96    92    97   am
    97    22    23    1
    98    22    21    1
    99    99   100    2
   100    99    98    1
   101    55    54    1
   102    55    56    1
   103    63    64    1
   104    63    62    1
   105    24    23    2
   106    70    71    1
   107    70    64   am
   108    90    80   am
   109    75    76   ar
   110    97   103    1
   111    97    98    1
   112     4     3    2
   113    72    71    1
   114    72    78   am
   115    64    65    2
   116   103   102    1
   117     9    10    1
   118    56    57    2
   119    98   101    1
   120    10    11    1
   121    80    81    2
   122    80    79    1
   123    20    17    1
   124   102   101    1
   125     3     2    1
   126    78    79    1
   127    79    82    1
   128     8     6    1
   129    19    18    2
   130    11    12    2
   131     6     5    1
   132    18    17    1
   133    17    16    1
   134     2     5    1
   135     2     1    1
   136     5     7    1
   137    84    86   ar
   138    84    83   ar
   139    86    88   ar
   140    82    83    1
   141    83    85   ar
   142    88    89    1
   143    88    87   ar
   144    85    87   ar
