@<TRIPOS>MOLECULE
tmp/5oy6B00.pdb
 173 163 0 0 0
SMALL
GASTEIGER

@<TRIPOS>ATOM
      1  N         -4.2230   42.9910  -26.2670 N.3    12  VAL12      -0.1231
      2  CA        -4.1470   42.2210  -25.0300 C.3    12  VAL12       0.1692
      3  C         -2.8890   42.5220  -24.2250 C.2    12  VAL12       0.2592
      4  O         -2.7560   42.0230  -23.0950 O.2    12  VAL12      -0.2718
      5  CB        -4.2270   40.7070  -25.3180 C.3    12  VAL12       0.0266
      6  CG1       -2.8390   40.1520  -25.6220 C.3    12  VAL12       0.0020
      7  CG2       -4.8860   39.9690  -24.1610 C.3    12  VAL12       0.0020
      8  N         -1.9590   43.3060  -24.7670 N.am   13  GLY13      -0.1957
      9  CA        -0.7400   43.6450  -24.0530 C.3    13  GLY13       0.1869
     10  C         -0.0590   44.8650  -24.6370 C.2    13  GLY13       0.2309
     11  O         -0.0170   45.0380  -25.8600 O.2    13  GLY13      -0.2863
     12  N          8.1720   47.4730  -25.3370 N.3    17  TYR17      -0.1241
     13  CA         8.4640   46.6570  -26.5110 C.3    17  TYR17       0.1605
     14  C          7.5380   47.0000  -27.6720 C.2    17  TYR17       0.2264
     15  O          7.9580   46.9870  -28.8360 O.2    17  TYR17      -0.2867
     16  CB         8.3440   45.1760  -26.1510 C.3    17  TYR17       0.0534
     17  CG         6.9790   44.7880  -25.6180 C.ar   17  TYR17      -0.0201
     18  CD1        5.9660   44.3780  -26.4740 C.ar   17  TYR17      -0.0009
     19  CD2        6.7050   44.8360  -24.2550 C.ar   17  TYR17      -0.0009
     20  CE1        4.7160   44.0230  -25.9850 C.ar   17  TYR17       0.0417
     21  CE2        5.4610   44.4830  -23.7600 C.ar   17  TYR17       0.0417
     22  CZ         4.4700   44.0770  -24.6280 C.ar   17  TYR17       0.1957
     23  OH         3.2280   43.7260  -24.1400 O.3    17  TYR17      -0.2866
     24  N          0.9280   43.6120  -27.9940 N.3    20  VAL20      -0.1245
     25  CA         0.5360   42.2680  -28.3990 C.3    20  VAL20       0.1561
     26  C         -0.9700   42.2740  -28.5700 C.2    20  VAL20       0.2260
     27  O         -1.6920   42.6950  -27.6610 O.2    20  VAL20      -0.2867
     28  CB         0.9320   41.2010  -27.3680 C.3    20  VAL20       0.0252
     29  CG1        0.2900   39.8590  -27.7430 C.3    20  VAL20       0.0019
     30  CG2        2.4530   41.1090  -27.2130 C.3    20  VAL20       0.0019
     31  N         -1.5830   35.2040  -31.8580 N.3    31  ALA31      -0.1245
     32  CA        -0.9940   36.3450  -31.1800 C.3    31  ALA31       0.1562
     33  C         -0.1280   37.1070  -32.1630 C.2    31  ALA31       0.2260
     34  O          0.5730   36.5070  -32.9820 O.2    31  ALA31      -0.2867
     35  CB        -0.1570   35.9110  -29.9680 C.3    31  ALA31       0.0290
     36  N          2.6790   40.2120  -32.0520 N.3    33  LYS33      -0.1245
     37  CA         3.4890   41.1990  -31.3580 C.3    33  LYS33       0.1561
     38  C          3.9260   42.2330  -32.3790 C.2    33  LYS33       0.2260
     39  O          4.6400   41.9040  -33.3310 O.2    33  LYS33      -0.2867
     40  CB         4.7020   40.5650  -30.6840 C.3    33  LYS33       0.0271
     41  CG         5.5140   41.5450  -29.8590 C.3    33  LYS33       0.0035
     42  CD         6.4550   40.7730  -28.9610 C.3    33  LYS33       0.0206
     43  CE         7.4940   41.6430  -28.2820 C.3    33  LYS33       0.1093
     44  NZ         8.2900   40.7540  -27.4090 N.3    33  LYS33      -0.1314
     45  N         14.7740   37.6530  -32.4490 N.3    46  GLU46      -0.1245
     46  CA        13.7430   36.6600  -32.1970 C.3    46  GLU46       0.1567
     47  C         13.3840   35.9190  -33.4800 C.2    46  GLU46       0.2260
     48  O         13.1980   34.6970  -33.4700 O.2    46  GLU46      -0.2867
     49  CB        12.5410   37.3630  -31.5770 C.3    46  GLU46       0.0388
     50  CG        11.8070   36.5520  -30.5540 C.3    46  GLU46       0.1160
     51  CD        10.9840   37.4140  -29.6300 C.2    46  GLU46       0.3649
     52  OE1       11.1230   38.6560  -29.6890 O.co2  46  GLU46      -0.2457
     53  OE2       10.1750   36.8440  -28.8680 O.co2  46  GLU46      -0.2457
     54  N          7.4860   29.5230  -26.7090 N.3    61  LEU61      -0.1245
     55  CA         6.3260   30.0230  -27.4330 C.3    61  LEU61       0.1561
     56  C          6.3550   29.6020  -28.9010 C.2    61  LEU61       0.2260
     57  O          7.3660   29.7610  -29.5920 O.2    61  LEU61      -0.2867
     58  CB         6.2630   31.5480  -27.3040 C.3    61  LEU61       0.0270
     59  CG         5.0870   32.1830  -28.0470 C.3    61  LEU61       0.0019
     60  CD1        3.8030   31.5120  -27.5500 C.3    61  LEU61       0.0001
     61  CD2        5.0280   33.7010  -27.7850 C.3    61  LEU61       0.0001
     62  N          5.4990   39.8450  -35.2350 N.3    79  LEU79      -0.1245
     63  CA         5.7940   38.4590  -34.9060 C.3    79  LEU79       0.1561
     64  C          4.4730   37.7570  -34.6230 C.2    79  LEU79       0.2260
     65  O          3.6990   38.2090  -33.7670 O.2    79  LEU79      -0.2867
     66  CB         6.7320   38.3680  -33.7010 C.3    79  LEU79       0.0270
     67  CG         7.2660   36.9730  -33.3940 C.3    79  LEU79       0.0019
     68  CD1        8.0420   36.4380  -34.6120 C.3    79  LEU79       0.0001
     69  CD2        8.1520   37.0140  -32.1350 C.3    79  LEU79       0.0001
     70  N          2.5160   34.3300  -33.4700 N.3    81  THR81      -0.1203
     71  CA         2.7410   33.1110  -32.7060 C.3    81  THR81       0.1994
     72  C          1.4110   32.5290  -32.2480 C.2    81  THR81       0.2618
     73  O          0.3530   33.1410  -32.4120 O.2    81  THR81      -0.2717
     74  CB         3.6320   33.3770  -31.4920 C.3    81  THR81       0.1784
     75  OG1        2.8590   34.0600  -30.5040 O.3    81  THR81      -0.2211
     76  CG2        4.8110   34.2460  -31.8660 C.3    81  THR81       0.0376
     77  N          1.4790   31.3570  -31.6130 N.am   82  HIS82      -0.1961
     78  CA         0.2840   30.7740  -31.0200 C.3    82  HIS82       0.1787
     79  C         -0.3160   31.7400  -30.0120 C.2    82  HIS82       0.2620
     80  O          0.3650   32.6090  -29.4630 O.2    82  HIS82      -0.2715
     81  CB         0.5730   29.4340  -30.3310 C.3    82  HIS82       0.0785
     82  CG         1.1420   28.3820  -31.2360 C.ar   82  HIS82       0.0821
     83  ND1        1.0220   28.4270  -32.6100 N.ar   82  HIS82      -0.2267
     84  CD2        1.7770   27.2180  -30.9550 C.ar   82  HIS82       0.1154
     85  CE1        1.5970   27.3600  -33.1380 C.ar   82  HIS82       0.1986
     86  NE2        2.0550   26.6060  -32.1550 N.ar   82  HIS82      -0.2212
     87  N         -1.6240   31.6390  -29.8330 N.am   83  TYR83      -0.1960
     88  CA        -2.3310   32.4300  -28.8410 C.3    83  TYR83       0.1771
     89  C         -2.6450   31.5780  -27.6130 C.2    83  TYR83       0.2620
     90  O         -3.0800   30.4280  -27.7280 O.2    83  TYR83      -0.2715
     91  CB        -3.6090   33.0210  -29.4230 C.3    83  TYR83       0.0574
     92  CG        -4.2790   33.9560  -28.4540 C.ar   83  TYR83      -0.0198
     93  CD1       -3.7830   35.2360  -28.2640 C.ar   83  TYR83      -0.0009
     94  CD2       -5.3810   33.5540  -27.7050 C.ar   83  TYR83      -0.0009
     95  CE1       -4.3720   36.1000  -27.3760 C.ar   83  TYR83       0.0417
     96  CE2       -5.9700   34.4150  -26.8160 C.ar   83  TYR83       0.0417
     97  CZ        -5.4510   35.6890  -26.6570 C.ar   83  TYR83       0.1957
     98  OH        -6.0100   36.5780  -25.7810 O.3    83  TYR83      -0.2866
     99  N         -2.4210   32.1480  -26.4350 N.am   84  HIS84      -0.1959
    100  CA        -2.6540   31.4580  -25.1650 C.3    84  HIS84       0.1787
    101  C         -3.6630   32.2480  -24.3490 C.2    84  HIS84       0.2620
    102  O         -3.3210   33.2460  -23.7100 O.2    84  HIS84      -0.2715
    103  CB        -1.3400   31.2670  -24.4290 C.3    84  HIS84       0.0785
    104  CG        -0.4070   30.3640  -25.1550 C.ar   84  HIS84       0.0821
    105  ND1       -0.6300   29.0100  -25.2650 N.ar   84  HIS84      -0.2267
    106  CD2        0.6920   30.6300  -25.8940 C.ar   84  HIS84       0.1154
    107  CE1        0.3300   28.4700  -25.9910 C.ar   84  HIS84       0.1986
    108  NE2        1.1440   29.4320  -26.3870 N.ar   84  HIS84      -0.2212
    109  N         -4.9070   31.7930  -24.3840 N.am   85  GLU85      -0.1977
    110  CA        -5.9780   32.5310  -23.7370 C.3    85  GLU85       0.1602
    111  C         -5.6620   32.8120  -22.2740 C.2    85  GLU85       0.2287
    112  O         -6.0270   33.8740  -21.7530 O.2    85  GLU85      -0.2864
    113  CB        -7.2920   31.7460  -23.8610 C.3    85  GLU85       0.0415
    114  CG        -7.6830   31.5370  -25.3150 C.3    85  GLU85       0.1163
    115  CD        -7.2480   30.1640  -25.7930 C.2    85  GLU85       0.3649
    116  OE1       -6.5910   29.4100  -25.0400 O.co2  85  GLU85      -0.2457
    117  OE2       -7.5880   29.8280  -26.9460 O.co2  85  GLU85      -0.2457
    118  N         -3.0880   33.7090  -20.8290 N.3    87  GLY87      -0.1210
    119  CA        -2.3020   34.9200  -20.6690 C.3    87  GLY87       0.1956
    120  C         -0.9240   34.7110  -20.0560 C.2    87  GLY87       0.2612
    121  O         -0.3490   33.6170  -20.0370 O.2    87  GLY87      -0.2717
    122  N         -0.3610   35.8240  -19.6010 N.am   88  SER88      -0.1952
    123  CA         0.9460   35.7780  -18.9650 C.3    88  SER88       0.1924
    124  C          0.8460   35.1420  -17.5800 C.2    88  SER88       0.2314
    125  O         -0.1600   35.2650  -16.8780 O.2    88  SER88      -0.2863
    126  CB         1.5390   37.1860  -18.8570 C.3    88  SER88       0.2116
    127  OG         0.9880   37.9100  -17.7660 O.3    88  SER88      -0.2180
    128  N         -0.1900   37.6270  -15.0550 N.3    91  ASP91      -0.1239
    129  CA        -1.6360   37.8080  -14.9170 C.3    91  ASP91       0.1674
    130  C         -2.2930   36.6080  -14.2430 C.2    91  ASP91       0.2266
    131  O         -3.1010   36.7670  -13.3230 O.2    91  ASP91      -0.2867
    132  CB        -2.2630   38.0630  -16.2810 C.3    91  ASP91       0.1410
    133  CG        -1.9200   39.4230  -16.8330 C.2    91  ASP91       0.3668
    134  OD1       -1.8570   40.3880  -16.0350 O.co2  91  ASP91      -0.2456
    135  OD2       -1.7380   39.5240  -18.0680 O.co2  91  ASP91      -0.2456
    136  N          6.1920   38.1470  -16.6790 N.3   138  LYS138     -0.1231
    137  CA         5.3890   38.7400  -17.7420 C.3   138  LYS138      0.1693
    138  C          5.7130   38.2170  -19.1420 C.2   138  LYS138      0.2592
    139  O          4.8950   38.4470  -20.0480 O.2   138  LYS138     -0.2718
    140  CB         5.5540   40.2660  -17.7550 C.3   138  LYS138      0.0285
    141  CG         4.8220   40.9640  -16.6350 C.3   138  LYS138      0.0035
    142  CD         5.0780   42.4640  -16.6630 C.3   138  LYS138      0.0206
    143  CE         4.3420   43.1240  -15.4970 C.3   138  LYS138      0.1093
    144  NZ         4.7900   44.5330  -15.2810 N.3   138  LYS138     -0.1314
    145  N          6.8460   37.5180  -19.3620 N.am  139  ASN139     -0.1974
    146  CA         7.0850   36.8830  -20.6620 C.3   139  ASN139      0.1688
    147  C          6.9930   35.3600  -20.5940 C.2   139  ASN139      0.2292
    148  O          7.6690   34.6580  -21.3550 O.2   139  ASN139     -0.2864
    149  CB         8.3870   37.2850  -21.3670 C.3   139  ASN139      0.1181
    150  CG         9.4110   37.8560  -20.4720 C.2   139  ASN139      0.2629
    151  OD1        9.8350   37.2210  -19.5130 O.2   139  ASN139     -0.2716
    152  ND2        9.8890   39.0450  -20.8170 N.am  139  ASN139     -0.0877
    153  N          3.9760   32.3280  -20.5900 N.3   141  LEU141     -0.1245
    154  CA         2.5630   32.1190  -20.8840 C.3   141  LEU141      0.1561
    155  C          2.0680   30.7920  -20.3300 C.2   141  LEU141      0.2260
    156  O          2.7750   29.7830  -20.3410 O.2   141  LEU141     -0.2867
    157  CB         2.3020   32.1890  -22.3990 C.3   141  LEU141      0.0270
    158  CG         2.6390   33.5880  -22.9110 C.3   141  LEU141      0.0019
    159  CD1        2.8610   33.6280  -24.4200 C.3   141  LEU141      0.0001
    160  CD2        1.4860   34.5240  -22.5060 C.3   141  LEU141      0.0001
    161  N          8.5330   33.2080  -23.7740 N.3   151  ALA151     -0.1231
    162  CA         8.4150   34.1050  -24.9090 C.3   151  ALA151      0.1694
    163  C          9.4690   35.2070  -24.8000 C.2   151  ALA151      0.2592
    164  O         10.2360   35.2810  -23.8360 O.2   151  ALA151     -0.2718
    165  CB         7.0000   34.7030  -24.9910 C.3   151  ALA151      0.0304
    166  N          9.4840   36.0850  -25.8000 N.am  152  ASP152     -0.1974
    167  CA        10.3600   37.2480  -25.8080 C.3   152  ASP152      0.1709
    168  C         11.8360   36.8760  -25.7920 C.2   152  ASP152      0.2293
    169  O         12.5030   36.9890  -24.7610 O.2   152  ASP152     -0.2864
    170  CB        10.0400   38.1650  -24.6300 C.3   152  ASP152      0.1436
    171  CG        10.7320   39.5000  -24.7480 C.2   152  ASP152      0.3671
    172  OD1       11.5130   39.6580  -25.7130 O.co2 152  ASP152     -0.2456
    173  OD2       10.4920   40.3860  -23.8940 O.co2 152  ASP152     -0.2456
@<TRIPOS>BOND
     1    62    63    1
     2    63    64    1
     3    63    66    1
     4    64    65    2
     5    68    67    1
     6    66    67    1
     7    47    48    2
     8    47    46    1
     9    70    71    1
    10    67    69    1
    11    39    38    2
    12    85    83   ar
    13    85    86   ar
    14    34    33    2
    15    71    72    1
    16    71    74    1
    17    83    82   ar
    18    45    46    1
    19    73    72    2
    20    38    37    1
    21    72    77   am
    22    46    49    1
    23    33    32    1
    24    86    84   ar
    25    36    37    1
    26    76    74    1
    27    31    32    1
    28    77    78    1
    29    49    50    1
    30    74    75    1
    31    37    40    1
    32    82    84   ar
    33    82    81    1
    34    32    35    1
    35    78    81    1
    36    78    79    1
    37    40    41    1
    38    50    51    1
    39    79    87   am
    40    79    80    2
    41    41    42    1
    42    87    88    1
    43    52    51   ar
    44    51    53   ar
    45    57    56    2
    46    91    88    1
    47    91    92    1
    48    42    43    1
    49    56    55    1
    50    88    89    1
    51    15    14    2
    52    26    25    1
    53    26    27    2
    54    92    93   ar
    55    92    94   ar
    56    25    24    1
    57    25    28    1
    58    43    44    1
    59    93    95   ar
    60    59    61    1
    61    59    60    1
    62    59    58    1
    63    29    28    1
    64    90    89    2
    65    94    96   ar
    66    14    13    1
    67    89    99   am
    68    55    58    1
    69    55    54    1
    70    95    97   ar
    71    28    30    1
    72   117   115   ar
    73    96    97   ar
    74    97    98    1
    75    13    16    1
    76    13    12    1
    77    18    20   ar
    78    18    17   ar
    79    99   100    1
    80   108   107   ar
    81   108   106   ar
    82     1     2    1
    83    16    17    1
    84   107   105   ar
    85    20    22   ar
    86   106   104   ar
    87    11    10    2
    88   167   166    1
    89   167   168    1
    90   167   170    1
    91   166   163   am
    92   115   114    1
    93   115   116   ar
    94   168   169    2
    95   172   171   ar
    96     6     5    1
    97    17    19   ar
    98     5     2    1
    99     5     7    1
   100   114   113    1
   101   105   104   ar
   102   100   103    1
   103   100   101    1
   104   104   103    1
   105     2     3    1
   106   165   162    1
   107   162   163    1
   108   162   161    1
   109   163   164    2
   110     8     3   am
   111     8     9    1
   112   171   170    1
   113   171   173   ar
   114    10     9    1
   115    22    23    1
   116    22    21   ar
   117   159   158    1
   118   109   101   am
   119   109   110    1
   120   101   102    2
   121    19    21   ar
   122     3     4    2
   123   113   110    1
   124   110   111    1
   125   158   160    1
   126   158   157    1
   127   157   154    1
   128   111   112    2
   129   149   146    1
   130   149   150    1
   131   148   147    2
   132   154   153    1
   133   154   155    1
   134   118   119    1
   135   152   150   am
   136   119   120    1
   137   146   147    1
   138   146   145    1
   139   150   151    2
   140   156   155    2
   141   120   121    2
   142   120   122   am
   143   139   138    2
   144   122   123    1
   145   145   138   am
   146   138   137    1
   147   123   126    1
   148   123   124    1
   149   126   127    1
   150   135   133   ar
   151   140   137    1
   152   140   141    1
   153   137   136    1
   154   124   125    2
   155   133   132    1
   156   133   134   ar
   157   142   141    1
   158   142   143    1
   159   132   129    1
   160   143   144    1
   161   128   129    1
   162   129   130    1
   163   130   131    2
