@<TRIPOS>MOLECULE
tmp/5oycB01.pdb
 84 83 0 0 0
SMALL
GASTEIGER

@<TRIPOS>ATOM
      1  N          7.1370  128.0130   -1.4030 N.3   241  ASP241     -0.1225
      2  CA         5.8420  127.4180   -1.1540 C.3   241  ASP241      0.1805
      3  C          5.8910  126.5300    0.0780 C.2   241  ASP241      0.2598
      4  O          6.9610  125.9710    0.3970 O.2   241  ASP241     -0.2718
      5  CB         5.3470  126.6090   -2.3640 C.3   241  ASP241      0.1424
      6  CG         5.0830  127.4690   -3.5690 C.2   241  ASP241      0.3668
      7  OD1        4.9560  128.7330   -3.4690 O.co2 241  ASP241     -0.2456
      8  OD2        5.0060  126.8430   -4.6380 O.co2 241  ASP241     -0.2456
      9  N          4.7420  126.4700    0.7860 N.am  242  GLU242     -0.1965
     10  CA         4.6320  125.5930    1.9810 C.3   242  GLU242      0.1733
     11  C          3.3830  124.7770    1.8790 C.2   242  GLU242      0.2617
     12  O          2.5000  125.0880    1.0260 O.2   242  GLU242     -0.2715
     13  CB         4.5610  126.4850    3.2270 C.3   242  GLU242      0.0429
     14  CG         5.7290  127.4660    3.4410 C.3   242  GLU242      0.1163
     15  CD         7.0150  126.8020    3.9050 C.2   242  GLU242      0.3649
     16  OE1        7.0730  125.6040    4.2310 O.co2 242  GLU242     -0.2457
     17  OE2        8.0310  127.4840    3.9230 O.co2 242  GLU242     -0.2457
     18  N          3.2720  123.7380    2.7200 N.am  243  SER243     -0.1936
     19  CA         2.0480  122.9870    2.7940 C.3   243  SER243      0.2055
     20  C          0.8330  123.9040    2.9410 C.2   243  SER243      0.2643
     21  O         -0.2320  123.6230    2.3620 O.2   243  SER243     -0.2714
     22  CB         2.1000  122.0090    3.9570 C.3   243  SER243      0.2130
     23  OG         2.9610  120.9890    3.6180 O.3   243  SER243     -0.2179
     24  N          0.9930  125.0190    3.6630 N.am  244  TRP244     -0.1959
     25  CA        -0.1350  125.8420    4.0590 C.3   244  TRP244      0.1771
     26  C         -0.3520  126.9940    3.1120 C.2   244  TRP244      0.2620
     27  O         -1.2560  127.7640    3.3030 O.2   244  TRP244     -0.2715
     28  CB         0.0350  126.3700    5.5200 C.3   244  TRP244      0.0590
     29  CG         1.3450  126.9780    5.7850 C.ar  244  TRP244      0.0006
     30  CD1        2.4210  126.3770    6.3800 C.ar  244  TRP244      0.0946
     31  CD2        1.7670  128.2920    5.4210 C.ar  244  TRP244      0.0152
     32  NE1        3.4560  127.2450    6.4240 N.ar  244  TRP244     -0.2442
     33  CE2        3.0900  128.4220    5.8260 C.ar  244  TRP244      0.0810
     34  CE3        1.1450  129.3750    4.7540 C.ar  244  TRP244      0.0012
     35  CZ2        3.8120  129.6170    5.6480 C.ar  244  TRP244      0.0191
     36  CZ3        1.8640  130.5790    4.5760 C.ar  244  TRP244      0.0001
     37  CH2        3.1700  130.6800    5.0030 C.ar  244  TRP244      0.0015
     38  N          0.4690  127.1650    2.0900 N.am  245  GLY245     -0.1940
     39  CA         0.2150  128.2790    1.2050 C.3   245  GLY245      0.2014
     40  C          1.1930  128.4140    0.0550 C.2   245  GLY245      0.2638
     41  O          2.2590  127.8310    0.0540 O.2   245  GLY245     -0.2714
     42  N          0.8270  129.2590   -0.8730 N.am  246  LYS246     -0.1977
     43  CA         1.5600  129.4360   -2.1250 C.3   246  LYS246      0.1596
     44  C          2.1550  130.8110   -2.1050 C.2   246  LYS246      0.2287
     45  O          1.4960  131.7620   -1.7230 O.2   246  LYS246     -0.2864
     46  CB         0.6110  129.3360   -3.3580 C.3   246  LYS246      0.0298
     47  CG        -0.2680  128.1270   -3.3880 C.3   246  LYS246      0.0038
     48  CD        -1.0180  128.0430   -4.7100 C.3   246  LYS246      0.0206
     49  CE        -2.0860  126.9420   -4.7460 C.3   246  LYS246      0.1093
     50  NZ        -1.5840  125.5600   -4.4950 N.3   246  LYS246     -0.1314
     51  N         -2.5220  131.4970  -13.0080 N.3   261  THR261     -0.1203
     52  CA        -3.4710  132.1930  -12.1660 C.3   261  THR261      0.1994
     53  C         -3.3050  131.7690  -10.6920 C.2   261  THR261      0.2618
     54  O         -3.7300  132.4830   -9.8110 O.2   261  THR261     -0.2717
     55  CB        -4.9330  131.9990  -12.5880 C.3   261  THR261      0.1784
     56  OG1       -5.3310  130.6140  -12.4170 O.3   261  THR261     -0.2211
     57  CG2       -5.1660  132.4380  -14.0470 C.3   261  THR261      0.0376
     58  N         -2.7190  130.6030  -10.4680 N.am  262  GLU262     -0.1965
     59  CA        -2.3700  130.1120   -9.0980 C.3   262  GLU262      0.1733
     60  C         -1.4010  131.0040   -8.3250 C.2   262  GLU262      0.2616
     61  O         -1.2440  130.8370   -7.1170 O.2   262  GLU262     -0.2715
     62  CB        -1.8740  128.6570   -9.1650 C.3   262  GLU262      0.0429
     63  CG        -0.4290  128.4030   -9.7280 C.3   262  GLU262      0.1163
     64  CD        -0.3350  128.3180  -11.2450 C.2   262  GLU262      0.3649
     65  OE1       -1.3290  128.6930  -11.9640 O.co2 262  GLU262     -0.2457
     66  OE2        0.7580  127.9520  -11.6880 O.co2 262  GLU262     -0.2457
     67  N         -0.7260  131.9380   -9.0110 N.am  263  ARG263     -0.1977
     68  CA         0.2190  132.8950   -8.4020 C.3   263  ARG263      0.1597
     69  C         -0.3400  134.2530   -8.1940 C.2   263  ARG263      0.2287
     70  O          0.3910  135.1670   -7.7700 O.2   263  ARG263     -0.2864
     71  CB         1.5160  133.0090   -9.2080 C.3   263  ARG263      0.0334
     72  CG         2.1480  131.6500   -9.3810 C.3   263  ARG263      0.0492
     73  CD         2.7440  131.2060   -8.0480 C.3   263  ARG263      0.2205
     74  NE         3.3820  129.9170   -8.1050 N.pl3 263  ARG263     -0.0865
     75  CZ         3.8560  129.2720   -7.0440 C.cat 263  ARG263      0.5346
     76  NH1        3.7060  129.7940   -5.8210 N.pl3 263  ARG263      0.1354
     77  NH2        4.4200  128.1020   -7.1900 N.pl3 263  ARG263      0.1354
     78  N         -4.9610  135.0800   -3.3040 N.3   266  THR266     -0.1218
     79  CA        -6.2510  134.6400   -2.8910 C.3   266  THR266      0.1862
     80  C         -6.7320  135.4250   -1.6590 C.2   266  THR266      0.2287
     81  O         -7.8190  135.1520   -1.1510 O.2   266  THR266     -0.2866
     82  CB        -6.1880  133.1650   -2.5230 C.3   266  THR266      0.1770
     83  OG1       -5.0670  132.9940   -1.6820 O.3   266  THR266     -0.2211
     84  CG2       -5.9930  132.2580   -3.7900 C.3   266  THR266      0.0375
@<TRIPOS>BOND
     1    57    55    1
     2    51    52    1
     3    55    56    1
     4    55    52    1
     5    52    53    1
     6    65    64   ar
     7    66    64   ar
     8    64    63    1
     9    53    58   am
    10    53    54    2
    11    58    59    1
    12    63    62    1
    13    72    71    1
    14    72    73    1
    15    71    68    1
    16    62    59    1
    17    59    60    1
    18    67    68    1
    19    67    60   am
    20    68    69    1
    21    60    61    2
    22    69    70    2
    23    74    73    1
    24    74    75    2
    25    77    75    1
    26    75    76    1
    27    49    48    1
    28    49    50    1
    29    48    47    1
    30     8     6   ar
    31    84    82    1
    32     6     7   ar
    33     6     5    1
    34    47    46    1
    35    46    43    1
    36    78    79    1
    37    79    82    1
    38    79    80    1
    39    82    83    1
    40     5     2    1
    41    43    44    1
    42    43    42    1
    43    44    45    2
    44    80    81    2
    45     1     2    1
    46     2     3    1
    47    42    40   am
    48    41    40    2
    49    40    39    1
    50     3     4    2
    51     3     9   am
    52     9    10    1
    53    12    11    2
    54    39    38    1
    55    11    10    1
    56    11    18   am
    57    10    13    1
    58    38    26   am
    59    21    20    2
    60    18    19    1
    61    19    20    1
    62    19    22    1
    63    20    24   am
    64    26    27    2
    65    26    25    1
    66    13    14    1
    67    14    15    1
    68    23    22    1
    69    24    25    1
    70    15    17   ar
    71    15    16   ar
    72    25    28    1
    73    36    34   ar
    74    36    37   ar
    75    34    31   ar
    76    37    35   ar
    77    31    29   ar
    78    31    33   ar
    79    28    29    1
    80    35    33   ar
    81    29    30   ar
    82    33    32   ar
    83    30    32   ar
