@<TRIPOS>MOLECULE
tmp/5oydA00.pdb
 156 152 0 0 0
SMALL
GASTEIGER

@<TRIPOS>ATOM
      1  N         -1.7150  123.2840   31.2530 N.3    37  ASN37      -0.1240
      2  CA        -2.2170  124.3710   32.1120 C.3    37  ASN37       0.1653
      3  C         -2.2380  124.1510   33.5970 C.2    37  ASN37       0.2266
      4  O         -3.1290  124.6730   34.2740 O.2    37  ASN37      -0.2867
      5  CB        -3.6550  124.8160   31.6960 C.3    37  ASN37       0.1155
      6  CG        -3.6310  125.6580   30.4600 C.2    37  ASN37       0.2627
      7  OD1       -2.5640  125.8320   29.8840 O.2    37  ASN37      -0.2716
      8  ND2       -4.7810  126.2360   30.0650 N.am   37  ASN37      -0.0877
      9  N          2.8320  124.1780   35.0610 N.3    40  GLU40      -0.1245
     10  CA         3.4230  125.2920   34.3500 C.3    40  GLU40       0.1567
     11  C          2.6320  126.5780   34.4250 C.2    40  GLU40       0.2260
     12  O          3.0800  127.5680   33.8790 O.2    40  GLU40      -0.2867
     13  CB         3.7070  124.9210   32.8920 C.3    40  GLU40       0.0388
     14  CG         2.6240  125.1740   31.8460 C.3    40  GLU40       0.1160
     15  CD         1.4840  124.1750   31.8290 C.2    40  GLU40       0.3649
     16  OE1        1.1910  123.5450   32.8700 O.co2  40  GLU40      -0.2457
     17  OE2        0.8160  124.0910   30.7630 O.co2  40  GLU40      -0.2457
     18  N         -4.6180  128.5880   36.4360 N.3    48  TRP48      -0.1241
     19  CA        -5.2000  128.5730   35.1030 C.3    48  TRP48       0.1605
     20  C         -6.3770  127.6090   35.0140 C.2    48  TRP48       0.2264
     21  O         -6.5910  126.9880   33.9590 O.2    48  TRP48      -0.2867
     22  CB        -4.1440  128.2300   34.0250 C.3    48  TRP48       0.0550
     23  CG        -3.1520  129.3080   33.7460 C.ar   48  TRP48       0.0003
     24  CD1       -3.1690  130.5820   34.2190 C.ar   48  TRP48       0.0946
     25  CD2       -2.0130  129.2140   32.9060 C.ar   48  TRP48       0.0152
     26  NE1       -2.1310  131.2900   33.7030 N.ar   48  TRP48      -0.2442
     27  CE2       -1.4020  130.4850   32.8850 C.ar   48  TRP48       0.0810
     28  CE3       -1.4680  128.2060   32.1340 C.ar   48  TRP48       0.0012
     29  CZ2       -0.2480  130.7510   32.1700 C.ar   48  TRP48       0.0191
     30  CZ3       -0.2940  128.4630   31.4400 C.ar   48  TRP48       0.0001
     31  CH2        0.3110  129.7220   31.4710 C.ar   48  TRP48       0.0015
     32  N          8.9590  124.4740   30.9890 N.3   113  HIS113     -0.1226
     33  CA         8.1020  124.9170   29.9270 C.3   113  HIS113      0.1752
     34  C          8.4400  126.3490   29.5300 C.2   113  HIS113      0.2596
     35  O          9.5750  126.8330   29.6950 O.2   113  HIS113     -0.2718
     36  CB         6.6190  124.7640   30.3860 C.3   113  HIS113      0.0759
     37  CG         5.6760  124.5450   29.2620 C.ar  113  HIS113      0.0818
     38  ND1        5.7440  123.4450   28.4350 N.ar  113  HIS113     -0.2268
     39  CD2        4.6560  125.2960   28.8080 C.ar  113  HIS113      0.1154
     40  CE1        4.8040  123.5400   27.5200 C.ar  113  HIS113      0.1986
     41  NE2        4.1370  124.6560   27.7200 N.ar  113  HIS113     -0.2212
     42  N          7.5210  126.9970   28.8630 N.am  114  TRP114     -0.1976
     43  CA         7.6380  128.4320   28.5480 C.3   114  TRP114      0.1640
     44  C          8.1560  129.2130   29.7440 C.2   114  TRP114      0.2290
     45  O          9.1670  129.8900   29.6620 O.2   114  TRP114     -0.2864
     46  CB         6.2940  128.9670   28.0290 C.3   114  TRP114      0.0576
     47  CG         6.2510  130.4550   27.8240 C.ar  114  TRP114      0.0006
     48  CD1        6.9610  131.1660   26.8960 C.ar  114  TRP114      0.0946
     49  CD2        5.4640  131.4190   28.5500 C.ar  114  TRP114      0.0152
     50  NE1        6.6590  132.5110   26.9940 N.ar  114  TRP114     -0.2442
     51  CE2        5.7640  132.6950   28.0140 C.ar  114  TRP114      0.0810
     52  CE3        4.5450  131.3350   29.5970 C.ar  114  TRP114      0.0012
     53  CZ2        5.1730  133.8760   28.5010 C.ar  114  TRP114      0.0191
     54  CZ3        3.9710  132.4890   30.0770 C.ar  114  TRP114      0.0001
     55  CH2        4.3030  133.7630   29.5400 C.ar  114  TRP114      0.0015
     56  N         12.9290  130.5540   26.6040 N.3   120  GLU120     -0.1245
     57  CA        12.2060  130.2320   25.3820 C.3   120  GLU120      0.1567
     58  C         12.1290  131.3520   24.3520 C.2   120  GLU120      0.2260
     59  O         12.2560  131.0820   23.1620 O.2   120  GLU120     -0.2867
     60  CB        10.7700  129.7680   25.7310 C.3   120  GLU120      0.0388
     61  CG         9.8820  129.4340   24.5630 C.3   120  GLU120      0.1160
     62  CD         8.7260  128.5260   24.9020 C.2   120  GLU120      0.3649
     63  OE1        9.0230  127.5040   25.4940 O.co2 120  GLU120     -0.2457
     64  OE2        7.5450  128.8300   24.5610 O.co2 120  GLU120     -0.2457
     65  N         10.9160  123.6990   26.0890 N.3   159  ASN159     -0.1225
     66  CA         9.5830  123.4870   25.5240 C.3   159  ASN159      0.1785
     67  C          9.5980  123.8180   24.0490 C.2   159  ASN159      0.2597
     68  O          9.7750  122.9070   23.2520 O.2   159  ASN159     -0.2718
     69  CB         8.5230  124.3090   26.2420 C.3   159  ASN159      0.1169
     70  CG         7.1580  124.2060   25.5790 C.2   159  ASN159      0.2627
     71  OD1        6.7230  123.1250   25.2340 O.2   159  ASN159     -0.2716
     72  ND2        6.4510  125.3370   25.4640 N.am  159  ASN159     -0.0877
     73  N          9.4970  125.1020   23.7080 N.am  160  GLU160     -0.1979
     74  CA         9.3290  125.5720   22.3280 C.3   160  GLU160      0.1602
     75  C         10.3030  126.7470   22.0500 C.2   160  GLU160      0.2287
     76  O          9.8810  127.8830   21.8420 O.2   160  GLU160     -0.2864
     77  CB         7.8840  126.0560   22.1310 C.3   160  GLU160      0.0415
     78  CG         7.5560  126.6110   20.7530 C.3   160  GLU160      0.1163
     79  CD         6.0780  126.9740   20.6120 C.2   160  GLU160      0.3649
     80  OE1        5.5770  127.8140   21.4000 O.co2 160  GLU160     -0.2457
     81  OE2        5.3920  126.4250   19.6970 O.co2 160  GLU160     -0.2457
     82  N         11.6140  125.8310   17.7260 N.3   201  VAL201     -0.1231
     83  CA        10.1780  126.1500   17.8190 C.3   201  VAL201      0.1692
     84  C          9.3020  124.8570   17.7330 C.2   201  VAL201      0.2592
     85  O          8.1120  124.8870   17.4560 O.2   201  VAL201     -0.2718
     86  CB         9.8130  127.4330   16.9520 C.3   201  VAL201      0.0266
     87  CG1       10.4570  127.4520   15.5870 C.3   201  VAL201      0.0020
     88  CG2        8.3380  127.7630   16.8860 C.3   201  VAL201      0.0020
     89  N          9.9350  123.7290   18.0810 N.am  202  THR202     -0.1953
     90  CA         9.3600  122.3820   17.9800 C.3   202  THR202      0.1897
     91  C          8.5690  122.2300   16.7090 C.2   202  THR202      0.2313
     92  O          7.5330  121.6240   16.6720 O.2   202  THR202     -0.2863
     93  CB         8.5780  122.0080   19.2720 C.3   202  THR202      0.1794
     94  OG1        7.6220  123.0040   19.5810 O.3   202  THR202     -0.2208
     95  CG2        9.5030  121.8810   20.4490 C.3   202  THR202      0.0378
     96  N          6.5020  119.5190   18.1370 N.3   228  HIS228     -0.1241
     97  CA         5.0810  119.6570   18.3630 C.3   228  HIS228      0.1621
     98  C          4.3640  119.6950   17.0190 C.2   228  HIS228      0.2264
     99  O          5.0030  119.7970   16.0080 O.2   228  HIS228     -0.2867
    100  CB         4.8310  120.9050   19.1850 C.3   228  HIS228      0.0745
    101  CG         5.4210  120.8420   20.5620 C.ar  228  HIS228      0.0817
    102  ND1        5.4120  121.9140   21.4120 N.ar  228  HIS228     -0.2268
    103  CD2        6.0800  119.8480   21.2170 C.ar  228  HIS228      0.1154
    104  CE1        6.0330  121.5880   22.5360 C.ar  228  HIS228      0.1986
    105  NE2        6.4550  120.3380   22.4410 N.ar  228  HIS228     -0.2212
    106  N          0.6320  121.3900   15.5040 N.3   230  TYR230     -0.1241
    107  CA        -0.6410  122.0950   15.5700 C.3   230  TYR230      0.1605
    108  C         -1.0670  122.5160   14.1360 C.2   230  TYR230      0.2264
    109  O         -1.6850  123.5920   13.9140 O.2   230  TYR230     -0.2867
    110  CB        -0.4640  123.3050   16.4670 C.3   230  TYR230      0.0534
    111  CG        -0.4000  122.9510   17.9490 C.ar  230  TYR230     -0.0201
    112  CD1       -1.5410  122.5300   18.6210 C.ar  230  TYR230     -0.0009
    113  CD2        0.7840  123.0630   18.6660 C.ar  230  TYR230     -0.0009
    114  CE1       -1.5140  122.2380   19.9830 C.ar  230  TYR230      0.0417
    115  CE2        0.8250  122.7720   20.0260 C.ar  230  TYR230      0.0417
    116  CZ        -0.3280  122.3510   20.6580 C.ar  230  TYR230      0.1957
    117  OH        -0.2810  122.0340   21.9230 O.3   230  TYR230     -0.2866
    118  N         -6.1430  125.7120   16.1500 N.3   237  LEU237     -0.1245
    119  CA        -6.1190  126.8000   17.1610 C.3   237  LEU237      0.1561
    120  C         -6.6470  128.1930   16.7660 C.2   237  LEU237      0.2260
    121  O         -6.9000  129.0160   17.6520 O.2   237  LEU237     -0.2867
    122  CB        -4.6780  127.0140   17.6300 C.3   237  LEU237      0.0270
    123  CG        -3.9110  125.8550   18.2550 C.3   237  LEU237      0.0019
    124  CD1       -2.4080  126.1120   18.2570 C.3   237  LEU237      0.0001
    125  CD2       -4.4160  125.5960   19.6590 C.3   237  LEU237      0.0001
    126  N          3.3750  117.6460   21.8790 N.3   295  GLU295     -0.1245
    127  CA         2.0580  118.2420   21.9240 C.3   295  GLU295      0.1567
    128  C          1.3360  118.1720   20.5480 C.2   295  GLU295      0.2260
    129  O          1.9610  118.3960   19.4970 O.2   295  GLU295     -0.2867
    130  CB         2.2260  119.7490   22.2920 C.3   295  GLU295      0.0388
    131  CG         2.7730  120.0610   23.6590 C.3   295  GLU295      0.1160
    132  CD         2.8190  121.6020   23.9620 C.2   295  GLU295      0.3649
    133  OE1        2.1050  122.3930   23.3420 O.co2 295  GLU295     -0.2457
    134  OE2        3.5390  122.0140   24.8770 O.co2 295  GLU295     -0.2457
    135  N         -2.1990  117.2390   23.6690 N.3   337  TRP337     -0.1241
    136  CA        -2.2580  118.4810   24.4430 C.3   337  TRP337      0.1605
    137  C         -3.6120  118.7830   25.0520 C.2   337  TRP337      0.2264
    138  O         -4.5210  119.2180   24.3770 O.2   337  TRP337     -0.2867
    139  CB        -1.8510  119.7110   23.6010 C.3   337  TRP337      0.0550
    140  CG        -1.8380  120.9870   24.4810 C.ar  337  TRP337      0.0003
    141  CD1       -2.7240  121.9560   24.4420 C.ar  337  TRP337      0.0946
    142  CD2       -0.9540  121.2980   25.5650 C.ar  337  TRP337      0.0152
    143  NE1       -2.4480  122.9010   25.3490 N.ar  337  TRP337     -0.2442
    144  CE2       -1.3550  122.5360   26.0620 C.ar  337  TRP337      0.0810
    145  CE3        0.2020  120.7070   26.0810 C.ar  337  TRP337      0.0012
    146  CZ2       -0.6950  123.1810   27.0970 C.ar  337  TRP337      0.0191
    147  CZ3        0.8400  121.2860   27.1190 C.ar  337  TRP337      0.0001
    148  CH2        0.4110  122.5550   27.6170 C.ar  337  TRP337      0.0015
    149  N         -5.4490  121.0310   27.8570 N.3   339  ASN339     -0.1240
    150  CA        -5.3230  122.2300   28.6580 C.3   339  ASN339      0.1653
    151  C         -6.3010  122.2400   29.8160 C.2   339  ASN339      0.2266
    152  O         -6.4040  123.2260   30.5050 O.2   339  ASN339     -0.2867
    153  CB        -5.3890  123.5220   27.7840 C.3   339  ASN339      0.1155
    154  CG        -6.7880  123.9090   27.2830 C.2   339  ASN339      0.2627
    155  OD1       -7.8170  123.2270   27.4660 O.2   339  ASN339     -0.2716
    156  ND2       -6.8280  125.0870   26.7050 N.am  339  ASN339     -0.0877
@<TRIPOS>BOND
     1   109   108    2
     2   108   107    1
     3   106   107    1
     4   107   110    1
     5    87    86    1
     6    99    98    2
     7   118   119    1
     8   110   111    1
     9    92    91    2
    10    91    90    1
    11   120   119    1
    12   120   121    2
    13    88    86    1
    14    86    83    1
    15    98    97    1
    16   119   122    1
    17    85    84    2
    18   122   123    1
    19    82    83    1
    20    84    83    1
    21    84    89   am
    22   111   112   ar
    23   111   113   ar
    24    90    89    1
    25    90    93    1
    26    96    97    1
    27   123   124    1
    28   123   125    1
    29    97   100    1
    30   112   114   ar
    31   113   115   ar
    32   100   101    1
    33    93    94    1
    34    93    95    1
    35   129   128    2
    36    81    79   ar
    37   114   116   ar
    38   115   116   ar
    39   128   127    1
    40   101   103   ar
    41   101   102   ar
    42    79    78    1
    43    79    80   ar
    44   116   117    1
    45    78    77    1
    46   103   105   ar
    47   102   104   ar
    48    76    75    2
    49   126   127    1
    50   127   130    1
    51    75    74    1
    52    77    74    1
    53   130   131    1
    54    74    73    1
    55   105   104   ar
    56    59    58    2
    57    68    67    2
    58   133   132   ar
    59   139   136    1
    60   139   140    1
    61   131   132    1
    62   135   136    1
    63    73    67   am
    64   132   134   ar
    65    67    66    1
    66    58    57    1
    67   138   137    2
    68   141   140   ar
    69   141   143   ar
    70   136   137    1
    71   140   142   ar
    72    64    62   ar
    73    61    62    1
    74    61    60    1
    75    62    63   ar
    76    71    70    2
    77   143   144   ar
    78    57    60    1
    79    57    56    1
    80    72    70   am
    81    66    65    1
    82    66    69    1
    83   142   144   ar
    84   142   145   ar
    85    70    69    1
    86   144   146   ar
    87   145   147   ar
    88   156   154   am
    89    48    50   ar
    90    48    47   ar
    91    50    51   ar
    92   146   148   ar
    93   147   148   ar
    94   154   155    2
    95   154   153    1
    96    40    41   ar
    97    40    38   ar
    98    41    39   ar
    99   153   150    1
   100    47    46    1
   101    47    49   ar
   102   149   150    1
   103    51    53   ar
   104    51    49   ar
   105    46    43    1
   106    38    37   ar
   107    53    55   ar
   108    43    42    1
   109    43    44    1
   110    49    52   ar
   111   150   151    1
   112    39    37   ar
   113    42    34   am
   114    37    36    1
   115    34    35    2
   116    34    33    1
   117    55    54   ar
   118    52    54   ar
   119    45    44    2
   120   151   152    2
   121     7     6    2
   122    33    36    1
   123    33    32    1
   124     8     6   am
   125     6     5    1
   126    17    15   ar
   127     1     2    1
   128    30    31   ar
   129    30    28   ar
   130    31    29   ar
   131     5     2    1
   132    15    14    1
   133    15    16   ar
   134    14    13    1
   135     2     3    1
   136    28    25   ar
   137    29    27   ar
   138    27    25   ar
   139    27    26   ar
   140    13    10    1
   141    25    23   ar
   142     3     4    2
   143    26    24   ar
   144    23    22    1
   145    23    24   ar
   146    12    11    2
   147    21    20    2
   148    22    19    1
   149    10    11    1
   150    10     9    1
   151    20    19    1
   152    19    18    1
