@<TRIPOS>MOLECULE
tmp/5oyfA01.pdb
 104 99 0 0 0
SMALL
GASTEIGER

@<TRIPOS>ATOM
      1  N       -138.0230 -191.1930  314.6290 N.3    34  GLN34      -0.1231
      2  CA      -137.5550 -189.9870  313.9320 C.3    34  GLN34       0.1698
      3  C       -138.3210 -188.7190  314.3950 C.2    34  GLN34       0.2592
      4  O       -137.7530 -187.6240  314.3570 O.2    34  GLN34      -0.2718
      5  CB      -137.5670 -190.1720  312.3940 C.3    34  GLN34       0.0381
      6  CG      -138.9560 -190.1020  311.7180 C.3    34  GLN34       0.0905
      7  CD      -139.8910 -191.2520  312.0210 C.2    34  GLN34       0.2608
      8  OE1     -139.4880 -192.3330  312.4650 O.2    34  GLN34      -0.2717
      9  NE2     -141.1720 -191.0370  311.7850 N.am   34  GLN34      -0.0878
     10  N       -139.5780 -188.8900  314.8980 N.am   35  ASP35      -0.1974
     11  CA      -140.4400 -187.8160  315.4300 C.3    35  ASP35       0.1709
     12  C       -139.8380 -187.1750  316.6950 C.2    35  ASP35       0.2293
     13  O       -140.2440 -186.0710  317.0770 O.2    35  ASP35      -0.2864
     14  CB      -141.8610 -188.3350  315.7200 C.3    35  ASP35       0.1436
     15  CG      -142.9220 -187.2510  315.8780 C.2    35  ASP35       0.3671
     16  OD1     -143.0870 -186.4340  314.9380 O.co2  35  ASP35      -0.2456
     17  OD2     -143.6210 -187.2470  316.9200 O.co2  35  ASP35      -0.2456
     18  N       -136.9230 -185.8650  316.9120 N.3    37  TYR37      -0.1227
     19  CA      -135.9370 -184.8430  316.5390 C.3    37  TYR37       0.1736
     20  C       -136.4520 -183.7400  315.6410 C.2    37  TYR37       0.2595
     21  O       -137.1760 -184.0060  314.6940 O.2    37  TYR37      -0.2718
     22  CB      -134.7010 -185.4940  315.8950 C.3    37  TYR37       0.0548
     23  CG      -134.1440 -186.6160  316.7360 C.ar   37  TYR37      -0.0200
     24  CD1     -133.3160 -186.3510  317.8210 C.ar   37  TYR37      -0.0009
     25  CD2     -134.5090 -187.9370  316.5000 C.ar   37  TYR37      -0.0009
     26  CE1     -132.8650 -187.3690  318.6500 C.ar   37  TYR37       0.0417
     27  CE2     -134.0790 -188.9650  317.3330 C.ar   37  TYR37       0.0417
     28  CZ      -133.2540 -188.6730  318.4060 C.ar   37  TYR37       0.1957
     29  OH      -132.7940 -189.6660  319.2170 O.3    37  TYR37      -0.2866
     30  N       -136.0250 -182.5050  315.9200 N.am   38  GLN38      -0.1965
     31  CA      -136.4020 -181.3040  315.1790 C.3    38  GLN38       0.1733
     32  C       -135.0990 -180.6790  314.6860 C.2    38  GLN38       0.2616
     33  O       -134.2280 -180.3620  315.5010 O.2    38  GLN38      -0.2715
     34  CB      -137.1620 -180.3360  316.1070 C.3    38  GLN38       0.0408
     35  CG      -137.7500 -179.1080  315.4150 C.3    38  GLN38       0.0908
     36  CD      -137.9310 -177.9650  316.3820 C.2    38  GLN38       0.2608
     37  OE1     -138.6070 -178.0840  317.4130 O.2    38  GLN38      -0.2717
     38  NE2     -137.3270 -176.8270  316.0670 N.am   38  GLN38      -0.0878
     39  N       -134.9640 -180.5170  313.3620 N.am   39  LEU39      -0.1977
     40  CA      -133.7530 -179.9700  312.7410 C.3    39  LEU39       0.1596
     41  C       -133.6570 -178.4430  312.8790 C.2    39  LEU39       0.2287
     42  O       -134.5960 -177.7390  312.5120 O.2    39  LEU39      -0.2864
     43  CB      -133.6290 -180.4450  311.2780 C.3    39  LEU39       0.0297
     44  CG      -133.6960 -181.9840  311.0790 C.3    39  LEU39       0.0022
     45  CD1     -134.1450 -182.3460  309.6830 C.3    39  LEU39       0.0001
     46  CD2     -132.3740 -182.6730  311.4380 C.3    39  LEU39       0.0001
     47  N       -127.3980 -184.8430  313.8740 N.3    65  VAL65      -0.1245
     48  CA      -128.0780 -185.8440  313.0360 C.3    65  VAL65       0.1561
     49  C       -127.3190 -185.9650  311.7110 C.2    65  VAL65       0.2260
     50  O       -127.1110 -184.9620  311.0360 O.2    65  VAL65      -0.2867
     51  CB      -129.5960 -185.5190  312.8200 C.3    65  VAL65       0.0252
     52  CG1     -130.2620 -186.5510  311.9100 C.3    65  VAL65       0.0019
     53  CG2     -130.3450 -185.4190  314.1500 C.3    65  VAL65       0.0019
     54  N       -127.5820 -187.5900  308.1660 N.3    67  ILE67      -0.1245
     55  CA      -128.4870 -188.2290  307.2240 C.3    67  ILE67       0.1561
     56  C       -127.6170 -188.8600  306.1710 C.2    67  ILE67       0.2260
     57  O       -126.7840 -188.1720  305.5730 O.2    67  ILE67      -0.2867
     58  CB      -129.5400 -187.2460  306.6330 C.3    67  ILE67       0.0252
     59  CG1     -130.2110 -186.4020  307.7500 C.3    67  ILE67       0.0019
     60  CG2     -130.5860 -188.0410  305.8290 C.3    67  ILE67       0.0019
     61  CD1     -130.9790 -185.0860  307.2730 C.3    67  ILE67       0.0001
     62  N       -132.3620 -193.7590  313.2710 N.3    99  VAL99      -0.1231
     63  CA      -133.7260 -193.4540  312.8120 C.3    99  VAL99       0.1692
     64  C       -133.9140 -193.5780  311.2830 C.2    99  VAL99       0.2592
     65  O       -132.9560 -193.5380  310.5270 O.2    99  VAL99      -0.2718
     66  CB      -134.2640 -192.0870  313.3270 C.3    99  VAL99       0.0266
     67  CG1     -134.3980 -192.0800  314.8560 C.3    99  VAL99       0.0020
     68  CG2     -133.4160 -190.9050  312.8250 C.3    99  VAL99       0.0020
     69  N       -135.1750 -193.6840  310.8400 N.am  100  LYS100     -0.1966
     70  CA      -135.4660 -193.7980  309.4210 C.3   100  LYS100      0.1728
     71  C       -136.6030 -192.8580  309.0900 C.2   100  LYS100      0.2616
     72  O       -137.5740 -192.7840  309.8520 O.2   100  LYS100     -0.2715
     73  CB      -135.7950 -195.2600  309.0740 C.3   100  LYS100      0.0311
     74  CG      -135.9180 -195.5500  307.5690 C.3   100  LYS100      0.0038
     75  CD      -136.5600 -196.9130  307.2970 C.3   100  LYS100      0.0206
     76  CE      -135.6360 -198.1020  307.4890 C.3   100  LYS100      0.1093
     77  NZ      -136.3980 -199.3760  307.6240 N.3   100  LYS100     -0.1314
     78  N       -136.4470 -192.0720  308.0090 N.am  101  ASP101     -0.1958
     79  CA      -137.4850 -191.1360  307.5640 C.3   101  ASP101      0.1825
     80  C       -138.5290 -191.9370  306.7830 C.2   101  ASP101      0.2464
     81  O       -138.1540 -192.5730  305.8030 O.2   101  ASP101     -0.2730
     82  CB      -136.9010 -190.0080  306.6950 C.3   101  ASP101      0.1450
     83  CG      -137.9420 -189.1430  306.0010 C.2   101  ASP101      0.3671
     84  OD1     -138.9880 -188.8350  306.6300 O.co2 101  ASP101     -0.2456
     85  OD2     -137.6960 -188.7370  304.8540 O.co2 101  ASP101     -0.2456
     86  N       -139.8170 -191.9710  307.1980 N.am  102  PRO102     -0.2727
     87  CA      -140.8050 -192.7830  306.4530 C.3   102  PRO102      0.1402
     88  C       -141.1340 -192.2460  305.0610 C.2   102  PRO102      0.2269
     89  O       -141.6340 -192.9860  304.2110 O.2   102  PRO102     -0.2865
     90  CB      -142.0480 -192.7220  307.3470 C.3   102  PRO102      0.0296
     91  CG      -141.9320 -191.4010  308.0560 C.3   102  PRO102      0.0237
     92  CD      -140.4520 -191.2790  308.3430 C.3   102  PRO102      0.0939
     93  N       -134.8600 -192.8850  303.9250 N.3   106  THR106     -0.1218
     94  CA      -133.4280 -192.7070  304.1670 C.3   106  THR106      0.1862
     95  C       -133.1220 -192.8120  305.6710 C.2   106  THR106      0.2287
     96  O       -133.8740 -192.2640  306.4890 O.2   106  THR106     -0.2866
     97  CB      -132.8880 -191.4290  303.5100 C.3   106  THR106      0.1770
     98  OG1     -133.5000 -190.2890  304.1060 O.3   106  THR106     -0.2211
     99  CG2     -133.1070 -191.4020  301.9970 C.3   106  THR106      0.0375
    100  N       -130.7890 -192.2980  309.2650 N.3   108  ALA108     -0.1245
    101  CA      -129.9440 -191.2880  309.8710 C.3   108  ALA108      0.1562
    102  C       -129.3600 -191.8380  311.1570 C.2   108  ALA108      0.2260
    103  O       -129.9810 -192.6830  311.8290 O.2   108  ALA108     -0.2867
    104  CB      -130.7180 -190.0020  310.1370 C.3   108  ALA108      0.0290
@<TRIPOS>BOND
     1    99    97    1
     2    97    98    1
     3    97    94    1
     4    93    94    1
     5    94    95    1
     6    89    88    2
     7    85    83   ar
     8    88    87    1
     9    57    56    2
    10    95    96    2
    11    81    80    2
    12    60    58    1
    13    83    84   ar
    14    83    82    1
    15    56    55    1
    16    87    86    1
    17    87    90    1
    18    58    55    1
    19    58    59    1
    20    82    79    1
    21    80    86   am
    22    80    79    1
    23    86    92    1
    24    55    54    1
    25    61    59    1
    26    75    76    1
    27    75    74    1
    28    90    91    1
    29    76    77    1
    30    79    78    1
    31    74    73    1
    32    78    71   am
    33    91    92    1
    34    73    70    1
    35    71    70    1
    36    71    72    2
    37   100   101    1
    38    70    69    1
    39    45    44    1
    40   101   104    1
    41   101   102    1
    42    65    64    2
    43    69    64   am
    44    50    49    2
    45    44    43    1
    46    44    46    1
    47   102   103    2
    48    43    40    1
    49    64    63    1
    50    49    48    1
    51     6     7    1
    52     6     5    1
    53     9     7   am
    54    52    51    1
    55     7     8    2
    56     5     2    1
    57    42    41    2
    58    40    41    1
    59    40    39    1
    60    63    62    1
    61    63    66    1
    62    51    48    1
    63    51    53    1
    64    68    66    1
    65    48    47    1
    66    66    67    1
    67    39    32   am
    68     2     3    1
    69     2     1    1
    70     4     3    2
    71     3    10   am
    72    32    31    1
    73    32    33    2
    74    21    20    2
    75    10    11    1
    76    16    15   ar
    77    31    30    1
    78    31    34    1
    79    35    34    1
    80    35    36    1
    81    11    14    1
    82    11    12    1
    83    20    30   am
    84    20    19    1
    85    14    15    1
    86    15    17   ar
    87    22    19    1
    88    22    23    1
    89    38    36   am
    90    36    37    2
    91    25    23   ar
    92    25    27   ar
    93    19    18    1
    94    12    13    2
    95    23    24   ar
    96    27    28   ar
    97    24    26   ar
    98    28    26   ar
    99    28    29    1
