@<TRIPOS>MOLECULE
tmp/5p2pA00.pdb
 190 190 0 0 0
SMALL
GASTEIGER

@<TRIPOS>ATOM
      1  N        -17.7290  -14.8060  -10.7760 N.3     2  LEU2       -0.1245
      2  CA       -18.6830  -15.0180  -11.8380 C.3     2  LEU2        0.1561
      3  C        -18.8630  -13.8270  -12.7660 C.2     2  LEU2        0.2260
      4  O        -19.0580  -14.0520  -13.9650 O.2     2  LEU2       -0.2867
      5  CB       -20.0410  -15.5580  -11.3590 C.3     2  LEU2        0.0270
      6  CG       -20.3040  -17.0350  -11.6190 C.3     2  LEU2        0.0019
      7  CD1      -18.9970  -17.8020  -11.7930 C.3     2  LEU2        0.0001
      8  CD2      -21.1120  -17.6360  -10.4850 C.3     2  LEU2        0.0001
      9  N        -16.1380  -13.5880  -15.4480 N.3     5  PHE5       -0.1227
     10  CA       -16.2500  -14.6700  -16.4060 C.3     5  PHE5        0.1736
     11  C        -17.1040  -14.2140  -17.5660 C.2     5  PHE5        0.2595
     12  O        -16.7290  -14.3450  -18.7210 O.2     5  PHE5       -0.2718
     13  CB       -16.9120  -15.8900  -15.7180 C.3     5  PHE5        0.0547
     14  CG       -16.9210  -17.1810  -16.4970 C.ar    5  PHE5       -0.0202
     15  CD1      -16.0450  -17.4020  -17.5600 C.ar    5  PHE5       -0.0042
     16  CD2      -17.8340  -18.1820  -16.1640 C.ar    5  PHE5       -0.0042
     17  CE1      -16.0570  -18.5840  -18.2930 C.ar    5  PHE5       -0.0003
     18  CE2      -17.8610  -19.3930  -16.8590 C.ar    5  PHE5       -0.0003
     19  CZ       -16.9690  -19.5720  -17.9200 C.ar    5  PHE5       -0.0000
     20  N        -18.2710  -13.6710  -17.2490 N.am    6  ARG6       -0.1980
     21  CA       -19.1960  -13.1110  -18.2200 C.3     6  ARG6        0.1597
     22  C        -18.5250  -12.1810  -19.2190 C.2     6  ARG6        0.2287
     23  O        -18.7810  -12.2290  -20.4110 O.2     6  ARG6       -0.2864
     24  CB       -20.3520  -12.3930  -17.5560 C.3     6  ARG6        0.0334
     25  CG       -21.4890  -12.3400  -18.5500 C.3     6  ARG6        0.0492
     26  CD       -22.4320  -11.1630  -18.3710 C.3     6  ARG6        0.2205
     27  NE       -22.7470  -10.4870  -19.6430 N.pl3   6  ARG6       -0.0865
     28  CZ       -23.6580  -10.8780  -20.5610 C.cat   6  ARG6        0.5346
     29  NH1      -24.3830  -11.9800  -20.4270 N.pl3   6  ARG6        0.1354
     30  NH2      -23.8590  -10.1470  -21.6570 N.pl3   6  ARG6        0.1354
     31  N        -15.8830  -13.9340  -21.5700 N.3     9  ILE9       -0.1245
     32  CA       -16.4340  -14.6180  -22.7350 C.3     9  ILE9        0.1561
     33  C        -16.6690  -13.6440  -23.9080 C.2     9  ILE9        0.2260
     34  O        -16.5310  -13.9940  -25.0840 O.2     9  ILE9       -0.2867
     35  CB       -17.7170  -15.3410  -22.3160 C.3     9  ILE9        0.0252
     36  CG1      -17.3960  -16.5100  -21.3640 C.3     9  ILE9        0.0019
     37  CG2      -18.5620  -15.7740  -23.5290 C.3     9  ILE9        0.0019
     38  CD1      -18.6360  -16.9820  -20.6180 C.3     9  ILE9        0.0001
     39  N        -23.3970  -14.0230  -23.5040 N.3    18  PRO18      -0.2102
     40  CA       -23.0860  -15.1390  -22.6200 C.3    18  PRO18       0.1504
     41  C        -24.2040  -15.7630  -21.8460 C.2    18  PRO18       0.2575
     42  O        -24.3270  -16.9710  -21.8950 O.2    18  PRO18      -0.2718
     43  CB       -21.8960  -14.7900  -21.7530 C.3    18  PRO18       0.0282
     44  CG       -21.3020  -13.5620  -22.4380 C.3    18  PRO18       0.0208
     45  CD       -22.3820  -12.9470  -23.3220 C.3    18  PRO18       0.0893
     46  N        -25.0270  -14.9720  -21.1790 N.am   19  LEU19      -0.1980
     47  CA       -26.1360  -15.5000  -20.4360 C.3    19  LEU19       0.1596
     48  C        -27.1600  -16.0970  -21.3450 C.2    19  LEU19       0.2287
     49  O        -27.7390  -17.1280  -21.0450 O.2    19  LEU19      -0.2864
     50  CB       -26.7960  -14.4490  -19.5530 C.3    19  LEU19       0.0297
     51  CG       -25.9750  -14.1870  -18.3040 C.3    19  LEU19       0.0022
     52  CD1      -26.3800  -12.8200  -17.7690 C.3    19  LEU19       0.0001
     53  CD2      -26.2320  -15.2750  -17.2630 C.3    19  LEU19       0.0001
     54  N        -24.8150  -19.1500  -23.7320 N.3    22  PHE22      -0.1227
     55  CA       -24.1620  -20.2010  -22.9720 C.3    22  PHE22       0.1736
     56  C        -24.8590  -20.8060  -21.7730 C.2    22  PHE22       0.2595
     57  O        -24.5990  -21.9200  -21.3920 O.2    22  PHE22      -0.2718
     58  CB       -22.7080  -19.8200  -22.6780 C.3    22  PHE22       0.0547
     59  CG       -22.0000  -19.5350  -23.9800 C.ar   22  PHE22      -0.0202
     60  CD1      -21.9020  -20.5160  -24.9740 C.ar   22  PHE22      -0.0042
     61  CD2      -21.4690  -18.2710  -24.2470 C.ar   22  PHE22      -0.0042
     62  CE1      -21.2480  -20.2600  -26.1810 C.ar   22  PHE22      -0.0003
     63  CE2      -20.8010  -18.0080  -25.4460 C.ar   22  PHE22      -0.0003
     64  CZ       -20.6930  -19.0040  -26.4160 C.ar   22  PHE22      -0.0000
     65  N        -25.7500  -20.0860  -21.1470 N.am   23  ASN23      -0.1974
     66  CA       -26.4340  -20.6160  -19.9970 C.3    23  ASN23       0.1688
     67  C        -27.5130  -21.5570  -20.4370 C.2    23  ASN23       0.2292
     68  O        -28.1430  -21.2880  -21.4500 O.2    23  ASN23      -0.2864
     69  CB       -27.1280  -19.4800  -19.2450 C.3    23  ASN23       0.1181
     70  CG       -27.5080  -19.8390  -17.8240 C.2    23  ASN23       0.2629
     71  OD1      -28.3430  -19.1380  -17.2440 O.2    23  ASN23      -0.2716
     72  ND2      -26.8790  -20.8520  -17.2390 N.am   23  ASN23      -0.0877
     73  N        -24.2670  -29.7970  -18.9240 N.3    28  TYR28      -0.1227
     74  CA       -23.2660  -29.1360  -18.1250 C.3    28  TYR28       0.1736
     75  C        -23.2830  -27.6220  -18.1600 C.2    28  TYR28       0.2596
     76  O        -22.8130  -27.0910  -17.1640 O.2    28  TYR28      -0.2718
     77  CB       -21.8540  -29.6620  -18.4640 C.3    28  TYR28       0.0548
     78  CG       -21.7070  -31.0580  -17.9040 C.ar   28  TYR28      -0.0200
     79  CD1      -21.3740  -31.2520  -16.5590 C.ar   28  TYR28      -0.0009
     80  CD2      -21.9380  -32.2050  -18.6760 C.ar   28  TYR28      -0.0009
     81  CE1      -21.2720  -32.5450  -16.0390 C.ar   28  TYR28       0.0417
     82  CE2      -21.8480  -33.5050  -18.1750 C.ar   28  TYR28       0.0417
     83  CZ       -21.5160  -33.6660  -16.8320 C.ar   28  TYR28       0.1957
     84  OH       -21.4580  -34.9110  -16.2730 O.3    28  TYR28      -0.2866
     85  N        -23.7320  -26.9150  -19.2200 N.am   29  CYS29      -0.1956
     86  CA       -23.6370  -25.4410  -19.2150 C.3    29  CYS29       0.1843
     87  C        -24.6540  -24.7730  -18.3100 C.2    29  CYS29       0.2626
     88  O        -25.8540  -24.8790  -18.5650 O.2    29  CYS29      -0.2714
     89  CB       -23.6840  -24.7910  -20.6130 C.3    29  CYS29       0.0997
     90  SG       -22.6000  -25.6510  -21.7410 S.3    29  CYS29      -0.0797
     91  N        -24.1630  -24.1000  -17.2750 N.am   30  GLY30      -0.1940
     92  CA       -25.0750  -23.5070  -16.3080 C.3    30  GLY30       0.2014
     93  C        -24.8260  -24.2020  -14.9670 C.2    30  GLY30       0.2639
     94  O        -24.0360  -25.1630  -14.8760 O.2    30  GLY30      -0.2714
     95  N        -25.4800  -23.7250  -13.8960 N.am   31  TRP31      -0.1959
     96  CA       -25.3200  -24.2560  -12.5410 C.3    31  TRP31       0.1771
     97  C        -25.5700  -25.7590  -12.4030 C.2    31  TRP31       0.2620
     98  O        -26.6890  -26.2520  -12.5790 O.2    31  TRP31      -0.2715
     99  CB       -26.0700  -23.4370  -11.4590 C.3    31  TRP31       0.0590
    100  CG       -25.8500  -23.8990  -10.0380 C.ar   31  TRP31       0.0006
    101  CD1      -24.6610  -23.9650   -9.3650 C.ar   31  TRP31       0.0946
    102  CD2      -26.8680  -24.3500   -9.1370 C.ar   31  TRP31       0.0152
    103  NE1      -24.8890  -24.3710   -8.0740 N.ar   31  TRP31      -0.2442
    104  CE2      -26.2410  -24.5920   -7.9060 C.ar   31  TRP31       0.0810
    105  CE3      -28.2410  -24.4900   -9.2410 C.ar   31  TRP31       0.0012
    106  CZ2      -26.9620  -25.0590   -6.8200 C.ar   31  TRP31       0.0191
    107  CZ3      -28.9550  -24.9440   -8.1620 C.ar   31  TRP31       0.0001
    108  CH2      -28.3160  -25.2440   -6.9680 C.ar   31  TRP31       0.0015
    109  N        -24.5080  -26.4970  -12.0930 N.am   32  GLY32      -0.1954
    110  CA       -24.6570  -27.9270  -11.9520 C.3    32  GLY32       0.1869
    111  C        -24.2920  -28.5990  -13.2650 C.2    32  GLY32       0.2309
    112  O        -23.8010  -27.9890  -14.2050 O.2    32  GLY32      -0.2863
    113  N        -17.9190  -26.9340  -21.1350 N.3    45  CYS45      -0.1235
    114  CA       -18.6630  -26.6850  -19.9090 C.3    45  CYS45       0.1677
    115  C        -18.3310  -27.6790  -18.8000 C.2    45  CYS45       0.2270
    116  O        -17.9630  -27.3010  -17.6930 O.2    45  CYS45      -0.2867
    117  CB       -20.1830  -26.7000  -20.1650 C.3    45  CYS45       0.0956
    118  SG       -20.7150  -25.2290  -21.0900 S.3    45  CYS45      -0.0801
    119  N        -15.0640  -27.0130  -17.2590 N.3    48  HIS48      -0.1226
    120  CA       -14.9900  -25.8050  -16.4520 C.3    48  HIS48       0.1752
    121  C        -15.5290  -26.1790  -15.0550 C.2    48  HIS48       0.2596
    122  O        -14.9320  -25.9010  -14.0100 O.2    48  HIS48      -0.2718
    123  CB       -15.8080  -24.7300  -17.1940 C.3    48  HIS48       0.0759
    124  CG       -15.8000  -23.4230  -16.4870 C.ar   48  HIS48       0.0818
    125  ND1      -16.9560  -22.9380  -15.8700 N.ar   48  HIS48      -0.2268
    126  CD2      -14.7440  -22.5870  -16.2700 C.ar   48  HIS48       0.1154
    127  CE1      -16.5780  -21.7990  -15.3190 C.ar   48  HIS48       0.1986
    128  NE2      -15.2820  -21.5580  -15.5530 N.ar   48  HIS48      -0.2212
    129  N        -16.6660  -26.8720  -15.0600 N.am   49  ASP49      -0.1960
    130  CA       -17.2300  -27.4300  -13.8610 C.3    49  ASP49       0.1840
    131  C        -16.1240  -28.1780  -13.1060 C.2    49  ASP49       0.2622
    132  O        -15.8290  -27.9190  -11.9550 O.2    49  ASP49      -0.2715
    133  CB       -18.3870  -28.3970  -14.2120 C.3    49  ASP49       0.1450
    134  CG       -19.6560  -27.6880  -14.5840 C.2    49  ASP49       0.3671
    135  OD1      -19.7270  -26.5140  -14.8450 O.co2  49  ASP49      -0.2456
    136  OD2      -20.7370  -28.3970  -14.5160 O.co2  49  ASP49      -0.2456
    137  N        -15.4460  -29.1300  -13.7240 N.am   50  ASN50      -0.1972
    138  CA       -14.3940  -29.8710  -13.0760 C.3    50  ASN50       0.1688
    139  C        -13.2080  -29.0370  -12.6780 C.2    50  ASN50       0.2292
    140  O        -12.5800  -29.3430  -11.6800 O.2    50  ASN50      -0.2864
    141  CB       -13.9470  -31.1120  -13.8470 C.3    50  ASN50       0.1181
    142  CG       -15.0880  -32.1160  -13.9100 C.2    50  ASN50       0.2629
    143  OD1      -15.1500  -32.8980  -14.8720 O.2    50  ASN50      -0.2716
    144  ND2      -15.9920  -32.1170  -12.9210 N.am   50  ASN50      -0.0877
    145  N        -13.3950  -25.8700  -11.7090 N.3    52  TYR52      -0.1227
    146  CA       -13.8440  -25.2150  -10.4870 C.3    52  TYR52       0.1736
    147  C        -13.7710  -26.1570   -9.2820 C.2    52  TYR52       0.2595
    148  O        -13.4340  -25.7540   -8.1480 O.2    52  TYR52      -0.2718
    149  CB       -15.2960  -24.7030  -10.6150 C.3    52  TYR52       0.0548
    150  CG       -15.3710  -23.2800  -11.1170 C.ar   52  TYR52      -0.0200
    151  CD1      -14.2520  -22.6490  -11.6650 C.ar   52  TYR52      -0.0009
    152  CD2      -16.5550  -22.5450  -11.0330 C.ar   52  TYR52      -0.0009
    153  CE1      -14.2850  -21.3370  -12.1340 C.ar   52  TYR52       0.0417
    154  CE2      -16.6160  -21.2320  -11.5010 C.ar   52  TYR52       0.0417
    155  CZ       -15.4840  -20.6390  -12.0530 C.ar   52  TYR52       0.1957
    156  OH       -15.5530  -19.3660  -12.5610 O.3    52  TYR52      -0.2866
    157  N        -14.1440  -27.4220   -9.5460 N.am   53  ARG53      -0.1980
    158  CA       -14.1390  -28.4910   -8.5500 C.3    53  ARG53       0.1597
    159  C        -12.7460  -28.7750   -8.0070 C.2    53  ARG53       0.2287
    160  O        -12.5620  -28.9470   -6.8120 O.2    53  ARG53      -0.2864
    161  CB       -14.9180  -29.7550   -8.8910 C.3    53  ARG53       0.0334
    162  CG       -15.0690  -30.6230   -7.6460 C.3    53  ARG53       0.0492
    163  CD       -15.8600  -31.9150   -7.8180 C.3    53  ARG53       0.2205
    164  NE       -15.5880  -32.5520   -9.0940 N.pl3  53  ARG53      -0.0865
    165  CZ       -16.0370  -33.7530   -9.4880 C.cat  53  ARG53       0.5346
    166  NH1      -16.7800  -34.5370   -8.6830 N.pl3  53  ARG53       0.1354
    167  NH2      -15.7240  -34.1840  -10.7310 N.pl3  53  ARG53       0.1354
    168  N        -16.9180  -18.9210   -7.4150 N.3    64  TYR64      -0.1241
    169  CA       -17.9830  -18.0270   -7.8180 C.3    64  TYR64       0.1605
    170  C        -17.7370  -16.5930   -7.4150 C.2    64  TYR64       0.2264
    171  O        -18.1390  -15.6840   -8.1320 O.2    64  TYR64      -0.2867
    172  CB       -19.4330  -18.3720   -7.3900 C.3    64  TYR64       0.0534
    173  CG       -19.9590  -19.7770   -7.6050 C.ar   64  TYR64      -0.0201
    174  CD1      -19.9810  -20.4310   -8.8410 C.ar   64  TYR64      -0.0009
    175  CD2      -20.4580  -20.4630   -6.4990 C.ar   64  TYR64      -0.0009
    176  CE1      -20.4340  -21.7480   -8.9630 C.ar   64  TYR64       0.0417
    177  CE2      -20.9490  -21.7660   -6.5990 C.ar   64  TYR64       0.0417
    178  CZ       -20.9230  -22.4100   -7.8340 C.ar   64  TYR64       0.1957
    179  OH       -21.4380  -23.6680   -7.8940 O.3    64  TYR64      -0.2866
    180  N        -15.1310  -22.2790  -25.7220 N.3   101  PHE101     -0.1241
    181  CA       -16.4020  -21.8840  -26.3070 C.3   101  PHE101      0.1605
    182  C        -16.2070  -21.2140  -27.6680 C.2   101  PHE101      0.2264
    183  O        -16.9900  -21.3550  -28.6030 O.2   101  PHE101     -0.2867
    184  CB       -17.1260  -20.7970  -25.4900 C.3   101  PHE101      0.0534
    185  CG       -17.6990  -21.1780  -24.1560 C.ar  101  PHE101     -0.0203
    186  CD1      -17.7890  -22.5110  -23.7430 C.ar  101  PHE101     -0.0042
    187  CD2      -18.1190  -20.1680  -23.2820 C.ar  101  PHE101     -0.0042
    188  CE1      -18.3360  -22.8100  -22.4950 C.ar  101  PHE101     -0.0003
    189  CE2      -18.6800  -20.4550  -22.0350 C.ar  101  PHE101     -0.0003
    190  CZ       -18.7850  -21.7910  -21.6540 C.ar  101  PHE101     -0.0000
@<TRIPOS>BOND
     1   183   182    2
     2   182   181    1
     3    64    62   ar
     4    64    63   ar
     5   181   180    1
     6   181   184    1
     7    62    60   ar
     8   184   185    1
     9    63    61   ar
    10    34    33    2
    11    60    59   ar
    12    61    59   ar
    13   185   186   ar
    14   185   187   ar
    15    59    58    1
    16    33    32    1
    17   186   188   ar
    18    54    55    1
    19    37    35    1
    20    39    45    1
    21    39    40    1
    22    45    44    1
    23   187   189   ar
    24    55    58    1
    25    55    56    1
    26    32    35    1
    27    32    31    1
    28    40    41    1
    29    40    43    1
    30   188   190   ar
    31    44    43    1
    32    35    36    1
    33   189   190   ar
    34    42    41    2
    35    41    46   am
    36    56    57    2
    37    56    65   am
    38    90   118    1
    39    90    89    1
    40    30    28    1
    41    68    67    2
    42    36    38    1
    43    48    49    2
    44    48    47    1
    45    46    47    1
    46    65    66    1
    47   113   114    1
    48   118   117    1
    49    89    86    1
    50    28    29    1
    51    28    27    2
    52    67    66    1
    53    47    50    1
    54    23    22    2
    55   117   114    1
    56    66    69    1
    57   114   115    1
    58    27    26    1
    59    50    51    1
    60    69    70    1
    61    85    86    1
    62    85    75   am
    63    22    21    1
    64    86    87    1
    65    73    74    1
    66   115   116    2
    67    12    11    2
    68    80    82   ar
    69    80    78   ar
    70    88    87    2
    71    25    26    1
    72    25    24    1
    73    77    74    1
    74    77    78    1
    75    87    91   am
    76    51    52    1
    77    51    53    1
    78    17    19   ar
    79    17    15   ar
    80    21    24    1
    81    21    20    1
    82    82    83   ar
    83    75    74    1
    84    75    76    2
    85    19    18   ar
    86    78    79   ar
    87    70    71    2
    88    70    72   am
    89    11    20   am
    90    11    10    1
    91    15    14   ar
    92    91    92    1
    93   119   120    1
    94   123   124    1
    95   123   120    1
    96    18    16   ar
    97    83    84    1
    98    83    81   ar
    99    79    81   ar
   100    14    16   ar
   101    14    13    1
   102   124   126   ar
   103   124   125   ar
   104   120   121    1
   105    10    13    1
   106    10     9    1
   107    92    93    1
   108   126   128   ar
   109   125   127   ar
   110   128   127   ar
   111   129   121   am
   112   129   130    1
   113   121   122    2
   114    93    94    2
   115    93    95   am
   116   143   142    2
   117   135   134   ar
   118   134   136   ar
   119   134   133    1
   120   133   130    1
   121   112   111    2
   122     4     3    2
   123   142   141    1
   124   142   144   am
   125    95    96    1
   126   130   131    1
   127   141   138    1
   128   137   131   am
   129   137   138    1
   130   111   110    1
   131   131   132    2
   132   138   139    1
   133     3     2    1
   134   139   140    2
   135    98    97    2
   136   156   155    1
   137    96    97    1
   138    96    99    1
   139    97   109   am
   140   153   155   ar
   141   153   151   ar
   142   109   110    1
   143   155   154   ar
   144     2     5    1
   145     2     1    1
   146     7     6    1
   147   145   146    1
   148   151   150   ar
   149     6     5    1
   150     6     8    1
   151   154   152   ar
   152    99   100    1
   153   150   152   ar
   154   150   149    1
   155   167   165    1
   156   149   146    1
   157   146   147    1
   158   100   101   ar
   159   100   102   ar
   160   157   147   am
   161   157   158    1
   162   165   164    2
   163   165   166    1
   164   101   103   ar
   165   147   148    2
   166   105   102   ar
   167   105   107   ar
   168   102   104   ar
   169   164   163    1
   170   176   174   ar
   171   176   178   ar
   172   161   158    1
   173   161   162    1
   174   174   173   ar
   175   158   159    1
   176   107   108   ar
   177   171   170    2
   178   103   104   ar
   179   159   160    2
   180   104   106   ar
   181   179   178    1
   182   178   177   ar
   183   169   170    1
   184   169   168    1
   185   169   172    1
   186   163   162    1
   187   173   172    1
   188   173   175   ar
   189   108   106   ar
   190   177   175   ar
