@<TRIPOS>MOLECULE
tmp/5p8wC00.pdb
 95 92 0 0 0
SMALL
GASTEIGER

@<TRIPOS>ATOM
      1  N        -15.1800   26.9530  -18.1050 N.3     3  LYS3       -0.1245
      2  CA       -15.2720   25.5060  -18.2790 C.3     3  LYS3        0.1561
      3  C        -16.5470   24.9460  -17.6500 C.2     3  LYS3        0.2260
      4  O        -17.1590   24.0140  -18.1880 O.2     3  LYS3       -0.2867
      5  CB       -14.0180   24.8520  -17.6930 C.3     3  LYS3        0.0271
      6  CG       -14.0530   23.3400  -17.5400 C.3     3  LYS3        0.0035
      7  CD       -12.6750   22.8050  -17.1260 C.3     3  LYS3        0.0206
      8  CE       -12.0390   23.6290  -15.9970 C.3     3  LYS3        0.1093
      9  NZ       -12.8280   23.6000  -14.7310 N.3     3  LYS3       -0.1314
     10  N        -20.5930   23.4880  -19.3650 N.3     7  ILE7       -0.1245
     11  CA       -21.3350   22.2990  -18.9500 C.3     7  ILE7        0.1561
     12  C        -22.8020   22.6420  -18.7730 C.2     7  ILE7        0.2260
     13  O        -23.6900   21.8860  -19.1860 O.2     7  ILE7       -0.2867
     14  CB       -20.7530   21.7110  -17.6510 C.3     7  ILE7        0.0252
     15  CG1      -19.3020   21.2810  -17.8340 C.3     7  ILE7        0.0019
     16  CG2      -21.5970   20.5340  -17.1700 C.3     7  ILE7        0.0019
     17  CD1      -18.6760   20.7640  -16.5480 C.3     7  ILE7        0.0001
     18  N        -24.3340   15.5820  -18.1120 N.3    27  ILE27      -0.1245
     19  CA       -23.0200   15.9290  -17.5800 C.3    27  ILE27       0.1561
     20  C        -22.0420   14.7780  -17.7860 C.2    27  ILE27       0.2260
     21  O        -20.9080   14.9840  -18.2340 O.2    27  ILE27      -0.2867
     22  CB       -23.1190   16.3170  -16.0960 C.3    27  ILE27       0.0252
     23  CG1      -23.9990   17.5620  -15.9200 C.3    27  ILE27       0.0019
     24  CG2      -21.7290   16.5340  -15.5440 C.3    27  ILE27       0.0019
     25  CD1      -24.4550   17.8000  -14.4850 C.3    27  ILE27       0.0001
     26  N        -21.0530   14.7730  -21.3370 N.3    30  TYR30      -0.1227
     27  CA       -20.1550   15.8770  -21.6580 C.3    30  TYR30       0.1736
     28  C        -18.7390   15.6030  -21.1610 C.2    30  TYR30       0.2595
     29  O        -17.7690   15.7220  -21.9160 O.2    30  TYR30      -0.2718
     30  CB       -20.7020   17.1680  -21.0530 C.3    30  TYR30       0.0548
     31  CG       -19.8760   18.3890  -21.3680 C.ar   30  TYR30      -0.0200
     32  CD1      -20.0360   19.0700  -22.5720 C.ar   30  TYR30      -0.0009
     33  CD2      -18.9430   18.8660  -20.4660 C.ar   30  TYR30      -0.0009
     34  CE1      -19.2830   20.1920  -22.8650 C.ar   30  TYR30       0.0417
     35  CE2      -18.1840   19.9870  -20.7510 C.ar   30  TYR30       0.0417
     36  CZ       -18.3600   20.6470  -21.9490 C.ar   30  TYR30       0.1957
     37  OH       -17.6080   21.7620  -22.2320 O.3    30  TYR30      -0.2866
     38  N        -18.6060   15.2090  -19.8950 N.am   31  CYS31      -0.1970
     39  CA       -17.2800   15.0540  -19.3050 C.3    31  CYS31       0.1712
     40  C        -16.5310   13.8580  -19.8800 C.2    31  CYS31       0.2296
     41  O        -15.2940   13.8400  -19.8630 O.2    31  CYS31      -0.2864
     42  CB       -17.3990   14.9440  -17.7890 C.3    31  CYS31       0.0983
     43  SG       -18.2300   16.3630  -17.0390 S.3    31  CYS31      -0.0798
     44  N        -15.6170    9.5290  -13.4500 N.3    38  VAL38      -0.1245
     45  CA       -15.6160    9.7810  -12.0090 C.3    38  VAL38       0.1561
     46  C        -17.0410    9.9440  -11.4950 C.2    38  VAL38       0.2260
     47  O        -17.3600    9.5380  -10.3700 O.2    38  VAL38      -0.2867
     48  CB       -14.7390   11.0110  -11.6790 C.3    38  VAL38       0.0252
     49  CG1      -15.2180   11.7070  -10.4090 C.3    38  VAL38       0.0019
     50  CG2      -13.2810   10.5960  -11.5290 C.3    38  VAL38       0.0019
     51  N        -19.4850   22.2790   -4.1630 N.3    63  ALA63      -0.1231
     52  CA       -20.4660   21.9480   -5.1900 C.3    63  ALA63       0.1694
     53  C        -19.8900   21.8640   -6.5930 C.2    63  ALA63       0.2592
     54  O        -20.3840   21.0650   -7.3990 O.2    63  ALA63      -0.2718
     55  CB       -21.6080   22.9690   -5.2090 C.3    63  ALA63       0.0304
     56  N        -18.8580   22.6430   -6.9010 N.am   64  TYR64      -0.1962
     57  CA       -18.3130   22.6740   -8.2520 C.3    64  TYR64       0.1771
     58  C        -19.4400   22.9710   -9.2400 C.2    64  TYR64       0.2620
     59  O        -20.1500   23.9680   -9.0780 O.2    64  TYR64      -0.2715
     60  CB       -17.5940   21.3550   -8.5620 C.3    64  TYR64       0.0574
     61  CG       -16.5170   21.4570   -9.6220 C.ar   64  TYR64      -0.0198
     62  CD1      -16.2630   22.6620  -10.2660 C.ar   64  TYR64      -0.0009
     63  CD2      -15.7620   20.3390   -9.9890 C.ar   64  TYR64      -0.0009
     64  CE1      -15.2870   22.7600  -11.2470 C.ar   64  TYR64       0.0417
     65  CE2      -14.7840   20.4240  -10.9690 C.ar   64  TYR64       0.0417
     66  CZ       -14.5510   21.6410  -11.5970 C.ar   64  TYR64       0.1957
     67  OH       -13.5800   21.7470  -12.5710 O.3    64  TYR64      -0.2866
     68  N        -19.6630   22.1070  -10.2310 N.am   65  CYS65      -0.1954
     69  CA       -20.6630   22.4020  -11.2580 C.3    65  CYS65       0.1843
     70  C        -22.0650   21.9090  -10.9110 C.2    65  CYS65       0.2626
     71  O        -22.9680   22.0170  -11.7470 O.2    65  CYS65      -0.2714
     72  CB       -20.2350   21.8100  -12.6040 C.3    65  CYS65       0.0997
     73  SG       -20.4710   20.0190  -12.7340 S.3    65  CYS65      -0.0797
     74  N        -22.2810   21.3720   -9.7150 N.am   66  GLY66      -0.1940
     75  CA       -23.6120   20.9510   -9.3200 C.3    66  GLY66       0.2014
     76  C        -23.9400   19.4900   -9.5600 C.2    66  GLY66       0.2639
     77  O        -25.0550   19.0590   -9.2230 O.2    66  GLY66      -0.2714
     78  N        -23.0100   18.7170  -10.1240 N.am   67  TYR67      -0.1959
     79  CA       -23.2750   17.3080  -10.4000 C.3    67  TYR67       0.1771
     80  C        -23.6030   16.5510   -9.1180 C.2    67  TYR67       0.2620
     81  O        -24.6080   15.8350   -9.0480 O.2    67  TYR67      -0.2715
     82  CB       -22.0730   16.6730  -11.1010 C.3    67  TYR67       0.0574
     83  CG       -22.2730   15.1950  -11.4020 C.ar   67  TYR67      -0.0198
     84  CD1      -21.9060   14.2170  -10.4800 C.ar   67  TYR67      -0.0009
     85  CD2      -22.8210   14.7790  -12.6120 C.ar   67  TYR67      -0.0009
     86  CE1      -22.0960   12.8630  -10.7510 C.ar   67  TYR67       0.0417
     87  CE2      -23.0020   13.4240  -12.8990 C.ar   67  TYR67       0.0417
     88  CZ       -22.6390   12.4730  -11.9620 C.ar   67  TYR67       0.1957
     89  OH       -22.8230   11.1270  -12.2320 O.3    67  TYR67      -0.2866
     90  N        -22.7710   16.7110   -8.0860 N.am   68  SER68      -0.1950
     91  CA       -23.0140   15.9990   -6.8380 C.3    68  SER68       0.1924
     92  C        -24.2910   16.4690   -6.1590 C.2    68  SER68       0.2314
     93  O        -24.9700   15.6680   -5.5090 O.2    68  SER68      -0.2863
     94  CB       -21.8160   16.1570   -5.9020 C.3    68  SER68       0.2116
     95  OG       -20.6920   15.4530   -6.4050 O.3    68  SER68      -0.2180
@<TRIPOS>BOND
     1    34    32   ar
     2    34    36   ar
     3    32    31   ar
     4    37    36    1
     5    36    35   ar
     6    29    28    2
     7    27    26    1
     8    27    28    1
     9    27    30    1
    10    31    30    1
    11    31    33   ar
    12    28    38   am
    13    35    33   ar
    14    38    39    1
    15    40    41    2
    16    40    39    1
    17    10    11    1
    18    39    42    1
    19    13    12    2
    20    11    12    1
    21    11    14    1
    22     2     1    1
    23     2     5    1
    24     2     3    1
    25    21    20    2
    26     4     3    2
    27    18    19    1
    28    15    14    1
    29    15    17    1
    30    42    43    1
    31    20    19    1
    32     5     6    1
    33    14    16    1
    34    19    22    1
    35     6     7    1
    36     7     8    1
    37    22    23    1
    38    22    24    1
    39     8     9    1
    40    23    25    1
    41    44    45    1
    42    87    85   ar
    43    87    88   ar
    44    73    72    1
    45    85    83   ar
    46    72    69    1
    47    67    66    1
    48    89    88    1
    49    45    48    1
    50    45    46    1
    51    88    86   ar
    52    71    70    2
    53    48    50    1
    54    48    49    1
    55    66    64   ar
    56    66    65   ar
    57    46    47    2
    58    83    82    1
    59    83    84   ar
    60    69    70    1
    61    69    68    1
    62    64    62   ar
    63    82    79    1
    64    65    63   ar
    65    70    74   am
    66    86    84   ar
    67    79    78    1
    68    79    80    1
    69    62    61   ar
    70    68    58   am
    71    78    76   am
    72    63    61   ar
    73    74    75    1
    74    61    60    1
    75    76    75    1
    76    76    77    2
    77    58    59    2
    78    58    57    1
    79    80    81    2
    80    80    90   am
    81    60    57    1
    82    57    56    1
    83    90    91    1
    84    54    53    2
    85    56    53   am
    86    91    92    1
    87    91    94    1
    88    53    52    1
    89    95    94    1
    90    92    93    2
    91    55    52    1
    92    52    51    1
