@<TRIPOS>MOLECULE
tmp/5p8wC01.pdb
 127 125 0 0 0
SMALL
GASTEIGER

@<TRIPOS>ATOM
      1  N        -20.2580   19.8460    1.4570 N.3    61  LEU61      -0.1231
      2  CA       -19.1430   20.7910    1.4280 C.3    61  LEU61       0.1693
      3  C        -18.5060   20.7450    0.0410 C.2    61  LEU61       0.2593
      4  O        -17.8560   19.7550   -0.3180 O.2    61  LEU61      -0.2718
      5  CB       -18.1260   20.4680    2.5200 C.3    61  LEU61       0.0284
      6  CG       -18.6940   20.5150    3.9390 C.3    61  LEU61       0.0019
      7  CD1      -17.6160   20.2120    4.9520 C.3    61  LEU61       0.0001
      8  CD2      -19.3000   21.8750    4.1990 C.3    61  LEU61       0.0001
      9  N        -18.7000   21.8120   -0.7400 N.am   62  GLY62      -0.1942
     10  CA       -18.2060   21.8760   -2.1080 C.3    62  GLY62       0.2014
     11  C        -19.2740   21.4770   -3.1170 C.2    62  GLY62       0.2639
     12  O        -19.9370   20.4540   -2.9360 O.2    62  GLY62      -0.2714
     13  N        -19.4850   22.2790   -4.1630 N.am   63  ALA63      -0.1963
     14  CA       -20.4660   21.9480   -5.1900 C.3    63  ALA63       0.1728
     15  C        -19.8900   21.8640   -6.5930 C.2    63  ALA63       0.2616
     16  O        -20.3840   21.0650   -7.3990 O.2    63  ALA63      -0.2715
     17  CB       -21.6080   22.9690   -5.2090 C.3    63  ALA63       0.0334
     18  N        -18.8580   22.6430   -6.9010 N.am   64  TYR64      -0.1974
     19  CA       -18.3130   22.6740   -8.2520 C.3    64  TYR64       0.1639
     20  C        -19.4400   22.9710   -9.2400 C.2    64  TYR64       0.2290
     21  O        -20.1500   23.9680   -9.0780 O.2    64  TYR64      -0.2864
     22  CB       -17.5940   21.3550   -8.5620 C.3    64  TYR64       0.0560
     23  CG       -16.5170   21.4570   -9.6220 C.ar   64  TYR64      -0.0198
     24  CD1      -16.2630   22.6620  -10.2660 C.ar   64  TYR64      -0.0009
     25  CD2      -15.7620   20.3390   -9.9890 C.ar   64  TYR64      -0.0009
     26  CE1      -15.2870   22.7600  -11.2470 C.ar   64  TYR64       0.0417
     27  CE2      -14.7840   20.4240  -10.9690 C.ar   64  TYR64       0.0417
     28  CZ       -14.5510   21.6410  -11.5970 C.ar   64  TYR64       0.1957
     29  OH       -13.5800   21.7470  -12.5710 O.3    64  TYR64      -0.2866
     30  N        -22.6650   24.0810    0.5410 N.3    85  MET85      -0.1230
     31  CA       -21.7250   25.1830    0.6950 C.3    85  MET85       0.1702
     32  C        -20.7290   25.1620   -0.4590 C.2    85  MET85       0.2592
     33  O        -20.1530   24.1150   -0.7700 O.2    85  MET85      -0.2718
     34  CB       -21.0000   25.0990    2.0390 C.3    85  MET85       0.0401
     35  CG       -21.9430   25.1420    3.2620 C.3    85  MET85       0.0596
     36  SD       -20.9650   25.1560    4.7650 S.3    85  MET85      -0.1393
     37  CE       -22.2330   25.2270    6.0450 C.3    85  MET85       0.0692
     38  N        -20.5510   26.3170   -1.1030 N.am   86  GLU86      -0.1966
     39  CA       -19.6620   26.4660   -2.2510 C.3    86  GLU86       0.1733
     40  C        -19.0170   27.8360   -2.1420 C.2    86  GLU86       0.2616
     41  O        -19.7180   28.8520   -2.0560 O.2    86  GLU86      -0.2715
     42  CB       -20.4310   26.3220   -3.5750 C.3    86  GLU86       0.0429
     43  CG       -19.6520   26.7580   -4.8140 C.3    86  GLU86       0.1163
     44  CD       -18.3320   26.0120   -4.9580 C.2    86  GLU86       0.3649
     45  OE1      -18.3390   24.7620   -4.8300 O.co2  86  GLU86      -0.2457
     46  OE2      -17.2880   26.6750   -5.1780 O.co2  86  GLU86      -0.2457
     47  N        -17.6880   27.8640   -2.1270 N.am   87  ILE87      -0.1977
     48  CA       -17.0160   29.1280   -1.8690 C.3    87  ILE87       0.1596
     49  C        -16.9060   29.9620   -3.1380 C.2    87  ILE87       0.2287
     50  O        -16.8740   31.1910   -3.0640 O.2    87  ILE87      -0.2864
     51  CB       -15.6370   28.8800   -1.2360 C.3    87  ILE87       0.0276
     52  CG1      -15.0990   30.1710   -0.5980 C.3    87  ILE87       0.0022
     53  CG2      -14.6630   28.2960   -2.2750 C.3    87  ILE87       0.0022
     54  CD1      -13.8170   29.9510    0.2240 C.3    87  ILE87       0.0001
     55  N        -19.3350   29.0740   -9.3200 N.3    91  CYS91      -0.1235
     56  CA       -19.7830   27.6900   -9.1890 C.3    91  CYS91       0.1677
     57  C        -21.0970   27.6010   -8.4190 C.2    91  CYS91       0.2270
     58  O        -21.9410   26.7470   -8.7210 O.2    91  CYS91      -0.2867
     59  CB       -18.6990   26.8490   -8.5180 C.3    91  CYS91       0.0956
     60  SG       -17.2900   26.5600   -9.6130 S.3    91  CYS91      -0.0801
     61  N        -20.0270   30.7170    0.3570 N.3   113  GLY113     -0.1210
     62  CA       -19.0680   31.2090    1.3290 C.3   113  GLY113      0.1956
     63  C        -18.1680   30.0840    1.8040 C.2   113  GLY113      0.2612
     64  O        -18.2430   28.9510    1.3190 O.2   113  GLY113     -0.2717
     65  N        -17.3180   30.4140    2.7740 N.am  114  ALA114     -0.1965
     66  CA       -16.3260   29.4690    3.2830 C.3   114  ALA114      0.1728
     67  C        -16.9150   28.6210    4.4110 C.2   114  ALA114      0.2617
     68  O        -17.6570   29.1260    5.2560 O.2   114  ALA114     -0.2715
     69  CB       -15.0820   30.2150    3.7730 C.3   114  ALA114      0.0334
     70  N        -16.5790   27.3230    4.4100 N.am  115  SER115     -0.1936
     71  CA       -17.1310   26.4020    5.4040 C.3   115  SER115      0.2055
     72  C        -16.8440   26.8660    6.8290 C.2   115  SER115      0.2642
     73  O        -17.7040   26.7480    7.7120 O.2   115  SER115     -0.2714
     74  CB       -16.5910   24.9840    5.1830 C.3   115  SER115      0.2130
     75  OG       -15.1680   24.9510    5.1680 O.3   115  SER115     -0.2179
     76  N        -15.6440   27.3870    7.0860 N.am  116  GLN116     -0.1976
     77  CA       -15.3620   27.8190    8.4520 C.3   116  GLN116      0.1601
     78  C        -16.1920   29.0340    8.8530 C.2   116  GLN116      0.2287
     79  O        -16.4140   29.2510   10.0520 O.2   116  GLN116     -0.2864
     80  CB       -13.8690   28.1140    8.6390 C.3   116  GLN116      0.0394
     81  CG       -13.4100   29.4550    8.1040 C.3   116  GLN116      0.0908
     82  CD       -12.9940   29.4010    6.6510 C.2   116  GLN116      0.2608
     83  OE1      -12.9290   28.3270    6.0410 O.2   116  GLN116     -0.2717
     84  NE2      -12.6990   30.5790    6.0800 N.am  116  GLN116     -0.0878
     85  N        -16.2790   17.2790    0.0530 N.3   137  ASP137     -0.1225
     86  CA       -15.8410   17.2600   -1.3390 C.3   137  ASP137      0.1805
     87  C        -15.2820   18.6200   -1.7250 C.2   137  ASP137      0.2598
     88  O        -15.4010   19.0410   -2.8830 O.2   137  ASP137     -0.2718
     89  CB       -17.0150   16.8480   -2.2290 C.3   137  ASP137      0.1424
     90  CG       -16.6000   16.4910   -3.6520 C.2   137  ASP137      0.3668
     91  OD1      -15.3920   16.3020   -3.9390 O.co2 137  ASP137     -0.2456
     92  OD2      -17.5180   16.4240   -4.4950 O.co2 137  ASP137     -0.2456
     93  N        -14.7130   19.3380   -0.7600 N.am  138  HIS138     -0.1961
     94  CA       -14.2590   20.6870   -1.0400 C.3   138  HIS138      0.1787
     95  C        -12.7350   20.7290   -1.0440 C.2   138  HIS138      0.2620
     96  O        -12.0870   20.0900   -1.8750 O.2   138  HIS138     -0.2715
     97  CB       -14.8830   21.6930   -0.0520 C.3   138  HIS138      0.0785
     98  CG       -14.6620   21.3870    1.4030 C.ar  138  HIS138      0.0821
     99  ND1      -14.4960   20.1110    1.8950 N.ar  138  HIS138     -0.2267
    100  CD2      -14.6050   22.2110    2.4780 C.ar  138  HIS138      0.1154
    101  CE1      -14.3400   20.1590    3.2070 C.ar  138  HIS138      0.1986
    102  NE2      -14.3990   21.4230    3.5850 N.ar  138  HIS138     -0.2212
    103  N        -12.1530   21.4540   -0.1170 N.am  139  TRP139     -0.1974
    104  CA       -10.7120   21.5750   -0.0250 C.3   139  TRP139      0.1640
    105  C        -10.2080   20.4850    0.9130 C.2   139  TRP139      0.2290
    106  O        -10.5950   20.4530    2.0850 O.2   139  TRP139     -0.2864
    107  CB       -10.3880   22.9660    0.4980 C.3   139  TRP139      0.0576
    108  CG        -8.9990   23.4200    0.3940 C.ar  139  TRP139      0.0006
    109  CD1       -7.9620   22.8070   -0.2490 C.ar  139  TRP139      0.0946
    110  CD2       -8.4820   24.6380    0.9340 C.ar  139  TRP139      0.0152
    111  NE1       -6.8200   23.5710   -0.1290 N.ar  139  TRP139     -0.2442
    112  CE2       -7.1170   24.7040    0.5880 C.ar  139  TRP139      0.0810
    113  CE3       -9.0460   25.6800    1.6780 C.ar  139  TRP139      0.0012
    114  CZ2       -6.3000   25.7790    0.9610 C.ar  139  TRP139      0.0191
    115  CZ3       -8.2370   26.7480    2.0450 C.ar  139  TRP139      0.0001
    116  CH2       -6.8780   26.7880    1.6880 C.ar  139  TRP139      0.0015
    117  N         -9.1590   21.1940    4.3440 N.3   142  ARG142     -0.1245
    118  CA       -10.1930   21.4830    5.3250 C.3   142  ARG142      0.1563
    119  C        -10.9610   20.2460    5.7860 C.2   142  ARG142      0.2260
    120  O        -11.8600   20.3750    6.6220 O.2   142  ARG142     -0.2867
    121  CB       -11.1650   22.5170    4.7500 C.3   142  ARG142      0.0307
    122  CG       -10.5060   23.8520    4.4260 C.3   142  ARG142      0.0489
    123  CD       -10.5560   24.7800    5.6280 C.3   142  ARG142      0.2205
    124  NE        -9.2870   24.8670    6.3450 N.pl3 142  ARG142     -0.0865
    125  CZ        -9.1560   25.4190    7.5460 C.cat 142  ARG142      0.5346
    126  NH1       -7.9700   25.4690    8.1310 N.pl3 142  ARG142      0.1354
    127  NH2      -10.2200   25.9090    8.1700 N.pl3 142  ARG142      0.1354
@<TRIPOS>BOND
     1    29    28    1
     2    28    26   ar
     3    28    27   ar
     4    26    24   ar
     5    27    25   ar
     6    24    23   ar
     7    25    23   ar
     8    23    22    1
     9    60    59    1
    10    55    56    1
    11    20    21    2
    12    20    19    1
    13    56    59    1
    14    56    57    1
    15    58    57    2
    16    22    19    1
    17    19    18    1
    18    16    15    2
    19    18    15   am
    20    15    14    1
    21    17    14    1
    22    14    13    1
    23    46    44   ar
    24    44    45   ar
    25    44    43    1
    26    43    42    1
    27    92    90   ar
    28    13    11   am
    29    91    90   ar
    30    90    89    1
    31    42    39    1
    32    49    50    2
    33    49    48    1
    34    11    12    2
    35    11    10    1
    36    88    87    2
    37    53    51    1
    38    39    40    1
    39    39    38    1
    40    89    86    1
    41    40    47   am
    42    40    41    2
    43    47    48    1
    44    10     9    1
    45    96    95    2
    46    48    51    1
    47    87    86    1
    48    87    93   am
    49    86    85    1
    50    51    52    1
    51    38    32   am
    52    95    94    1
    53    95   103   am
    54    94    93    1
    55    94    97    1
    56    33    32    2
    57     9     3   am
    58    52    54    1
    59    32    31    1
    60     4     3    2
    61   109   111   ar
    62   109   108   ar
    63   111   112   ar
    64   103   104    1
    65    97    98    1
    66   104   107    1
    67   104   105    1
    68     3     2    1
    69    61    62    1
    70   108   107    1
    71   108   110   ar
    72    30    31    1
    73   112   110   ar
    74   112   114   ar
    75    31    34    1
    76   105   106    2
    77   110   113   ar
    78   114   116   ar
    79    64    63    2
    80    62    63    1
    81    98    99   ar
    82    98   100   ar
    83     2     1    1
    84     2     5    1
    85   113   115   ar
    86   116   115   ar
    87    63    65   am
    88    99   101   ar
    89    34    35    1
    90   100   102   ar
    91     5     6    1
    92    65    66    1
    93   101   102   ar
    94    35    36    1
    95    66    69    1
    96    66    67    1
    97     6     8    1
    98     6     7    1
    99   117   118    1
   100    70    67   am
   101    70    71    1
   102    67    68    2
   103   122   121    1
   104   122   123    1
   105   121   118    1
   106    36    37    1
   107    75    74    1
   108    74    71    1
   109   118   119    1
   110    71    72    1
   111   123   124    1
   112   119   120    2
   113    83    82    2
   114    84    82   am
   115   124   125    2
   116    82    81    1
   117    72    76   am
   118    72    73    2
   119    76    77    1
   120   125   126    1
   121   125   127    1
   122    81    80    1
   123    77    80    1
   124    77    78    1
   125    78    79    2
