@<TRIPOS>MOLECULE
tmp/5p8xA00.pdb
 202 198 0 0 0
SMALL
GASTEIGER

@<TRIPOS>ATOM
      1  N          6.1470   13.9820   14.7400 N.3    36  TRP36      -0.1241
      2  CA         6.0440   13.9940   16.1960 C.3    36  TRP36       0.1605
      3  C          5.0430   12.9930   16.6780 C.2    36  TRP36       0.2264
      4  O          4.0100   12.7790   16.0170 O.2    36  TRP36      -0.2867
      5  CB         5.5360   15.3650   16.6670 C.3    36  TRP36       0.0550
      6  CG         5.5180   15.5860   18.1360 C.ar   36  TRP36       0.0003
      7  CD1        6.5460   16.0270   18.9260 C.ar   36  TRP36       0.0946
      8  CD2        4.4290   15.2710   19.0480 C.ar   36  TRP36       0.0152
      9  NE1        6.1730   16.0560   20.2350 N.ar   36  TRP36      -0.2442
     10  CE2        4.8680   15.6460   20.3570 C.ar   36  TRP36       0.0810
     11  CE3        3.1100   14.8470   18.8760 C.ar   36  TRP36       0.0012
     12  CZ2        4.0610   15.4690   21.4880 C.ar   36  TRP36       0.0191
     13  CZ3        2.3220   14.6690   19.9870 C.ar   36  TRP36       0.0001
     14  CH2        2.7960   14.9980   21.2750 C.ar   36  TRP36       0.0015
     15  N          3.4220   11.2470   20.6950 N.3    38  MET38      -0.1230
     16  CA         3.3540   11.4310   22.1630 C.3    38  MET38       0.1702
     17  C          4.0260   10.3030   22.9630 C.2    38  MET38       0.2592
     18  O          3.5200    9.8580   23.9960 O.2    38  MET38      -0.2718
     19  CB         1.9040   11.6150   22.6130 C.3    38  MET38       0.0401
     20  CG         0.9580   10.4850   22.2560 C.3    38  MET38       0.0596
     21  SD        -0.6450   10.6750   23.0390 S.3    38  MET38      -0.1393
     22  CE        -1.5880    9.4830   22.0950 C.3    38  MET38       0.0692
     23  N          5.1820    9.8630   22.5130 N.am   39  ASN39      -0.1974
     24  CA         6.0240    8.9500   23.3110 C.3    39  ASN39       0.1688
     25  C          6.6660    9.7730   24.4060 C.2    39  ASN39       0.2292
     26  O          6.9310   10.9570   24.2290 O.2    39  ASN39      -0.2864
     27  CB         7.1330    8.3350   22.4640 C.3    39  ASN39       0.1181
     28  CG         6.6460    7.7450   21.1760 C.2    39  ASN39       0.2629
     29  OD1        7.1050    8.1620   20.0550 O.2    39  ASN39      -0.2716
     30  ND2        5.7850    6.8010   21.2600 N.am   39  ASN39      -0.0877
     31  N         -1.5150    3.6960   30.0560 N.3    64  GLY64      -0.1225
     32  CA        -1.3600    4.4030   28.7770 C.3    64  GLY64       0.1811
     33  C         -0.1740    3.9960   27.9070 C.2    64  GLY64       0.2280
     34  O          0.7400    4.7810   27.7080 O.2    64  GLY64      -0.2866
     35  N          0.2650    3.5540   24.5640 N.3    66  TYR66      -0.1241
     36  CA         0.4280    4.1690   23.2610 C.3    66  TYR66       0.1605
     37  C          1.0820    3.1930   22.2500 C.2    66  TYR66       0.2264
     38  O          0.4100    2.2440   21.8510 O.2    66  TYR66      -0.2867
     39  CB         1.0490    5.5820   23.3290 C.3    66  TYR66       0.0534
     40  CG         1.0450    6.3230   22.0070 C.ar   66  TYR66      -0.0201
     41  CD1       -0.0930    6.3860   21.2250 C.ar   66  TYR66      -0.0009
     42  CD2        2.1960    6.9400   21.5360 C.ar   66  TYR66      -0.0009
     43  CE1       -0.0630    7.0590   20.0130 C.ar   66  TYR66       0.0417
     44  CE2        2.2480    7.6050   20.3420 C.ar   66  TYR66       0.0417
     45  CZ         1.1060    7.6440   19.5560 C.ar   66  TYR66       0.1957
     46  OH         1.1570    8.3020   18.3470 O.3    66  TYR66      -0.2866
     47  N         -1.7950   -0.8630   30.4670 N.3    87  MET87      -0.1230
     48  CA        -3.2100   -0.7330   30.0830 C.3    87  MET87       0.1702
     49  C         -3.3510    0.2800   28.9430 C.2    87  MET87       0.2592
     50  O         -2.8150    1.3880   28.9890 O.2    87  MET87      -0.2718
     51  CB        -3.9860   -0.2950   31.3130 C.3    87  MET87       0.0401
     52  CG        -3.9930   -1.2810   32.4410 C.3    87  MET87       0.0596
     53  SD        -4.9780   -0.7580   33.8540 S.3    87  MET87      -0.1393
     54  CE        -4.8930   -2.2230   34.9100 C.3    87  MET87       0.0692
     55  N         -4.0740   -0.1300   27.9040 N.am   88  GLU88      -0.1966
     56  CA        -4.2700    0.7350   26.7510 C.3    88  GLU88       0.1733
     57  C         -5.6960    0.6160   26.2750 C.2    88  GLU88       0.2616
     58  O         -6.1510   -0.4800   25.9300 O.2    88  GLU88      -0.2715
     59  CB        -3.3190    0.3170   25.6140 C.3    88  GLU88       0.0429
     60  CG        -3.4240    1.1600   24.3370 C.3    88  GLU88       0.1163
     61  CD        -3.4800    2.6310   24.5990 C.2    88  GLU88       0.3649
     62  OE1       -2.5550    3.1780   25.2500 O.co2  88  GLU88      -0.2457
     63  OE2       -4.4610    3.2970   24.1750 O.co2  88  GLU88      -0.2457
     64  N         -6.4000    1.7430   26.1870 N.am   89  ILE89      -0.1963
     65  CA        -7.7760    1.7430   25.7890 C.3    89  ILE89       0.1727
     66  C         -7.9690    1.6070   24.2590 C.2    89  ILE89       0.2616
     67  O         -9.0100    1.0890   23.8390 O.2    89  ILE89      -0.2715
     68  CB        -8.5040    3.0110   26.3400 C.3    89  ILE89       0.0290
     69  CG1      -10.0320    2.8020   26.3430 C.3    89  ILE89       0.0022
     70  CG2       -8.0610    4.2350   25.6080 C.3    89  ILE89       0.0023
     71  CD1      -10.7600    3.8560   27.1650 C.3    89  ILE89       0.0001
     72  N         -7.0170    2.0810   23.4610 N.am   90  ASN90      -0.1972
     73  CA        -7.2100    2.0860   22.0240 C.3    90  ASN90       0.1688
     74  C         -6.7190    0.7330   21.4780 C.2    90  ASN90       0.2292
     75  O         -5.5340    0.4020   21.6200 O.2    90  ASN90      -0.2864
     76  CB        -6.4280    3.2210   21.4020 C.3    90  ASN90       0.1181
     77  CG        -6.5930    3.2900   19.9000 C.2    90  ASN90       0.2629
     78  OD1       -6.0990    2.4900   19.1640 O.2    90  ASN90      -0.2716
     79  ND2       -7.3590    4.2350   19.4680 N.am   90  ASN90      -0.0877
     80  N         -8.0660   -2.1770   27.2960 N.3   115  GLY115     -0.1210
     81  CA        -9.2740   -1.7930   28.0410 C.3   115  GLY115      0.1956
     82  C         -9.0910   -0.4410   28.7520 C.2   115  GLY115      0.2612
     83  O         -8.0220    0.1440   28.7140 O.2   115  GLY115     -0.2717
     84  N        -10.1570    0.0420   29.3800 N.am  116  ALA116     -0.1965
     85  CA       -10.1360    1.2890   30.1650 C.3   116  ALA116      0.1728
     86  C         -9.5790    0.9710   31.5360 C.2   116  ALA116      0.2617
     87  O        -10.0120    0.0480   32.1910 O.2   116  ALA116     -0.2715
     88  CB       -11.5700    1.8830   30.2960 C.3   116  ALA116      0.0334
     89  N         -8.6630    1.8310   32.0010 N.am  117  SER117     -0.1936
     90  CA        -8.0460    1.6770   33.3170 C.3   117  SER117      0.2055
     91  C         -9.0710    1.5720   34.4400 C.2   117  SER117      0.2642
     92  O         -8.9040    0.7850   35.3640 O.2   117  SER117     -0.2714
     93  CB        -7.0870    2.8440   33.5590 C.3   117  SER117      0.2130
     94  OG        -7.7640    4.0930   33.4850 O.3   117  SER117     -0.2179
     95  N        -10.1640    2.3420   34.3660 N.am  118  GLN118     -0.1976
     96  CA       -11.1380    2.3150   35.4570 C.3   118  GLN118      0.1601
     97  C        -11.8800    0.9850   35.5710 C.2   118  GLN118      0.2287
     98  O        -12.3730    0.6350   36.6480 O.2   118  GLN118     -0.2864
     99  CB       -12.1160    3.4690   35.4000 C.3   118  GLN118      0.0394
    100  CG       -12.8960    3.5090   34.1680 C.3   118  GLN118      0.0908
    101  CD       -12.2820    4.3990   33.1050 C.2   118  GLN118      0.2608
    102  OE1      -11.1210    4.2430   32.7050 O.2   118  GLN118     -0.2717
    103  NE2      -13.0890    5.3230   32.6090 N.am  118  GLN118     -0.0878
    104  N          0.4240    7.8250   32.3000 N.3   139  ASP139     -0.1225
    105  CA         0.6910    8.4390   31.0210 C.3   139  ASP139      0.1805
    106  C         -0.5320    8.3420   30.0940 C.2   139  ASP139      0.2598
    107  O         -0.3870    8.3800   28.8750 O.2   139  ASP139     -0.2718
    108  CB         1.9240    7.8720   30.3410 C.3   139  ASP139      0.1424
    109  CG         2.4620    8.7310   29.2250 C.2   139  ASP139      0.3668
    110  OD1        2.2510    9.9580   29.2060 O.co2 139  ASP139     -0.2456
    111  OD2        3.1560    8.1190   28.3330 O.co2 139  ASP139     -0.2456
    112  N         -1.7170    8.2270   30.6790 N.am  140  HIS140     -0.1961
    113  CA        -2.9490    8.0520   29.9190 C.3   140  HIS140      0.1787
    114  C         -3.6700    9.4050   29.8430 C.2   140  HIS140      0.2620
    115  O         -3.0300   10.4520   29.8540 O.2   140  HIS140     -0.2715
    116  CB        -3.7470    6.9000   30.4450 C.3   140  HIS140      0.0785
    117  CG        -4.2150    7.0210   31.8450 C.ar  140  HIS140      0.0821
    118  ND1       -3.4710    7.6550   32.8070 N.ar  140  HIS140     -0.2267
    119  CD2       -5.3290    6.5230   32.4590 C.ar  140  HIS140      0.1154
    120  CE1       -4.1200    7.5450   33.9640 C.ar  140  HIS140      0.1986
    121  NE2       -5.2390    6.8520   33.7830 N.ar  140  HIS140     -0.2212
    122  N         -4.9800    9.3910   29.7250 N.am  141  TRP141     -0.1960
    123  CA        -5.7070   10.6590   29.6430 C.3   141  TRP141      0.1771
    124  C         -5.4590   11.4700   30.9050 C.2   141  TRP141      0.2619
    125  O         -5.5670   10.9710   32.0140 O.2   141  TRP141     -0.2715
    126  CB        -7.2040   10.4420   29.4570 C.3   141  TRP141      0.0590
    127  CG        -7.5150    9.8110   28.1380 C.ar  141  TRP141      0.0006
    128  CD1       -6.6870    9.7240   27.0580 C.ar  141  TRP141      0.0946
    129  CD2       -8.7180    9.1280   27.7870 C.ar  141  TRP141      0.0152
    130  NE1       -7.3060    9.0410   26.0400 N.ar  141  TRP141     -0.2442
    131  CE2       -8.5600    8.6650   26.4640 C.ar  141  TRP141      0.0810
    132  CE3       -9.9130    8.8570   28.4640 C.ar  141  TRP141      0.0012
    133  CZ2       -9.5620    7.9570   25.7970 C.ar  141  TRP141      0.0191
    134  CZ3      -10.9170    8.1580   27.7980 C.ar  141  TRP141      0.0001
    135  CH2      -10.7320    7.7210   26.4760 C.ar  141  TRP141      0.0015
    136  N         -5.1040   12.7400   30.7400 N.am  142  LYS142     -0.1977
    137  CA        -4.6290   13.5470   31.8660 C.3   142  LYS142      0.1596
    138  C         -5.7000   13.7410   32.9340 C.2   142  LYS142      0.2287
    139  O         -5.3840   13.8210   34.1230 O.2   142  LYS142     -0.2864
    140  CB        -4.0000   14.8550   31.4080 C.3   142  LYS142      0.0298
    141  CG        -2.9170   14.6820   30.2980 C.3   142  LYS142      0.0038
    142  CD        -1.9260   13.5520   30.5800 C.3   142  LYS142      0.0206
    143  CE        -1.1940   13.1200   29.3220 C.3   142  LYS142      0.1093
    144  NZ        -0.5170   11.7790   29.4860 N.3   142  LYS142     -0.1314
    145  N         -7.6320   11.5500   33.9360 N.3   144  ARG144     -0.1245
    146  CA        -7.7980   10.2900   34.6710 C.3   144  ARG144      0.1563
    147  C         -6.7050   10.0250   35.7210 C.2   144  ARG144      0.2260
    148  O         -6.7920    9.0640   36.4720 O.2   144  ARG144     -0.2867
    149  CB        -7.8770    9.1260   33.7030 C.3   144  ARG144      0.0307
    150  CG        -9.0530    9.1910   32.7140 C.3   144  ARG144      0.0489
    151  CD       -10.3480    9.1320   33.4310 C.3   144  ARG144      0.2205
    152  NE       -10.4160    8.0400   34.4080 N.pl3 144  ARG144     -0.0865
    153  CZ       -11.4200    7.8740   35.2730 C.cat 144  ARG144      0.5346
    154  NH1      -12.4670    8.6740   35.2250 N.pl3 144  ARG144      0.1354
    155  NH2      -11.3750    6.9010   36.1560 N.pl3 144  ARG144      0.1354
    156  N          3.8030   11.3920   33.9220 N.3   167  ASP167     -0.1225
    157  CA         4.2490   12.1780   32.7780 C.3   167  ASP167      0.1805
    158  C          3.3270   13.3860   32.5740 C.2   167  ASP167      0.2597
    159  O          2.1260   13.3820   32.9730 O.2   167  ASP167     -0.2718
    160  CB         4.2010   11.3500   31.4860 C.3   167  ASP167      0.1424
    161  CG         4.9790   12.0050   30.3390 C.2   167  ASP167      0.3668
    162  OD1        5.9110   12.7980   30.6160 O.co2 167  ASP167     -0.2456
    163  OD2        4.6780   11.7030   29.1260 O.co2 167  ASP167     -0.2456
    164  N          3.8630   14.4450   31.9440 N.am  168  ASN168     -0.1974
    165  CA         3.0360   15.5180   31.4240 C.3   168  ASN168      0.1688
    166  C          2.3940   16.3700   32.4660 C.2   168  ASN168      0.2292
    167  O          1.2820   16.9360   32.2290 O.2   168  ASN168     -0.2864
    168  CB         1.9760   15.0040   30.4560 C.3   168  ASN168      0.1181
    169  CG         2.5510   14.2000   29.3270 C.2   168  ASN168      0.2629
    170  OD1        2.2010   13.0070   29.1980 O.2   168  ASN168     -0.2716
    171  ND2        3.4420   14.7930   28.5190 N.am  168  ASN168     -0.0877
    172  N          2.7180   19.9380   30.5810 N.3   171  VAL171     -0.1231
    173  CA         2.0720   19.9670   29.2660 C.3   171  VAL171      0.1678
    174  C          1.7390   18.5310   28.8360 C.2   171  VAL171      0.2434
    175  O          2.6340   17.6990   28.7440 O.2   171  VAL171     -0.2733
    176  CB         2.9640   20.6010   28.1810 C.3   171  VAL171      0.0265
    177  CG1        2.2070   20.6140   26.8450 C.3   171  VAL171      0.0020
    178  CG2        3.4940   22.0280   28.5820 C.3   171  VAL171      0.0020
    179  N          0.4400   18.2240   28.6020 N.am  172  PRO172     -0.2729
    180  CA        -0.7130   19.1340   28.7280 C.3   172  PRO172      0.1401
    181  C         -1.0470   19.6220   30.1110 C.2   172  PRO172      0.2269
    182  O         -1.8190   20.5480   30.2370 O.2   172  PRO172     -0.2865
    183  CB        -1.8670   18.2870   28.1580 C.3   172  PRO172      0.0296
    184  CG        -1.1700   17.3300   27.2110 C.3   172  PRO172      0.0237
    185  CD         0.0840   16.9730   27.9270 C.3   172  PRO172      0.0939
    186  N          9.0870   18.5480   26.9530 N.3   196  LEU196     -0.1231
    187  CA         8.1330   17.7750   26.1560 C.3   196  LEU196      0.1693
    188  C          8.9080   16.9740   25.1080 C.2   196  LEU196      0.2591
    189  O          9.8180   17.5170   24.4890 O.2   196  LEU196     -0.2718
    190  CB         7.1660   18.7280   25.4720 C.3   196  LEU196      0.0284
    191  CG         6.0310   18.1320   24.6370 C.3   196  LEU196      0.0019
    192  CD1        5.0720   17.2930   25.4930 C.3   196  LEU196      0.0001
    193  CD2        5.2880   19.2580   23.9160 C.3   196  LEU196      0.0001
    194  N          8.5050   15.7440   24.8900 N.am  197  GLU197     -0.1979
    195  CA         9.1440   14.8730   23.9280 C.3   197  GLU197      0.1602
    196  C          9.3210   15.6290   22.5960 C.2   197  GLU197      0.2287
    197  O          8.3700   16.2000   22.0410 O.2   197  GLU197     -0.2864
    198  CB         8.3400   13.6100   23.7480 C.3   197  GLU197      0.0415
    199  CG         6.8290   13.7780   23.4710 C.3   197  GLU197      0.1163
    200  CD         5.9430   13.6510   24.7080 C.2   197  GLU197      0.3649
    201  OE1        6.3390   14.0760   25.8070 O.co2 197  GLU197     -0.2457
    202  OE2        4.8050   13.1430   24.5690 O.co2 197  GLU197     -0.2457
@<TRIPOS>BOND
     1     1     2    1
     2     4     3    2
     3     2     5    1
     4     2     3    1
     5     5     6    1
     6     6     7   ar
     7     6     8   ar
     8    46    45    1
     9    11     8   ar
    10    11    13   ar
    11     7     9   ar
    12     8    10   ar
    13    78    77    2
    14    79    77   am
    15    45    43   ar
    16    45    44   ar
    17    77    76    1
    18    13    14   ar
    19    43    41   ar
    20    29    28    2
    21     9    10   ar
    22    44    42   ar
    23    10    12   ar
    24    15    16    1
    25    28    30   am
    26    28    27    1
    27    41    40   ar
    28    14    12   ar
    29    76    73    1
    30    74    75    2
    31    74    73    1
    32    42    40   ar
    33    38    37    2
    34    40    39    1
    35    73    72    1
    36   197   196    2
    37    22    21    1
    38    16    19    1
    39    16    17    1
    40    37    36    1
    41    20    19    1
    42    20    21    1
    43    27    24    1
    44    23    17   am
    45    23    24    1
    46   196   195    1
    47    17    18    2
    48    36    39    1
    49    36    35    1
    50    24    25    1
    51    72    66   am
    52   199   198    1
    53   199   200    1
    54   198   195    1
    55    67    66    2
    56   193   191    1
    57   195   194    1
    58    63    61   ar
    59    26    25    2
    60    66    65    1
    61    60    61    1
    62    60    59    1
    63   189   188    2
    64   202   200   ar
    65    61    62   ar
    66   191   190    1
    67   191   192    1
    68   200   201   ar
    69   194   188   am
    70   188   187    1
    71   190   187    1
    72    70    68    1
    73    59    56    1
    74    65    64    1
    75    65    68    1
    76   133   131   ar
    77   133   135   ar
    78    58    57    2
    79   130   131   ar
    80   130   128   ar
    81   187   186    1
    82    64    57   am
    83    57    56    1
    84    68    69    1
    85    69    71    1
    86   131   129   ar
    87   135   134   ar
    88    56    55    1
    89   177   176    1
    90   128   127   ar
    91   184   185    1
    92   184   183    1
    93    80    81    1
    94    34    33    2
    95   129   127   ar
    96   129   132   ar
    97   134   132   ar
    98    55    49   am
    99    33    32    1
   100   185   179    1
   101    81    82    1
   102   127   126    1
   103   183   180    1
   104   176   178    1
   105   176   173    1
   106   111   109   ar
   107   171   169   am
   108   179   180    1
   109   179   174   am
   110    83    82    2
   111   180   181    1
   112   175   174    2
   113    82    84   am
   114    32    31    1
   115   174   173    1
   116   107   106    2
   117    49    50    2
   118    49    48    1
   119   163   161   ar
   120   170   169    2
   121   110   109   ar
   122   109   108    1
   123   173   172    1
   124   143   144    1
   125   143   142    1
   126   169   168    1
   127    84    85    1
   128   126   123    1
   129   123   122    1
   130   123   124    1
   131   122   114   am
   132   114   115    2
   133   114   113    1
   134   113   116    1
   135   113   112    1
   136    48    47    1
   137    48    51    1
   138   106   112   am
   139   106   105    1
   140   181   182    2
   141    85    88    1
   142    85    86    1
   143   141   142    1
   144   141   140    1
   145   161   162   ar
   146   161   160    1
   147   108   105    1
   148   116   117    1
   149   168   165    1
   150   136   124   am
   151   136   137    1
   152   124   125    2
   153   105   104    1
   154    51    52    1
   155   140   137    1
   156   165   164    1
   157   165   166    1
   158   160   157    1
   159    86    89   am
   160    86    87    2
   161   117   119   ar
   162   117   118   ar
   163   137   138    1
   164   164   158   am
   165    89    90    1
   166   167   166    2
   167    52    53    1
   168   119   121   ar
   169   158   157    1
   170   158   159    2
   171   103   101   am
   172   102   101    2
   173   150   151    1
   174   150   149    1
   175   157   156    1
   176   118   120   ar
   177   138   139    2
   178   101   100    1
   179    90    93    1
   180    90    91    1
   181   151   152    1
   182    94    93    1
   183   149   146    1
   184   121   120   ar
   185    53    54    1
   186   145   146    1
   187   100    99    1
   188    95    91   am
   189    95    96    1
   190   152   153    2
   191    91    92    2
   192   146   147    1
   193   154   153    1
   194   153   155    1
   195    99    96    1
   196    96    97    1
   197    97    98    2
   198   147   148    2
