@<TRIPOS>MOLECULE
tmp/5p8yA01.pdb
 193 189 0 0 0
SMALL
GASTEIGER

@<TRIPOS>ATOM
      1  N          6.1170   14.0420   14.9200 N.3    36  TRP36      -0.1241
      2  CA         5.9610   14.0610   16.3600 C.3    36  TRP36       0.1605
      3  C          4.9410   13.0520   16.8060 C.2    36  TRP36       0.2264
      4  O          3.9620   12.8510   16.1880 O.2    36  TRP36      -0.2867
      5  CB         5.4700   15.4570   16.8480 C.3    36  TRP36       0.0550
      6  CG         5.4390   15.6330   18.2940 C.ar   36  TRP36       0.0003
      7  CD1        6.4630   16.1200   19.0980 C.ar   36  TRP36       0.0946
      8  CD2        4.3470   15.3060   19.1890 C.ar   36  TRP36       0.0152
      9  NE1        6.0760   16.0680   20.3770 N.ar   36  TRP36      -0.2442
     10  CE2        4.7830   15.6350   20.5030 C.ar   36  TRP36       0.0810
     11  CE3        3.0350   14.8550   19.0260 C.ar   36  TRP36       0.0012
     12  CZ2        3.9750   15.5010   21.6170 C.ar   36  TRP36       0.0191
     13  CZ3        2.2180   14.6990   20.1580 C.ar   36  TRP36       0.0001
     14  CH2        2.7010   15.0200   21.4430 C.ar   36  TRP36       0.0015
     15  N          3.3480   11.2860   20.7910 N.3    38  MET38      -0.1230
     16  CA         3.2810   11.4260   22.2680 C.3    38  MET38       0.1702
     17  C          3.9850   10.3420   23.0640 C.2    38  MET38       0.2592
     18  O          3.4630    9.8160   24.0700 O.2    38  MET38      -0.2718
     19  CB         1.8190   11.5940   22.7540 C.3    38  MET38       0.0401
     20  CG         0.9090   10.4890   22.3770 C.3    38  MET38       0.0596
     21  SD        -0.7100   10.7210   23.1320 S.3    38  MET38      -0.1393
     22  CE        -1.6880    9.4660   22.3410 C.3    38  MET38       0.0692
     23  N          5.1480    9.9160   22.6240 N.am   39  ASN39      -0.1974
     24  CA         5.9410    8.9680   23.4040 C.3    39  ASN39       0.1688
     25  C          6.5810    9.8110   24.5120 C.2    39  ASN39       0.2292
     26  O          6.8210   10.9870   24.3410 O.2    39  ASN39      -0.2864
     27  CB         7.0650    8.3250   22.5580 C.3    39  ASN39       0.1181
     28  CG         6.5700    7.7560   21.2700 C.2    39  ASN39       0.2629
     29  OD1        7.0200    8.2000   20.1850 O.2    39  ASN39      -0.2716
     30  ND2        5.7240    6.8370   21.3220 N.am   39  ASN39      -0.0877
     31  N         -0.2620    3.0740   33.0070 N.3    63  LEU63      -0.1231
     32  CA        -1.5880    3.5110   32.5020 C.3    63  LEU63       0.1693
     33  C         -1.2690    4.3240   31.2960 C.2    63  LEU63       0.2592
     34  O         -0.7570    5.4150   31.3750 O.2    63  LEU63      -0.2718
     35  CB        -2.2770    4.3370   33.5520 C.3    63  LEU63       0.0284
     36  CG        -2.5040    3.6190   34.8650 C.3    63  LEU63       0.0019
     37  CD1       -3.2150    4.5290   35.9430 C.3    63  LEU63       0.0001
     38  CD2       -3.3160    2.3010   34.6350 C.3    63  LEU63       0.0001
     39  N         -1.5720    3.7440   30.1220 N.am   64  GLY64      -0.1957
     40  CA        -1.2950    4.4060   28.8610 C.3    64  GLY64       0.1869
     41  C         -0.0680    3.8140   28.2510 C.2    64  GLY64       0.2309
     42  O          1.0260    4.1020   28.7200 O.2    64  GLY64      -0.2863
     43  N          0.3070    3.5470   24.5800 N.3    66  TYR66      -0.1241
     44  CA         0.4810    4.1930   23.2860 C.3    66  TYR66       0.1605
     45  C          1.1310    3.2420   22.2750 C.2    66  TYR66       0.2264
     46  O          0.3820    2.3420   21.7980 O.2    66  TYR66      -0.2867
     47  CB         1.0610    5.6110   23.3990 C.3    66  TYR66       0.0534
     48  CG         1.0900    6.3560   22.1050 C.ar   66  TYR66      -0.0201
     49  CD1       -0.0440    6.4310   21.3400 C.ar   66  TYR66      -0.0009
     50  CD2        2.2430    6.9920   21.6330 C.ar   66  TYR66      -0.0009
     51  CE1       -0.0130    7.1090   20.0810 C.ar   66  TYR66       0.0417
     52  CE2        2.2750    7.6680   20.4310 C.ar   66  TYR66       0.0417
     53  CZ         1.1040    7.6930   19.6790 C.ar   66  TYR66       0.1957
     54  OH         1.1580    8.3560   18.4710 O.3    66  TYR66      -0.2866
     55  N         -1.8250   -0.8360   30.5920 N.3    87  MET87      -0.1182
     56  CA        -3.2450   -0.6920   30.2220 C.3    87  MET87       0.1917
     57  C         -3.3100    0.2750   29.0190 C.2    87  MET87       0.2635
     58  O         -2.7240    1.3790   29.0110 O.2    87  MET87      -0.2714
     59  CB        -4.0700   -0.1310   31.3820 C.2    87  MET87       0.0083
     60  CG        -4.2940   -1.0470   32.6090 C.2    87  MET87       0.0282
     61  SD        -5.2260   -0.4970   34.1230 S.3    87  MET87      -0.1125
     62  CE        -5.1520   -1.9380   35.1390 C.3    87  MET87       0.0742
     63  N         -4.0650   -0.1520   27.9980 N.am   88  GLU88      -0.1963
     64  CA        -4.2320    0.6550   26.8180 C.3    88  GLU88       0.1733
     65  C         -5.6720    0.5760   26.3440 C.2    88  GLU88       0.2616
     66  O         -6.1880   -0.5310   26.1190 O.2    88  GLU88      -0.2715
     67  CB        -3.3040    0.2380   25.6840 C.3    88  GLU88       0.0429
     68  CG        -3.4540    1.0280   24.3840 C.3    88  GLU88       0.1163
     69  CD        -3.4440    2.5200   24.6410 C.2    88  GLU88       0.3649
     70  OE1       -2.4700    3.0790   25.1950 O.co2  88  GLU88      -0.2457
     71  OE2       -4.4620    3.1840   24.2880 O.co2  88  GLU88      -0.2457
     72  N         -6.3620    1.7110   26.2650 N.am   89  ILE89      -0.1977
     73  CA        -7.7750    1.7160   25.9490 C.3    89  ILE89       0.1596
     74  C         -7.9780    1.5960   24.4270 C.2    89  ILE89       0.2287
     75  O         -9.0520    1.1130   24.0150 O.2    89  ILE89      -0.2864
     76  CB        -8.4080    2.9880   26.5290 C.3    89  ILE89       0.0276
     77  CG1       -9.9280    2.8890   26.4760 C.3    89  ILE89       0.0022
     78  CG2       -7.9600    4.2590   25.7710 C.3    89  ILE89       0.0022
     79  CD1      -10.6110    3.9420   27.2610 C.3    89  ILE89       0.0001
     80  N         -8.2840   -2.0620   27.7430 N.3   115  GLY115     -0.1210
     81  CA        -9.4770   -1.5160   28.3470 C.3   115  GLY115      0.1956
     82  C         -9.1750   -0.1840   29.0420 C.2   115  GLY115      0.2612
     83  O         -8.0780    0.3830   28.9090 O.2   115  GLY115     -0.2717
     84  N        -10.2450    0.3190   29.6590 N.am  116  ALA116     -0.1965
     85  CA       -10.1950    1.5650   30.4460 C.3   116  ALA116      0.1728
     86  C         -9.6990    1.2960   31.8230 C.2   116  ALA116      0.2616
     87  O        -10.1060    0.3530   32.4640 O.2   116  ALA116     -0.2715
     88  CB       -11.6360    2.1770   30.5090 C.3   116  ALA116      0.0334
     89  N         -8.8910    2.2180   32.3340 N.am  117  SER117     -0.1950
     90  CA        -8.3600    2.1110   33.7150 C.3   117  SER117      0.1924
     91  C         -9.4380    1.9730   34.7850 C.2   117  SER117      0.2314
     92  O         -9.2920    1.1960   35.7380 O.2   117  SER117     -0.2863
     93  CB        -7.4530    3.3140   34.0290 C.3   117  SER117      0.2116
     94  OG        -8.1240    4.5320   33.8450 O.3   117  SER117     -0.2180
     95  N          0.3390    7.8500   32.4360 N.3   139  ASP139     -0.1225
     96  CA         0.5790    8.4710   31.1320 C.3   139  ASP139      0.1805
     97  C         -0.6500    8.3420   30.2400 C.2   139  ASP139      0.2598
     98  O         -0.5270    8.3530   29.0160 O.2   139  ASP139     -0.2718
     99  CB         1.7340    7.8200   30.4000 C.3   139  ASP139      0.1424
    100  CG         2.3150    8.6970   29.2970 C.2   139  ASP139      0.3668
    101  OD1        2.1500    9.9190   29.3290 O.co2 139  ASP139     -0.2456
    102  OD2        3.0010    8.0850   28.3850 O.co2 139  ASP139     -0.2456
    103  N         -1.8360    8.3230   30.8420 N.am  140  HIS140     -0.1961
    104  CA        -3.1230    8.1540   30.1070 C.3   140  HIS140      0.1787
    105  C         -3.8150    9.5200   30.1170 C.2   140  HIS140      0.2620
    106  O         -3.1480   10.5410   30.0750 O.2   140  HIS140     -0.2715
    107  CB        -3.9130    7.0060   30.6390 C.3   140  HIS140      0.0785
    108  CG        -4.3230    7.1230   32.0830 C.ar  140  HIS140      0.0821
    109  ND1       -3.5510    7.7490   33.0320 N.ar  140  HIS140     -0.2267
    110  CD2       -5.4090    6.6030   32.7380 C.ar  140  HIS140      0.1154
    111  CE1       -4.1560    7.6140   34.2040 C.ar  140  HIS140      0.1986
    112  NE2       -5.2780    6.9490   34.0480 N.ar  140  HIS140     -0.2212
    113  N         -5.1600    9.5360   30.1450 N.am  141  TRP141     -0.1960
    114  CA        -5.8400   10.8030   30.1530 C.3   141  TRP141      0.1771
    115  C         -5.4790   11.6090   31.4030 C.2   141  TRP141      0.2619
    116  O         -5.4620   11.0720   32.5000 O.2   141  TRP141     -0.2715
    117  CB        -7.3690   10.5980   30.1560 C.3   141  TRP141      0.0590
    118  CG        -7.9830   10.0710   28.8930 C.ar  141  TRP141      0.0006
    119  CD1       -7.5690   10.3830   27.6520 C.ar  141  TRP141      0.0946
    120  CD2       -9.1170    9.2010   28.7840 C.ar  141  TRP141      0.0152
    121  NE1       -8.3560    9.6810   26.7370 N.ar  141  TRP141     -0.2442
    122  CE2       -9.2830    8.9560   27.4220 C.ar  141  TRP141      0.0810
    123  CE3       -9.9650    8.6140   29.6950 C.ar  141  TRP141      0.0012
    124  CZ2      -10.3420    8.1470   26.9400 C.ar  141  TRP141      0.0191
    125  CZ3      -10.9520    7.7880   29.2340 C.ar  141  TRP141      0.0001
    126  CH2      -11.1370    7.5830   27.8650 C.ar  141  TRP141      0.0015
    127  N         -5.1270   12.8610   31.1910 N.am  142  LYS142     -0.1977
    128  CA        -4.5660   13.6580   32.2740 C.3   142  LYS142      0.1596
    129  C         -5.5690   13.9330   33.3910 C.2   142  LYS142      0.2287
    130  O         -5.2240   13.9420   34.5740 O.2   142  LYS142     -0.2864
    131  CB        -3.9730   14.9510   31.7180 C.3   142  LYS142      0.0298
    132  CG        -2.9550   14.7080   30.5110 C.3   142  LYS142      0.0038
    133  CD        -1.9740   13.5560   30.7720 C.3   142  LYS142      0.0206
    134  CE        -1.3070   13.1430   29.5370 C.3   142  LYS142      0.1093
    135  NZ        -0.6260   11.8180   29.6650 N.3   142  LYS142     -0.1314
    136  N         -7.5490   11.7680   34.3810 N.3   144  ARG144     -0.1245
    137  CA        -7.7580   10.5330   35.1350 C.3   144  ARG144      0.1563
    138  C         -6.6460   10.2940   36.1380 C.2   144  ARG144      0.2260
    139  O         -6.7040    9.3330   36.9190 O.2   144  ARG144     -0.2867
    140  CB        -7.8300    9.3290   34.2610 C.3   144  ARG144      0.0307
    141  CG        -9.0370    9.2570   33.4500 C.3   144  ARG144      0.0489
    142  CD       -10.2620    9.0270   34.2480 C.3   144  ARG144      0.2205
    143  NE       -10.2180    7.9350   35.2310 N.pl3 144  ARG144     -0.0865
    144  CZ       -11.2240    7.6710   36.0600 C.cat 144  ARG144      0.5346
    145  NH1      -12.3490    8.3700   35.9280 N.pl3 144  ARG144      0.1354
    146  NH2      -11.1280    6.7470   36.9550 N.pl3 144  ARG144      0.1354
    147  N          3.7630   11.3180   34.0250 N.3   167  ASP167     -0.1225
    148  CA         4.1830   12.1260   32.8760 C.3   167  ASP167      0.1805
    149  C          3.2750   13.3220   32.6950 C.2   167  ASP167      0.2597
    150  O          2.1160   13.3190   33.1210 O.2   167  ASP167     -0.2718
    151  CB         4.1420   11.3030   31.5900 C.3   167  ASP167      0.1424
    152  CG         4.9190   11.9590   30.4550 C.2   167  ASP167      0.3668
    153  OD1        5.8000   12.7490   30.7090 O.co2 167  ASP167     -0.2456
    154  OD2        4.5600   11.6380   29.2850 O.co2 167  ASP167     -0.2456
    155  N          3.7910   14.3470   32.0510 N.am  168  ASN168     -0.1974
    156  CA         2.9480   15.4390   31.5650 C.3   168  ASN168      0.1688
    157  C          2.3230   16.2750   32.6360 C.2   168  ASN168      0.2292
    158  O          1.2180   16.8780   32.4260 O.2   168  ASN168     -0.2864
    159  CB         1.8820   14.9670   30.5900 C.3   168  ASN168      0.1181
    160  CG         2.4280   14.1110   29.4860 C.2   168  ASN168      0.2629
    161  OD1        2.0670   12.9240   29.3230 O.2   168  ASN168     -0.2716
    162  ND2        3.3640   14.7390   28.7070 N.am  168  ASN168     -0.0877
    163  N          2.7110   19.8730   30.8440 N.3   171  VAL171     -0.1231
    164  CA         2.0290   19.9130   29.5170 C.3   171  VAL171      0.1678
    165  C          1.6860   18.4940   29.1160 C.2   171  VAL171      0.2434
    166  O          2.5770   17.6650   28.9690 O.2   171  VAL171     -0.2733
    167  CB         2.9490   20.5260   28.4300 C.3   171  VAL171      0.0265
    168  CG1        2.1780   20.5990   27.1430 C.3   171  VAL171      0.0020
    169  CG2        3.4480   21.9430   28.7700 C.3   171  VAL171      0.0020
    170  N          0.3890   18.1750   28.8850 N.am  172  PRO172     -0.2729
    171  CA        -0.7580   19.1340   28.9880 C.3   172  PRO172      0.1401
    172  C         -1.0560   19.6300   30.3650 C.2   172  PRO172      0.2269
    173  O         -1.7830   20.5860   30.5310 O.2   172  PRO172     -0.2865
    174  CB        -1.9150   18.3220   28.4440 C.3   172  PRO172      0.0296
    175  CG        -1.2440   17.4130   27.4390 C.3   172  PRO172      0.0237
    176  CD        -0.0620   16.9530   28.1950 C.3   172  PRO172      0.0939
    177  N          8.9740   18.5360   27.1450 N.3   196  LEU196     -0.1231
    178  CA         8.0200   17.7840   26.3440 C.3   196  LEU196      0.1693
    179  C          8.7760   16.9810   25.3060 C.2   196  LEU196      0.2591
    180  O          9.7130   17.4810   24.6630 O.2   196  LEU196     -0.2718
    181  CB         7.0880   18.7500   25.7170 C.3   196  LEU196      0.0284
    182  CG         5.9550   18.1820   24.8650 C.3   196  LEU196      0.0019
    183  CD1        5.0040   17.2750   25.6440 C.3   196  LEU196      0.0001
    184  CD2        5.1730   19.3040   24.1460 C.3   196  LEU196      0.0001
    185  N          8.3760   15.7430   25.1050 N.am  197  GLU197     -0.1979
    186  CA         9.0170   14.8740   24.1410 C.3   197  GLU197      0.1602
    187  C          9.1960   15.6100   22.7990 C.2   197  GLU197      0.2287
    188  O          8.2700   16.2020   22.2210 O.2   197  GLU197     -0.2864
    189  CB         8.2100   13.5910   23.8990 C.3   197  GLU197      0.0415
    190  CG         6.6710   13.7630   23.5990 C.3   197  GLU197      0.1163
    191  CD         5.8120   13.5880   24.8190 C.2   197  GLU197      0.3649
    192  OE1        6.2070   14.0440   25.9360 O.co2 197  GLU197     -0.2457
    193  OE2        4.6760   13.1340   24.7310 O.co2 197  GLU197     -0.2457
@<TRIPOS>BOND
     1     1     2    1
     2     4     3    2
     3     2     3    1
     4     2     5    1
     5     5     6    1
     6     6     7   ar
     7     6     8   ar
     8    54    53    1
     9    11     8   ar
    10    11    13   ar
    11     7     9   ar
    12     8    10   ar
    13    53    51   ar
    14    53    52   ar
    15    51    49   ar
    16    13    14   ar
    17    29    28    2
    18     9    10   ar
    19    52    50   ar
    20    10    12   ar
    21    15    16    1
    22    28    30   am
    23    28    27    1
    24    49    48   ar
    25    14    12   ar
    26    50    48   ar
    27    46    45    2
    28    48    47    1
    29   188   187    2
    30    16    19    1
    31    16    17    1
    32    45    44    1
    33    22    21    1
    34    20    19    1
    35    20    21    1
    36    27    24    1
    37    23    17   am
    38    23    24    1
    39   187   186    1
    40    17    18    2
    41    44    47    1
    42    44    43    1
    43    24    25    1
    44   190   189    1
    45   190   191    1
    46   189   186    1
    47    75    74    2
    48   186   185    1
    49   184   182    1
    50    71    69   ar
    51    26    25    2
    52    68    69    1
    53    68    67    1
    54    74    73    1
    55    69    70   ar
    56   180   179    2
    57   193   191   ar
    58   191   192   ar
    59   182   183    1
    60   182   181    1
    61   185   179   am
    62   179   178    1
    63    67    64    1
    64   181   178    1
    65    78    76    1
    66    73    72    1
    67    73    76    1
    68    66    65    2
    69    72    65   am
    70    65    64    1
    71   178   177    1
    72    77    76    1
    73    77    79    1
    74   121   122   ar
    75   121   119   ar
    76    64    63    1
    77   124   122   ar
    78   124   126   ar
    79   168   167    1
    80   122   120   ar
    81   175   176    1
    82   175   174    1
    83   119   118   ar
    84    80    81    1
    85   126   125   ar
    86    63    57   am
    87   176   170    1
    88    41    42    2
    89    41    40    1
    90    81    82    1
    91   102   100   ar
    92   167   169    1
    93   167   164    1
    94   174   171    1
    95   162   160   am
    96   120   118   ar
    97   120   123   ar
    98    40    39    1
    99   170   171    1
   100   170   165   am
   101   118   117    1
   102    83    82    2
   103   166   165    2
   104   171   172    1
   105    58    57    2
   106    98    97    2
   107    57    56    1
   108    82    84   am
   109   165   164    1
   110   125   123   ar
   111   154   152   ar
   112   100   101   ar
   113   100    99    1
   114   161   160    2
   115   160   159    1
   116   164   163    1
   117   134   135    1
   118   134   133    1
   119    84    85    1
   120   106   105    2
   121   104   105    1
   122   104   107    1
   123   104   103    1
   124   105   113   am
   125    39    33   am
   126   113   114    1
   127   114   117    1
   128   114   115    1
   129    56    55    1
   130    56    59    1
   131    97   103   am
   132    97    96    1
   133   172   173    2
   134    99    96    1
   135    85    88    1
   136    85    86    1
   137   152   153   ar
   138   152   151    1
   139   132   133    1
   140   132   131    1
   141   159   156    1
   142   107   108    1
   143    96    95    1
   144   127   115   am
   145   127   128    1
   146    33    34    2
   147    33    32    1
   148    59    60    2
   149   115   116    2
   150   156   155    1
   151   156   157    1
   152   151   148    1
   153   131   128    1
   154    86    89   am
   155    86    87    2
   156   155   149   am
   157   108   110   ar
   158   108   109   ar
   159   128   129    1
   160    89    90    1
   161   158   157    2
   162    32    31    1
   163    32    35    1
   164    60    61    1
   165   149   148    1
   166   149   150    2
   167   110   112   ar
   168   148   147    1
   169   109   111   ar
   170   129   130    2
   171   141   142    1
   172   141   140    1
   173    35    36    1
   174    90    93    1
   175    90    91    1
   176    94    93    1
   177   112   111   ar
   178    61    62    1
   179   142   143    1
   180   140   137    1
   181   136   137    1
   182    38    36    1
   183    91    92    2
   184    36    37    1
   185   137   138    1
   186   143   144    2
   187   145   144    1
   188   144   146    1
   189   138   139    2
