@<TRIPOS>MOLECULE
tmp/5p8zA00.pdb
 182 179 0 0 0
SMALL
GASTEIGER

@<TRIPOS>ATOM
      1  N          6.0820   14.0020   14.9420 N.3    36  TRP36      -0.1241
      2  CA         5.9490   14.0290   16.4050 C.3    36  TRP36       0.1605
      3  C          4.9500   13.0220   16.8600 C.2    36  TRP36       0.2264
      4  O          3.9350   12.8000   16.2320 O.2    36  TRP36      -0.2867
      5  CB         5.4590   15.4360   16.8460 C.3    36  TRP36       0.0550
      6  CG         5.4310   15.6220   18.3180 C.ar   36  TRP36       0.0003
      7  CD1        6.4500   16.1020   19.0940 C.ar   36  TRP36       0.0946
      8  CD2        4.3370   15.3340   19.2300 C.ar   36  TRP36       0.0152
      9  NE1        6.0830   16.0820   20.4080 N.ar   36  TRP36      -0.2442
     10  CE2        4.7910   15.6610   20.5410 C.ar   36  TRP36       0.0810
     11  CE3        3.0190   14.8580   19.0830 C.ar   36  TRP36       0.0012
     12  CZ2        3.9920   15.5090   21.6810 C.ar   36  TRP36       0.0191
     13  CZ3        2.2210   14.7380   20.2010 C.ar   36  TRP36       0.0001
     14  CH2        2.7110   15.0520   21.5110 C.ar   36  TRP36       0.0015
     15  N          3.3230   11.2740   20.8730 N.3    38  MET38      -0.1230
     16  CA         3.2900   11.4230   22.3470 C.3    38  MET38       0.1702
     17  C          3.9730   10.3270   23.1540 C.2    38  MET38       0.2592
     18  O          3.4590    9.8690   24.1720 O.2    38  MET38      -0.2718
     19  CB         1.8310   11.6200   22.8240 C.3    38  MET38       0.0401
     20  CG         0.9270   10.4320   22.5340 C.3    38  MET38       0.0596
     21  SD        -0.7080   10.7480   23.2210 S.3    38  MET38      -0.1393
     22  CE        -1.6310    9.3830   22.5700 C.3    38  MET38       0.0692
     23  N          5.1290    9.9020   22.7000 N.am   39  ASN39      -0.1974
     24  CA         5.9640    8.9760   23.4960 C.3    39  ASN39       0.1688
     25  C          6.6220    9.8150   24.5770 C.2    39  ASN39       0.2292
     26  O          6.8280   10.9900   24.4090 O.2    39  ASN39      -0.2864
     27  CB         7.0970    8.3470   22.6490 C.3    39  ASN39       0.1181
     28  CG         6.6150    7.7580   21.3600 C.2    39  ASN39       0.2629
     29  OD1        7.0370    8.2050   20.2630 O.2    39  ASN39      -0.2716
     30  ND2        5.7480    6.8280   21.4120 N.am   39  ASN39      -0.0877
     31  N         -0.2520    3.0620   33.1230 N.3    63  LEU63      -0.1231
     32  CA        -1.5670    3.5060   32.5810 C.3    63  LEU63       0.1693
     33  C         -1.2740    4.3050   31.3460 C.2    63  LEU63       0.2592
     34  O         -0.7610    5.4300   31.3970 O.2    63  LEU63      -0.2718
     35  CB        -2.2450    4.3770   33.6270 C.3    63  LEU63       0.0284
     36  CG        -2.4740    3.6430   34.9330 C.3    63  LEU63       0.0019
     37  CD1       -3.1960    4.5420   35.9870 C.3    63  LEU63       0.0001
     38  CD2       -3.2670    2.3160   34.7100 C.3    63  LEU63       0.0001
     39  N         -1.5290    3.7180   30.1790 N.am   64  GLY64      -0.1957
     40  CA        -1.3300    4.4490   28.9140 C.3    64  GLY64       0.1869
     41  C         -0.1440    4.0590   28.0370 C.2    64  GLY64       0.2309
     42  O          0.7760    4.8720   27.7770 O.2    64  GLY64      -0.2863
     43  N          0.3180    3.5580   24.6880 N.3    66  TYR66      -0.1241
     44  CA         0.4690    4.1840   23.3730 C.3    66  TYR66       0.1605
     45  C          1.1030    3.2060   22.3570 C.2    66  TYR66       0.2264
     46  O          0.3820    2.3130   21.9090 O.2    66  TYR66      -0.2867
     47  CB         1.0950    5.6010   23.4530 C.3    66  TYR66       0.0534
     48  CG         1.1050    6.3470   22.1510 C.ar   66  TYR66      -0.0201
     49  CD1       -0.0460    6.3910   21.3820 C.ar   66  TYR66      -0.0009
     50  CD2        2.2310    7.0270   21.7120 C.ar   66  TYR66      -0.0009
     51  CE1       -0.0490    7.0680   20.1450 C.ar   66  TYR66       0.0417
     52  CE2        2.2600    7.6790   20.5060 C.ar   66  TYR66       0.0417
     53  CZ         1.1000    7.6910   19.7480 C.ar   66  TYR66       0.1957
     54  OH         1.1280    8.3690   18.5400 O.3    66  TYR66      -0.2866
     55  N         -1.7490   -0.7900   30.5230 N.3    87  MET87      -0.1182
     56  CA        -3.1600   -0.6370   30.0990 C.3    87  MET87       0.1917
     57  C         -3.2210    0.3360   28.9310 C.2    87  MET87       0.2635
     58  O         -2.6010    1.4190   28.9420 O.2    87  MET87      -0.2714
     59  CB        -4.0180   -0.1150   31.2560 C.2    87  MET87       0.0083
     60  CG        -4.1100   -1.0080   32.4760 C.2    87  MET87       0.0282
     61  SD        -5.1720   -0.4840   33.8800 S.3    87  MET87      -0.1125
     62  CE        -5.1170   -1.8620   35.0000 C.3    87  MET87       0.0742
     63  N         -4.0000   -0.0430   27.9190 N.am   88  GLU88      -0.1963
     64  CA        -4.1650    0.7640   26.7420 C.3    88  GLU88       0.1733
     65  C         -5.6200    0.6640   26.2730 C.2    88  GLU88       0.2616
     66  O         -6.1400   -0.4470   26.0980 O.2    88  GLU88      -0.2715
     67  CB        -3.2040    0.3410   25.6040 C.3    88  GLU88       0.0429
     68  CG        -3.3420    1.1230   24.3220 C.3    88  GLU88       0.1163
     69  CD        -3.4020    2.5670   24.5790 C.2    88  GLU88       0.3649
     70  OE1       -2.4630    3.1310   25.1720 O.co2  88  GLU88      -0.2457
     71  OE2       -4.3600    3.2620   24.1360 O.co2  88  GLU88      -0.2457
     72  N         -6.2820    1.8060   26.1070 N.am   89  ILE89      -0.1977
     73  CA        -7.6990    1.8030   25.8000 C.3    89  ILE89       0.1596
     74  C         -7.9330    1.7090   24.2720 C.2    89  ILE89       0.2287
     75  O         -9.0040    1.2340   23.8550 O.2    89  ILE89      -0.2864
     76  CB        -8.3610    3.0770   26.3790 C.3    89  ILE89       0.0276
     77  CG1       -9.8730    2.9000   26.3930 C.3    89  ILE89       0.0022
     78  CG2       -7.9450    4.3150   25.6710 C.3    89  ILE89       0.0022
     79  CD1      -10.6030    3.9370   27.2730 C.3    89  ILE89       0.0001
     80  N         -8.2220   -2.0520   27.6450 N.3   115  GLY115     -0.1210
     81  CA        -9.4170   -1.5010   28.2450 C.3   115  GLY115      0.1956
     82  C         -9.1580   -0.1800   28.9610 C.2   115  GLY115      0.2612
     83  O         -8.0700    0.3760   28.8690 O.2   115  GLY115     -0.2717
     84  N        -10.2130    0.3040   29.6030 N.am  116  ALA116     -0.1965
     85  CA       -10.1860    1.5520   30.4080 C.3   116  ALA116      0.1728
     86  C         -9.6900    1.2490   31.7790 C.2   116  ALA116      0.2616
     87  O        -10.0880    0.2740   32.4090 O.2   116  ALA116     -0.2715
     88  CB       -11.6200    2.1800   30.5010 C.3   116  ALA116      0.0334
     89  N         -8.8820    2.1860   32.2900 N.am  117  SER117     -0.1950
     90  CA        -8.3440    2.0840   33.6460 C.3   117  SER117      0.1924
     91  C         -9.4040    1.9480   34.7460 C.2   117  SER117      0.2314
     92  O         -9.2200    1.1840   35.6960 O.2   117  SER117     -0.2863
     93  CB        -7.3910    3.2540   33.9170 C.3   117  SER117      0.2116
     94  OG        -8.0490    4.4980   33.8240 O.3   117  SER117     -0.2180
     95  N          0.3760    7.8350   32.5220 N.3   139  ASP139     -0.1225
     96  CA         0.5870    8.4780   31.2240 C.3   139  ASP139      0.1805
     97  C         -0.6290    8.3590   30.3350 C.2   139  ASP139      0.2598
     98  O         -0.5170    8.3210   29.1080 O.2   139  ASP139     -0.2718
     99  CB         1.8000    7.8730   30.5240 C.3   139  ASP139      0.1424
    100  CG         2.3180    8.7080   29.3730 C.2   139  ASP139      0.3668
    101  OD1        2.1420    9.9580   29.3660 O.co2 139  ASP139     -0.2456
    102  OD2        3.0160    8.1190   28.4790 O.co2 139  ASP139     -0.2456
    103  N         -1.7920    8.3510   30.9660 N.am  140  HIS140     -0.1961
    104  CA        -3.0690    8.1800   30.2360 C.3   140  HIS140      0.1787
    105  C         -3.7970    9.5200   30.2710 C.2   140  HIS140      0.2620
    106  O         -3.1610   10.5660   30.2120 O.2   140  HIS140     -0.2715
    107  CB        -3.8810    7.0050   30.7440 C.3   140  HIS140      0.0785
    108  CG        -4.3140    7.1200   32.1740 C.ar  140  HIS140      0.0821
    109  ND1       -3.5560    7.7730   33.1140 N.ar  140  HIS140     -0.2267
    110  CD2       -5.3900    6.6140   32.8250 C.ar  140  HIS140      0.1154
    111  CE1       -4.1560    7.6690   34.2840 C.ar  140  HIS140      0.1986
    112  NE2       -5.2730    6.9670   34.1450 N.ar  140  HIS140     -0.2212
    113  N         -5.1310    9.5270   30.2490 N.am  141  TRP141     -0.1960
    114  CA        -5.8590   10.7880   30.2350 C.3   141  TRP141      0.1771
    115  C         -5.4460   11.6240   31.4560 C.2   141  TRP141      0.2619
    116  O         -5.4300   11.1280   32.5650 O.2   141  TRP141     -0.2715
    117  CB        -7.3850   10.5210   30.2660 C.3   141  TRP141      0.0590
    118  CG        -8.0060    9.9610   28.9940 C.ar  141  TRP141      0.0006
    119  CD1       -7.6890   10.3080   27.7390 C.ar  141  TRP141      0.0946
    120  CD2       -9.0810    9.0050   28.8940 C.ar  141  TRP141      0.0152
    121  NE1       -8.4580    9.6150   26.8380 N.ar  141  TRP141     -0.2442
    122  CE2       -9.3170    8.8120   27.5300 C.ar  141  TRP141      0.0810
    123  CE3       -9.8360    8.2760   29.8280 C.ar  141  TRP141      0.0012
    124  CZ2      -10.3010    7.9370   27.0570 C.ar  141  TRP141      0.0191
    125  CZ3      -10.8120    7.3960   29.3640 C.ar  141  TRP141      0.0001
    126  CH2      -11.0410    7.2420   27.9840 C.ar  141  TRP141      0.0015
    127  N         -5.1090   12.8870   31.2460 N.am  142  LYS142     -0.1977
    128  CA        -4.5820   13.7230   32.3140 C.3   142  LYS142      0.1596
    129  C         -5.5870   14.0020   33.4140 C.2   142  LYS142      0.2287
    130  O         -5.2180   14.0270   34.5870 O.2   142  LYS142     -0.2864
    131  CB        -3.9570   15.0290   31.7410 C.3   142  LYS142      0.0298
    132  CG        -2.9610   14.7640   30.5680 C.3   142  LYS142      0.0038
    133  CD        -1.9390   13.6270   30.8440 C.3   142  LYS142      0.0206
    134  CE        -1.2960   13.1870   29.5770 C.3   142  LYS142      0.1093
    135  NZ        -0.6130   11.8300   29.7360 N.3   142  LYS142     -0.1314
    136  N          3.7570   11.3650   34.1170 N.3   167  ASP167     -0.1225
    137  CA         4.1860   12.1600   32.9660 C.3   167  ASP167      0.1805
    138  C          3.2940   13.3590   32.7980 C.2   167  ASP167      0.2597
    139  O          2.1200   13.3580   33.2110 O.2   167  ASP167     -0.2718
    140  CB         4.1320   11.3160   31.6830 C.3   167  ASP167      0.1424
    141  CG         4.9210   11.9690   30.5020 C.2   167  ASP167      0.3668
    142  OD1        5.8160   12.7740   30.7940 O.co2 167  ASP167     -0.2456
    143  OD2        4.5610   11.6830   29.3130 O.co2 167  ASP167     -0.2456
    144  N          3.8010   14.3880   32.1290 N.am  168  ASN168     -0.1974
    145  CA         2.9890   15.5000   31.6160 C.3   168  ASN168      0.1688
    146  C          2.3530   16.3440   32.6930 C.2   168  ASN168      0.2292
    147  O          1.2540   16.9060   32.4750 O.2   168  ASN168     -0.2864
    148  CB         1.8980   14.9980   30.6530 C.3   168  ASN168      0.1181
    149  CG         2.4570   14.1580   29.5450 C.2   168  ASN168      0.2629
    150  OD1        2.0740   12.9890   29.3900 O.2   168  ASN168     -0.2716
    151  ND2        3.3520   14.7600   28.7630 N.am  168  ASN168     -0.0877
    152  N          2.7360   19.9060   30.8990 N.3   171  VAL171     -0.1231
    153  CA         2.0790   19.9620   29.5740 C.3   171  VAL171      0.1678
    154  C          1.7230   18.5400   29.1460 C.2   171  VAL171      0.2434
    155  O          2.6020   17.7040   28.9980 O.2   171  VAL171     -0.2733
    156  CB         3.0110   20.6010   28.4740 C.3   171  VAL171      0.0265
    157  CG1        2.2730   20.6020   27.1290 C.3   171  VAL171      0.0020
    158  CG2        3.4930   22.0280   28.8300 C.3   171  VAL171      0.0020
    159  N          0.4420   18.2510   28.8970 N.am  172  PRO172     -0.2729
    160  CA        -0.6930   19.1990   29.0220 C.3   172  PRO172      0.1401
    161  C         -1.0040   19.6860   30.4230 C.2   172  PRO172      0.2269
    162  O         -1.7260   20.6640   30.5810 O.2   172  PRO172     -0.2865
    163  CB        -1.8600   18.3990   28.4560 C.3   172  PRO172      0.0296
    164  CG        -1.2040   17.4770   27.4930 C.3   172  PRO172      0.0237
    165  CD         0.0090   17.0240   28.2130 C.3   172  PRO172      0.0939
    166  N          9.0280   18.5320   27.1910 N.3   196  LEU196     -0.1231
    167  CA         8.0990   17.7540   26.4330 C.3   196  LEU196      0.1693
    168  C          8.8490   16.9740   25.3620 C.2   196  LEU196      0.2591
    169  O          9.7610   17.4880   24.7070 O.2   196  LEU196     -0.2718
    170  CB         7.1350   18.7400   25.8040 C.3   196  LEU196      0.0284
    171  CG         6.0100   18.1870   24.9380 C.3   196  LEU196      0.0019
    172  CD1        5.0350   17.3200   25.7400 C.3   196  LEU196      0.0001
    173  CD2        5.2500   19.2860   24.1620 C.3   196  LEU196      0.0001
    174  N          8.4240   15.7380   25.1360 N.am  197  GLU197     -0.1979
    175  CA         9.0450   14.8930   24.1600 C.3   197  GLU197      0.1602
    176  C          9.2240   15.6290   22.8410 C.2   197  GLU197      0.2287
    177  O          8.2850   16.2160   22.2660 O.2   197  GLU197     -0.2864
    178  CB         8.2440   13.5900   23.9650 C.3   197  GLU197      0.0415
    179  CG         6.7160   13.7800   23.6700 C.3   197  GLU197      0.1163
    180  CD         5.8440   13.6420   24.9030 C.2   197  GLU197      0.3649
    181  OE1        6.2570   14.0550   26.0010 O.co2 197  GLU197     -0.2457
    182  OE2        4.7070   13.1490   24.7700 O.co2 197  GLU197     -0.2457
@<TRIPOS>BOND
     1     1     2    1
     2     4     3    2
     3     2     5    1
     4     2     3    1
     5     5     6    1
     6     6     7   ar
     7     6     8   ar
     8    54    53    1
     9    11     8   ar
    10    11    13   ar
    11     7     9   ar
    12     8    10   ar
    13    53    51   ar
    14    53    52   ar
    15    51    49   ar
    16    13    14   ar
    17    29    28    2
    18     9    10   ar
    19    52    50   ar
    20    10    12   ar
    21    15    16    1
    22    28    30   am
    23    28    27    1
    24    49    48   ar
    25    14    12   ar
    26    50    48   ar
    27    46    45    2
    28    48    47    1
    29   177   176    2
    30    16    19    1
    31    16    17    1
    32    45    44    1
    33    20    19    1
    34    20    21    1
    35    22    21    1
    36    27    24    1
    37    23    17   am
    38    23    24    1
    39   176   175    1
    40    17    18    2
    41    44    47    1
    42    44    43    1
    43    24    25    1
    44   179   178    1
    45   179   180    1
    46    75    74    2
    47   178   175    1
    48    71    69   ar
    49   175   174    1
    50   173   171    1
    51    74    73    1
    52    68    69    1
    53    68    67    1
    54    26    25    2
    55    69    70   ar
    56   169   168    2
    57   182   180   ar
    58   180   181   ar
    59   171   172    1
    60   171   170    1
    61   174   168   am
    62   168   167    1
    63    67    64    1
    64    78    76    1
    65    73    72    1
    66    73    76    1
    67   170   167    1
    68    66    65    2
    69    72    65   am
    70    65    64    1
    71    76    77    1
    72    77    79    1
    73   167   166    1
    74    64    63    1
    75   121   122   ar
    76   121   119   ar
    77   124   122   ar
    78   124   126   ar
    79   157   156    1
    80   164   165    1
    81   164   163    1
    82   122   120   ar
    83    80    81    1
    84   119   118   ar
    85    42    41    2
    86    63    57   am
    87   126   125   ar
    88    41    40    1
    89   165   159    1
    90    81    82    1
    91   163   160    1
    92   156   158    1
    93   156   153    1
    94   102   100   ar
    95   151   149   am
    96    83    82    2
    97   120   118   ar
    98   120   123   ar
    99   159   160    1
   100   159   154   am
   101    40    39    1
   102    57    58    2
   103    57    56    1
   104    82    84   am
   105   118   117    1
   106   155   154    2
   107   160   161    1
   108    98    97    2
   109   154   153    1
   110   143   141   ar
   111   125   123   ar
   112   101   100   ar
   113   100    99    1
   114   150   149    2
   115   149   148    1
   116   153   152    1
   117   134   135    1
   118   134   133    1
   119    84    85    1
   120    56    55    1
   121    56    59    1
   122    39    33   am
   123   106   105    2
   124   114   113    1
   125   114   117    1
   126   114   115    1
   127   104   105    1
   128   104   107    1
   129   104   103    1
   130   113   105   am
   131    97   103   am
   132    97    96    1
   133    85    88    1
   134    85    86    1
   135   161   162    2
   136   141   142   ar
   137   141   140    1
   138    99    96    1
   139   132   133    1
   140   132   131    1
   141   148   145    1
   142   107   108    1
   143    96    95    1
   144   127   115   am
   145   127   128    1
   146    59    60    2
   147    33    34    2
   148    33    32    1
   149   115   116    2
   150   145   144    1
   151   145   146    1
   152   140   137    1
   153   131   128    1
   154    86    89   am
   155    86    87    2
   156   144   138   am
   157   108   110   ar
   158   108   109   ar
   159    89    90    1
   160   128   129    1
   161   147   146    2
   162    60    61    1
   163    32    31    1
   164    32    35    1
   165   138   137    1
   166   138   139    2
   167   110   112   ar
   168   137   136    1
   169   109   111   ar
   170   129   130    2
   171    35    36    1
   172    90    93    1
   173    90    91    1
   174    94    93    1
   175    61    62    1
   176   112   111   ar
   177    38    36    1
   178    91    92    2
   179    36    37    1
