@<TRIPOS>MOLECULE
tmp/5p90A00.pdb
 193 189 0 0 0
SMALL
GASTEIGER

@<TRIPOS>ATOM
      1  N          6.1390   14.1080   14.9120 N.3    37  TRP37      -0.1241
      2  CA         6.0410   14.1250   16.3750 C.3    37  TRP37       0.1605
      3  C          5.0140   13.0980   16.8230 C.2    37  TRP37       0.2264
      4  O          3.9820   12.8820   16.1620 O.2    37  TRP37      -0.2867
      5  CB         5.5210   15.4850   16.8590 C.3    37  TRP37       0.0550
      6  CG         5.4770   15.6440   18.3540 C.ar   37  TRP37       0.0003
      7  CD1        6.4920   16.0730   19.1770 C.ar   37  TRP37       0.0946
      8  CD2        4.3670   15.3350   19.2460 C.ar   37  TRP37       0.0152
      9  NE1        6.0950   16.0690   20.4740 N.ar   37  TRP37      -0.2442
     10  CE2        4.8020   15.6380   20.5590 C.ar   37  TRP37       0.0810
     11  CE3        3.0360   14.9050   19.0660 C.ar   37  TRP37       0.0012
     12  CZ2        3.9820   15.4740   21.6760 C.ar   37  TRP37       0.0191
     13  CZ3        2.2380   14.7360   20.1920 C.ar   37  TRP37       0.0001
     14  CH2        2.6960   15.0450   21.4690 C.ar   37  TRP37       0.0015
     15  N          3.3700   11.3100   20.8160 N.3    39  MET39      -0.1230
     16  CA         3.3120   11.4460   22.2780 C.3    39  MET39       0.1702
     17  C          3.9840   10.2950   23.0550 C.2    39  MET39       0.2592
     18  O          3.4870    9.8390   24.1020 O.2    39  MET39      -0.2718
     19  CB         1.8590   11.6430   22.7310 C.3    39  MET39       0.0401
     20  CG         0.9180   10.5070   22.3790 C.3    39  MET39       0.0596
     21  SD        -0.6540   10.6650   23.2020 S.3    39  MET39      -0.1393
     22  CE        -1.6090    9.5850   22.2130 C.3    39  MET39       0.0692
     23  N          5.1610    9.8710   22.6080 N.am   40  ASN40      -0.1974
     24  CA         5.9700    8.9560   23.4080 C.3    40  ASN40       0.1688
     25  C          6.6340    9.7780   24.5190 C.2    40  ASN40       0.2292
     26  O          6.8660   10.9720   24.3530 O.2    40  ASN40      -0.2864
     27  CB         7.0940    8.3500   22.5630 C.3    40  ASN40       0.1181
     28  CG         6.6070    7.7410   21.2640 C.2    40  ASN40       0.2629
     29  OD1        7.0140    8.2210   20.1640 O.2    40  ASN40      -0.2716
     30  ND2        5.7670    6.7890   21.3240 N.am   40  ASN40      -0.0877
     31  N         -0.2770    3.0260   33.1160 N.3    64  LEU64      -0.1231
     32  CA        -1.5500    3.4880   32.5730 C.3    64  LEU64       0.1693
     33  C         -1.2850    4.3210   31.3310 C.2    64  LEU64       0.2592
     34  O         -0.7500    5.4320   31.4010 O.2    64  LEU64      -0.2718
     35  CB        -2.3080    4.3050   33.6120 C.3    64  LEU64       0.0284
     36  CG        -2.5520    3.5840   34.9470 C.3    64  LEU64       0.0019
     37  CD1       -3.2670    4.5440   35.9360 C.3    64  LEU64       0.0001
     38  CD2       -3.2620    2.2820   34.7900 C.3    64  LEU64       0.0001
     39  N         -1.5950    3.7490   30.1650 N.am   65  GLY65      -0.1957
     40  CA        -1.3360    4.3720   28.8600 C.3    65  GLY65       0.1869
     41  C         -0.0920    3.7900   28.2500 C.2    65  GLY65       0.2309
     42  O          1.0010    4.0160   28.7480 O.2    65  GLY65      -0.2863
     43  N          0.2850    3.5660   24.5510 N.3    67  TYR67      -0.1241
     44  CA         0.4580    4.2400   23.2640 C.3    67  TYR67       0.1605
     45  C          1.1110    3.2910   22.2530 C.2    67  TYR67       0.2264
     46  O          0.4340    2.3870   21.7580 O.2    67  TYR67      -0.2867
     47  CB         1.0930    5.6350   23.4170 C.3    67  TYR67       0.0534
     48  CG         1.1070    6.3790   22.0960 C.ar   67  TYR67      -0.0201
     49  CD1       -0.0550    6.4650   21.3130 C.ar   67  TYR67      -0.0009
     50  CD2        2.2460    7.0140   21.6430 C.ar   67  TYR67      -0.0009
     51  CE1       -0.0200    7.1350   20.1070 C.ar   67  TYR67       0.0417
     52  CE2        2.2790    7.6760   20.4160 C.ar   67  TYR67       0.0417
     53  CZ         1.1300    7.7340   19.6610 C.ar   67  TYR67       0.1957
     54  OH         1.2050    8.3930   18.4430 O.3    67  TYR67      -0.2866
     55  N         -1.9020   -0.8730   30.7110 N.3    88  MET88      -0.1230
     56  CA        -3.3270   -0.7150   30.3750 C.3    88  MET88       0.1702
     57  C         -3.4560    0.2270   29.1800 C.2    88  MET88       0.2592
     58  O         -2.9800    1.3550   29.2430 O.2    88  MET88      -0.2718
     59  CB        -4.1470   -0.1690   31.5730 C.3    88  MET88       0.0401
     60  CG        -4.1910   -1.1710   32.7480 C.3    88  MET88       0.0596
     61  SD        -5.1850   -0.6010   34.1320 S.3    88  MET88      -0.1393
     62  CE        -5.1120   -2.0110   35.2370 C.3    88  MET88       0.0692
     63  N         -4.1700   -0.1990   28.1350 N.am   89  GLU89      -0.1966
     64  CA        -4.3210    0.6040   26.9240 C.3    89  GLU89       0.1733
     65  C         -5.7630    0.4890   26.4460 C.2    89  GLU89       0.2616
     66  O         -6.2280   -0.5930   26.1510 O.2    89  GLU89      -0.2715
     67  CB        -3.3240    0.1860   25.8450 C.3    89  GLU89       0.0429
     68  CG        -3.4660    0.9490   24.5420 C.3    89  GLU89       0.1163
     69  CD        -3.4720    2.4470   24.7280 C.2    89  GLU89       0.3649
     70  OE1       -2.4850    2.9990   25.2720 O.co2  89  GLU89      -0.2457
     71  OE2       -4.5050    3.0620   24.3690 O.co2  89  GLU89      -0.2457
     72  N         -6.4670    1.6110   26.4180 N.am   90  ILE90      -0.1977
     73  CA        -7.8710    1.6320   26.0330 C.3    90  ILE90       0.1596
     74  C         -8.0730    1.5090   24.5210 C.2    90  ILE90       0.2287
     75  O         -9.1190    1.0340   24.0890 O.2    90  ILE90      -0.2864
     76  CB        -8.5390    2.9350   26.5590 C.3    90  ILE90       0.0276
     77  CG1      -10.0440    2.7730   26.5990 C.3    90  ILE90       0.0022
     78  CG2       -8.1310    4.1670   25.7890 C.3    90  ILE90       0.0022
     79  CD1      -10.7390    3.9230   27.3080 C.3    90  ILE90       0.0001
     80  N         -8.3640   -2.1390   27.7860 N.3   116  GLY116     -0.1210
     81  CA        -9.5680   -1.5930   28.4040 C.3   116  GLY116      0.1956
     82  C         -9.2860   -0.2760   29.1050 C.2   116  GLY116      0.2612
     83  O         -8.1730    0.2520   29.0340 O.2   116  GLY116     -0.2717
     84  N        -10.3230    0.2200   29.7670 N.am  117  ALA117     -0.1965
     85  CA       -10.2540    1.4740   30.5060 C.3   117  ALA117      0.1728
     86  C         -9.7690    1.2040   31.9220 C.2   117  ALA117      0.2616
     87  O        -10.1890    0.2270   32.5840 O.2   117  ALA117     -0.2715
     88  CB       -11.6120    2.1250   30.5520 C.3   117  ALA117      0.0334
     89  N         -8.9010    2.0930   32.4020 N.am  118  SER118     -0.1950
     90  CA        -8.3620    1.9750   33.7630 C.3   118  SER118      0.1924
     91  C         -9.4390    1.8540   34.8460 C.2   118  SER118      0.2314
     92  O         -9.2590    1.0880   35.7970 O.2   118  SER118     -0.2863
     93  CB        -7.4380    3.1470   34.0410 C.3   118  SER118      0.2116
     94  OG        -8.1110    4.4030   33.9100 O.3   118  SER118     -0.2180
     95  N          0.3410    7.8050   32.4700 N.3   140  ASP140     -0.1225
     96  CA         0.5640    8.3900   31.1640 C.3   140  ASP140      0.1805
     97  C         -0.6420    8.3040   30.2660 C.2   140  ASP140      0.2598
     98  O         -0.5140    8.2790   29.0540 O.2   140  ASP140     -0.2718
     99  CB         1.8180    7.8020   30.4770 C.3   140  ASP140      0.1424
    100  CG         2.3400    8.6340   29.3570 C.2   140  ASP140      0.3668
    101  OD1        2.1670    9.8820   29.3650 O.co2 140  ASP140     -0.2456
    102  OD2        3.0350    8.0520   28.4580 O.co2 140  ASP140     -0.2456
    103  N         -1.8240    8.2710   30.8760 N.am  141  HIS141     -0.1961
    104  CA        -3.0790    8.1020   30.1510 C.3   141  HIS141      0.1787
    105  C         -3.8080    9.4470   30.1390 C.2   141  HIS141      0.2620
    106  O         -3.1690   10.4930   30.0270 O.2   141  HIS141     -0.2715
    107  CB        -3.8910    6.9260   30.6700 C.3   141  HIS141      0.0785
    108  CG        -4.3170    7.0380   32.0870 C.ar  141  HIS141      0.0821
    109  ND1       -3.5700    7.6810   33.0520 N.ar  141  HIS141     -0.2267
    110  CD2       -5.4350    6.5630   32.7080 C.ar  141  HIS141      0.1154
    111  CE1       -4.2080    7.5640   34.2090 C.ar  141  HIS141      0.1986
    112  NE2       -5.3400    6.8950   34.0320 N.ar  141  HIS141     -0.2212
    113  N         -5.1380    9.4650   30.1780 N.am  142  TRP142     -0.1960
    114  CA        -5.8430   10.7310   30.2000 C.3   142  TRP142      0.1771
    115  C         -5.4420   11.5440   31.4120 C.2   142  TRP142      0.2619
    116  O         -5.4490   11.0450   32.5280 O.2   142  TRP142     -0.2715
    117  CB        -7.3580   10.5110   30.2020 C.3   142  TRP142      0.0590
    118  CG        -7.9410   10.0500   28.9320 C.ar  142  TRP142      0.0006
    119  CD1       -7.4990   10.3150   27.6710 C.ar  142  TRP142      0.0946
    120  CD2       -9.0910    9.2060   28.7820 C.ar  142  TRP142      0.0152
    121  NE1       -8.3380    9.7140   26.7430 N.ar  142  TRP142     -0.2442
    122  CE2       -9.2860    8.9990   27.4090 C.ar  142  TRP142      0.0810
    123  CE3       -9.9880    8.6040   29.6880 C.ar  142  TRP142      0.0012
    124  CZ2      -10.3450    8.2120   26.9060 C.ar  142  TRP142      0.0191
    125  CZ3      -11.0150    7.8110   29.1860 C.ar  142  TRP142      0.0001
    126  CH2      -11.1660    7.6220   27.8230 C.ar  142  TRP142      0.0015
    127  N         -5.1130   12.8130   31.2150 N.am  143  LYS143     -0.1977
    128  CA        -4.5330   13.6140   32.2830 C.3   143  LYS143      0.1596
    129  C         -5.5330   13.8760   33.4060 C.2   143  LYS143      0.2287
    130  O         -5.1780   13.9350   34.5880 O.2   143  LYS143     -0.2864
    131  CB        -3.9240   14.8980   31.7220 C.3   143  LYS143      0.0298
    132  CG        -2.9540   14.6620   30.5330 C.3   143  LYS143      0.0038
    133  CD        -1.9460   13.5080   30.7720 C.3   143  LYS143      0.0206
    134  CE        -1.2420   13.0870   29.5440 C.3   143  LYS143      0.1093
    135  NZ        -0.6070   11.7250   29.6620 N.3   143  LYS143     -0.1314
    136  N         -7.5450   11.7300   34.4540 N.3   145  ARG145     -0.1245
    137  CA        -7.7320   10.4830   35.1850 C.3   145  ARG145      0.1563
    138  C         -6.6260   10.2280   36.1940 C.2   145  ARG145      0.2260
    139  O         -6.7090    9.2490   36.9750 O.2   145  ARG145     -0.2867
    140  CB        -7.8640    9.2930   34.2540 C.3   145  ARG145      0.0307
    141  CG        -9.1250    9.2400   33.4500 C.3   145  ARG145      0.0489
    142  CD       -10.3160    9.0420   34.3060 C.3   145  ARG145      0.2205
    143  NE       -10.2230    7.9320   35.2640 N.pl3 145  ARG145     -0.0865
    144  CZ       -11.2470    7.6370   36.0650 C.cat 145  ARG145      0.5346
    145  NH1      -12.3690    8.3440   35.9780 N.pl3 145  ARG145      0.1354
    146  NH2      -11.1490    6.6890   36.9730 N.pl3 145  ARG145      0.1354
    147  N          3.7650   11.3040   34.0770 N.3   168  ASP168     -0.1225
    148  CA         4.1830   12.0900   32.9210 C.3   168  ASP168      0.1805
    149  C          3.2800   13.2960   32.7340 C.2   168  ASP168      0.2597
    150  O          2.0880   13.2700   33.1300 O.2   168  ASP168     -0.2718
    151  CB         4.1480   11.2510   31.6190 C.3   168  ASP168      0.1424
    152  CG         4.8990   11.9100   30.4720 C.2   168  ASP168      0.3668
    153  OD1        5.8090   12.6990   30.7590 O.co2 168  ASP168     -0.2456
    154  OD2        4.5860   11.6110   29.2730 O.co2 168  ASP168     -0.2456
    155  N          3.8040   14.3490   32.1030 N.am  169  ASN169     -0.1974
    156  CA         2.9670   15.4320   31.5630 C.3   169  ASN169      0.1688
    157  C          2.2860   16.2470   32.6300 C.2   169  ASN169      0.2292
    158  O          1.2160   16.8120   32.4120 O.2   169  ASN169     -0.2864
    159  CB         1.8830   14.9120   30.6010 C.3   169  ASN169      0.1181
    160  CG         2.4530   14.0980   29.4720 C.2   169  ASN169      0.2629
    161  OD1        2.1000   12.9020   29.3390 O.2   169  ASN169     -0.2716
    162  ND2        3.3600   14.6800   28.7010 N.am  169  ASN169     -0.0877
    163  N          2.6880   19.8220   30.8680 N.3   172  VAL172     -0.1231
    164  CA         2.0190   19.8700   29.5660 C.3   172  VAL172      0.1678
    165  C          1.6660   18.4480   29.1470 C.2   172  VAL172      0.2434
    166  O          2.5610   17.6280   28.9870 O.2   172  VAL172     -0.2733
    167  CB         2.9360   20.4940   28.4770 C.3   172  VAL172      0.0265
    168  CG1        2.2000   20.5260   27.1410 C.3   172  VAL172      0.0020
    169  CG2        3.4190   21.8560   28.8300 C.3   172  VAL172      0.0020
    170  N          0.3630   18.1750   28.8740 N.am  173  PRO173     -0.2729
    171  CA        -0.7810   19.0980   28.9980 C.3   173  PRO173      0.1401
    172  C         -1.1000   19.5750   30.3950 C.2   173  PRO173      0.2269
    173  O         -1.8390   20.5500   30.5200 O.2   173  PRO173     -0.2865
    174  CB        -1.9540   18.2830   28.4360 C.3   173  PRO173      0.0296
    175  CG        -1.2660   17.3440   27.4530 C.3   173  PRO173      0.0237
    176  CD        -0.0280   16.9400   28.1590 C.3   173  PRO173      0.0939
    177  N          8.9750   18.5010   27.1760 N.3   197  LEU197     -0.1231
    178  CA         8.0490   17.7400   26.3830 C.3   197  LEU197      0.1693
    179  C          8.7890   16.9540   25.3250 C.2   197  LEU197      0.2591
    180  O          9.7550   17.4570   24.6940 O.2   197  LEU197     -0.2718
    181  CB         7.0660   18.6990   25.7460 C.3   197  LEU197      0.0284
    182  CG         5.9610   18.1220   24.8390 C.3   197  LEU197      0.0019
    183  CD1        5.0060   17.2680   25.6590 C.3   197  LEU197      0.0001
    184  CD2        5.2060   19.2610   24.1640 C.3   197  LEU197      0.0001
    185  N          8.3800   15.7020   25.1100 N.am  198  GLU198     -0.1979
    186  CA         9.0390   14.8630   24.1410 C.3   198  GLU198      0.1602
    187  C          9.2560   15.6060   22.8230 C.2   198  GLU198      0.2287
    188  O          8.3280   16.2020   22.2400 O.2   198  GLU198     -0.2864
    189  CB         8.2340   13.5750   23.9210 C.3   198  GLU198      0.0415
    190  CG         6.7360   13.7890   23.6710 C.3   198  GLU198      0.1163
    191  CD         5.8550   13.6220   24.8870 C.2   198  GLU198      0.3649
    192  OE1        6.2470   14.0560   25.9920 O.co2 198  GLU198     -0.2457
    193  OE2        4.7160   13.0880   24.7190 O.co2 198  GLU198     -0.2457
@<TRIPOS>BOND
     1     1     2    1
     2     4     3    2
     3     2     3    1
     4     2     5    1
     5     5     6    1
     6     6     7   ar
     7     6     8   ar
     8    54    53    1
     9    11     8   ar
    10    11    13   ar
    11     7     9   ar
    12     8    10   ar
    13    53    51   ar
    14    53    52   ar
    15    51    49   ar
    16    29    28    2
    17    13    14   ar
    18    52    50   ar
    19     9    10   ar
    20    10    12   ar
    21    15    16    1
    22    28    30   am
    23    28    27    1
    24    49    48   ar
    25    14    12   ar
    26    50    48   ar
    27    46    45    2
    28    48    47    1
    29    22    21    1
    30   188   187    2
    31    45    44    1
    32    16    19    1
    33    16    17    1
    34    20    19    1
    35    20    21    1
    36    27    24    1
    37    23    17   am
    38    23    24    1
    39   187   186    1
    40    17    18    2
    41    44    47    1
    42    44    43    1
    43    24    25    1
    44   190   189    1
    45   190   191    1
    46   189   186    1
    47    75    74    2
    48   186   185    1
    49   184   182    1
    50    26    25    2
    51    71    69   ar
    52    74    73    1
    53    68    69    1
    54    68    67    1
    55   180   179    2
    56   193   191   ar
    57    69    70   ar
    58   182   183    1
    59   182   181    1
    60   191   192   ar
    61   185   179   am
    62   179   178    1
    63   181   178    1
    64    78    76    1
    65    67    64    1
    66    73    72    1
    67    73    76    1
    68    66    65    2
    69   178   177    1
    70    72    65   am
    71    65    64    1
    72    76    77    1
    73    77    79    1
    74   121   122   ar
    75   121   119   ar
    76   124   122   ar
    77   124   126   ar
    78    64    63    1
    79   168   167    1
    80   122   120   ar
    81   175   176    1
    82   175   174    1
    83   119   118   ar
    84    80    81    1
    85   126   125   ar
    86    63    57   am
    87   176   170    1
    88    41    42    2
    89    41    40    1
    90    81    82    1
    91   174   171    1
    92   102   100   ar
    93   167   169    1
    94   167   164    1
    95   162   160   am
    96   120   118   ar
    97   120   123   ar
    98    40    39    1
    99   170   171    1
   100   170   165   am
   101   118   117    1
   102   166   165    2
   103   171   172    1
   104    83    82    2
   105    98    97    2
   106    82    84   am
   107   165   164    1
   108    57    58    2
   109    57    56    1
   110   125   123   ar
   111   154   152   ar
   112   161   160    2
   113   100   101   ar
   114   100    99    1
   115   160   159    1
   116   134   135    1
   117   134   133    1
   118   164   163    1
   119    84    85    1
   120   106   105    2
   121   105   104    1
   122   105   113   am
   123   104   107    1
   124   104   103    1
   125    39    33   am
   126   113   114    1
   127   114   117    1
   128   114   115    1
   129    97   103   am
   130    97    96    1
   131    56    55    1
   132    56    59    1
   133   172   173    2
   134   152   153   ar
   135   152   151    1
   136    99    96    1
   137    85    88    1
   138    85    86    1
   139   132   133    1
   140   132   131    1
   141   159   156    1
   142   107   108    1
   143    96    95    1
   144   127   115   am
   145   127   128    1
   146    33    34    2
   147    33    32    1
   148   115   116    2
   149   156   155    1
   150   156   157    1
   151    59    60    1
   152   151   148    1
   153   131   128    1
   154    86    89   am
   155    86    87    2
   156   108   110   ar
   157   108   109   ar
   158   155   149   am
   159   128   129    1
   160    89    90    1
   161   158   157    2
   162    32    31    1
   163    32    35    1
   164   110   112   ar
   165   149   148    1
   166   149   150    2
   167    60    61    1
   168   148   147    1
   169   109   111   ar
   170   129   130    2
   171   141   140    1
   172   141   142    1
   173    35    36    1
   174    90    93    1
   175    90    91    1
   176    94    93    1
   177   112   111   ar
   178    61    62    1
   179   140   137    1
   180   142   143    1
   181   136   137    1
   182    38    36    1
   183    91    92    2
   184    36    37    1
   185   137   138    1
   186   143   144    2
   187   145   144    1
   188   144   146    1
   189   138   139    2
