@<TRIPOS>MOLECULE
tmp/5p92A00.pdb
 162 159 0 0 0
SMALL
GASTEIGER

@<TRIPOS>ATOM
      1  N          6.0600   14.0320   14.8880 N.3    36  TRP36      -0.1241
      2  CA         5.9500   14.0590   16.3420 C.3    36  TRP36       0.1605
      3  C          4.9530   13.0230   16.8280 C.2    36  TRP36       0.2264
      4  O          3.9010   12.8000   16.2060 O.2    36  TRP36      -0.2867
      5  CB         5.4770   15.4500   16.8160 C.3    36  TRP36       0.0550
      6  CG         5.4330   15.6130   18.3120 C.ar   36  TRP36       0.0003
      7  CD1        6.4380   16.0770   19.0950 C.ar   36  TRP36       0.0946
      8  CD2        4.3400   15.3320   19.2040 C.ar   36  TRP36       0.0152
      9  NE1        6.0770   16.0580   20.4050 N.ar   36  TRP36      -0.2442
     10  CE2        4.7810   15.6370   20.5130 C.ar   36  TRP36       0.0810
     11  CE3        3.0250   14.8560   19.0370 C.ar   36  TRP36       0.0012
     12  CZ2        3.9660   15.4710   21.6340 C.ar   36  TRP36       0.0191
     13  CZ3        2.1930   14.7210   20.1710 C.ar   36  TRP36       0.0001
     14  CH2        2.6720   15.0320   21.4420 C.ar   36  TRP36       0.0015
     15  N          3.3490   11.2610   20.8430 N.3    38  MET38      -0.1245
     16  CA         3.3070   11.4520   22.2920 C.3    38  MET38       0.1570
     17  C          3.9890   10.3430   23.1080 C.2    38  MET38       0.2261
     18  O          3.4760    9.9000   24.1460 O.2    38  MET38      -0.2867
     19  CB         1.8440   11.6370   22.7530 C.3    38  MET38       0.0387
     20  CG         0.9190   10.4560   22.4690 C.3    38  MET38       0.0595
     21  SD        -0.7220   10.7120   23.1890 S.3    38  MET38      -0.1393
     22  CE        -1.7080    9.3600   22.5650 C.3    38  MET38       0.0692
     23  N         -0.3150    3.0730   33.0550 N.3    63  LEU63      -0.1231
     24  CA        -1.5650    3.5100   32.5070 C.3    63  LEU63       0.1693
     25  C         -1.2840    4.3030   31.2590 C.2    63  LEU63       0.2592
     26  O         -0.8250    5.4410   31.3280 O.2    63  LEU63      -0.2718
     27  CB        -2.3430    4.3750   33.5450 C.3    63  LEU63       0.0284
     28  CG        -2.4970    3.6630   34.8980 C.3    63  LEU63       0.0019
     29  CD1       -3.1420    4.6040   35.9340 C.3    63  LEU63       0.0001
     30  CD2       -3.2580    2.3360   34.7540 C.3    63  LEU63       0.0001
     31  N         -1.6160    3.7060   30.1110 N.am   64  GLY64      -0.1957
     32  CA        -1.3950    4.3800   28.8490 C.3    64  GLY64       0.1869
     33  C         -0.1330    3.7740   28.2640 C.2    64  GLY64       0.2309
     34  O          0.9610    3.9910   28.7560 O.2    64  GLY64      -0.2863
     35  N         -1.8420   -0.8520   30.6000 N.3    87  MET87      -0.1182
     36  CA        -3.2410   -0.7690   30.1730 C.3    87  MET87       0.1917
     37  C         -3.3890    0.2250   29.0120 C.2    87  MET87       0.2635
     38  O         -2.8500    1.3330   29.0470 O.2    87  MET87      -0.2714
     39  CB        -4.1090   -0.2870   31.3300 C.2    87  MET87       0.0083
     40  CG        -4.0800   -1.1650   32.5890 C.2    87  MET87       0.0282
     41  SD        -5.0950   -0.5950   33.9610 S.3    87  MET87      -0.1125
     42  CE        -4.9590   -1.9680   35.0720 C.3    87  MET87       0.0742
     43  N         -4.1160   -0.1790   27.9720 N.am   88  GLU88      -0.1963
     44  CA        -4.2550    0.6670   26.7870 C.3    88  GLU88       0.1733
     45  C         -5.6850    0.5710   26.2920 C.2    88  GLU88       0.2616
     46  O         -6.2240   -0.5440   26.0710 O.2    88  GLU88      -0.2715
     47  CB        -3.3040    0.2490   25.6460 C.3    88  GLU88       0.0429
     48  CG        -3.3880    1.0870   24.3820 C.3    88  GLU88       0.1163
     49  CD        -3.4360    2.5640   24.6470 C.2    88  GLU88       0.3649
     50  OE1       -2.4660    3.1270   25.2150 O.co2  88  GLU88      -0.2457
     51  OE2       -4.4400    3.2140   24.2750 O.co2  88  GLU88      -0.2457
     52  N         -6.3390    1.7280   26.2040 N.am   89  ILE89      -0.1977
     53  CA        -7.7310    1.7790   25.8350 C.3    89  ILE89       0.1596
     54  C         -7.9740    1.6360   24.3060 C.2    89  ILE89       0.2287
     55  O         -9.0470    1.1580   23.8830 O.2    89  ILE89      -0.2864
     56  CB        -8.3900    3.1020   26.3920 C.3    89  ILE89       0.0276
     57  CG1       -9.9090    2.9260   26.4170 C.3    89  ILE89       0.0022
     58  CG2       -7.8780    4.2940   25.6380 C.3    89  ILE89       0.0022
     59  CD1      -10.6030    3.9540   27.2840 C.3    89  ILE89       0.0001
     60  N         -8.1390   -2.1040   27.5200 N.3   115  GLY115     -0.1210
     61  CA        -9.3360   -1.6890   28.1920 C.3   115  GLY115      0.1956
     62  C         -9.1370   -0.3480   28.9030 C.2   115  GLY115      0.2612
     63  O         -8.0890    0.2650   28.7460 O.2   115  GLY115     -0.2717
     64  N        -10.1880    0.1240   29.5860 N.am  116  ALA116     -0.1965
     65  CA       -10.1370    1.3950   30.3370 C.3   116  ALA116      0.1728
     66  C         -9.6220    1.1400   31.7370 C.2   116  ALA116      0.2616
     67  O        -10.0560    0.2050   32.3860 O.2   116  ALA116     -0.2715
     68  CB       -11.5160    2.0300   30.4240 C.3   116  ALA116      0.0334
     69  N         -8.7730    2.0480   32.2300 N.am  117  SER117     -0.1950
     70  CA        -8.2030    1.9330   33.5680 C.3   117  SER117      0.1924
     71  C         -9.2630    1.8420   34.6820 C.2   117  SER117      0.2314
     72  O         -9.1420    1.0550   35.6140 O.2   117  SER117     -0.2863
     73  CB        -7.2190    3.1070   33.8090 C.3   117  SER117      0.2116
     74  OG        -7.8660    4.3340   33.6730 O.3   117  SER117     -0.2180
     75  N          0.3230    7.8170   32.4200 N.3   139  ASP139     -0.1225
     76  CA         0.5540    8.4500   31.1270 C.3   139  ASP139      0.1805
     77  C         -0.6560    8.3590   30.2420 C.2   139  ASP139      0.2598
     78  O         -0.5740    8.3010   29.0030 O.2   139  ASP139     -0.2718
     79  CB         1.7470    7.8060   30.4240 C.3   139  ASP139      0.1424
     80  CG         2.3040    8.6560   29.3120 C.2   139  ASP139      0.3668
     81  OD1        2.1070    9.8950   29.3290 O.co2 139  ASP139     -0.2456
     82  OD2        2.9860    8.0860   28.4000 O.co2 139  ASP139     -0.2456
     83  N         -1.8180    8.3980   30.8940 N.am  140  HIS140     -0.1961
     84  CA        -3.1080    8.2450   30.1580 C.3   140  HIS140      0.1787
     85  C         -3.8280    9.6180   30.1450 C.2   140  HIS140      0.2620
     86  O         -3.1680   10.6510   30.1600 O.2   140  HIS140     -0.2715
     87  CB        -3.9380    7.0810   30.6650 C.3   140  HIS140      0.0785
     88  CG        -4.3500    7.1740   32.0980 C.ar  140  HIS140      0.0821
     89  ND1       -3.5830    7.8290   33.0160 N.ar  140  HIS140     -0.2267
     90  CD2       -5.4050    6.6590   32.7760 C.ar  140  HIS140      0.1154
     91  CE1       -4.1470    7.7260   34.2130 C.ar  140  HIS140      0.1986
     92  NE2       -5.2540    7.0160   34.0990 N.ar  140  HIS140     -0.2212
     93  N         -5.1570    9.6400   30.0930 N.am  141  TRP141     -0.1960
     94  CA        -5.9000   10.8950   30.1220 C.3   141  TRP141      0.1771
     95  C         -5.4970   11.6850   31.3710 C.2   141  TRP141      0.2619
     96  O         -5.4950   11.1380   32.4680 O.2   141  TRP141     -0.2715
     97  CB        -7.3980   10.6140   30.2240 C.3   141  TRP141      0.0590
     98  CG        -8.0350   10.1400   28.9950 C.ar  141  TRP141      0.0006
     99  CD1       -7.7600   10.5390   27.7240 C.ar  141  TRP141      0.0946
    100  CD2       -9.0900    9.1550   28.8970 C.ar  141  TRP141      0.0152
    101  NE1       -8.5380    9.8230   26.8480 N.ar  141  TRP141     -0.2442
    102  CE2       -9.3700    8.9980   27.5330 C.ar  141  TRP141      0.0810
    103  CE3       -9.8180    8.3990   29.8300 C.ar  141  TRP141      0.0012
    104  CZ2      -10.3810    8.1260   27.0390 C.ar  141  TRP141      0.0191
    105  CZ3      -10.8280    7.5030   29.3500 C.ar  141  TRP141      0.0001
    106  CH2      -11.1120    7.4080   27.9430 C.ar  141  TRP141      0.0015
    107  N         -5.1260   12.9450   31.1880 N.am  142  LYS142     -0.1977
    108  CA        -4.5580   13.7510   32.2710 C.3   142  LYS142      0.1596
    109  C         -5.6090   13.9800   33.3510 C.2   142  LYS142      0.2287
    110  O         -5.2660   14.0310   34.5310 O.2   142  LYS142     -0.2864
    111  CB        -3.9480   15.0460   31.7210 C.3   142  LYS142      0.0298
    112  CG        -2.8870   14.7840   30.5980 C.3   142  LYS142      0.0038
    113  CD        -1.9250   13.6010   30.8420 C.3   142  LYS142      0.0206
    114  CE        -1.2600   13.1750   29.5720 C.3   142  LYS142      0.1093
    115  NZ        -0.5890   11.8150   29.7190 N.3   142  LYS142     -0.1314
    116  N          3.7350   11.3280   34.0750 N.3   167  ASP167     -0.1225
    117  CA         4.1470   12.1170   32.8910 C.3   167  ASP167      0.1805
    118  C          3.2750   13.3320   32.7300 C.2   167  ASP167      0.2597
    119  O          2.1220   13.3580   33.1820 O.2   167  ASP167     -0.2718
    120  CB         4.1120   11.2960   31.6180 C.3   167  ASP167      0.1424
    121  CG         4.8910   11.9620   30.4800 C.2   167  ASP167      0.3668
    122  OD1        5.8180   12.7790   30.7440 O.co2 167  ASP167     -0.2456
    123  OD2        4.5680   11.6450   29.3140 O.co2 167  ASP167     -0.2456
    124  N          3.8180   14.3530   32.0830 N.am  168  ASN168     -0.1974
    125  CA         2.9940   15.4880   31.5860 C.3   168  ASN168      0.1688
    126  C          2.3390   16.3410   32.6430 C.2   168  ASN168      0.2292
    127  O          1.2990   16.9190   32.4190 O.2   168  ASN168     -0.2864
    128  CB         1.8910   14.9840   30.6360 C.3   168  ASN168      0.1181
    129  CG         2.4350   14.1750   29.4940 C.2   168  ASN168      0.2629
    130  OD1        2.0720   12.9820   29.3160 O.2   168  ASN168     -0.2716
    131  ND2        3.3720   14.7830   28.7240 N.am  168  ASN168     -0.0877
    132  N          2.7550   19.8840   30.8400 N.3   171  VAL171     -0.1231
    133  CA         2.0620   19.9160   29.5370 C.3   171  VAL171      0.1678
    134  C          1.6930   18.5130   29.0980 C.2   171  VAL171      0.2434
    135  O          2.5840   17.6870   28.9840 O.2   171  VAL171     -0.2733
    136  CB         2.9410   20.5640   28.4240 C.3   171  VAL171      0.0265
    137  CG1        2.1730   20.5480   27.0620 C.3   171  VAL171      0.0020
    138  CG2        3.4000   21.9820   28.8120 C.3   171  VAL171      0.0020
    139  N          0.3950   18.2180   28.8780 N.am  172  PRO172     -0.2729
    140  CA        -0.7610   19.1570   28.9740 C.3   172  PRO172      0.1401
    141  C         -1.0570   19.6730   30.3690 C.2   172  PRO172      0.2269
    142  O         -1.7430   20.6700   30.5050 O.2   172  PRO172     -0.2865
    143  CB        -1.9000   18.3370   28.3960 C.3   172  PRO172      0.0296
    144  CG        -1.2160   17.4120   27.4350 C.3   172  PRO172      0.0237
    145  CD        -0.0090   16.9820   28.1710 C.3   172  PRO172      0.0939
    146  N          9.0100   18.5310   27.1560 N.3   196  LEU196     -0.1231
    147  CA         8.0360   17.7550   26.3830 C.3   196  LEU196      0.1693
    148  C          8.7990   16.9730   25.3160 C.2   196  LEU196      0.2591
    149  O          9.7150   17.5080   24.6900 O.2   196  LEU196     -0.2718
    150  CB         7.0820   18.7280   25.7240 C.3   196  LEU196      0.0284
    151  CG         5.9400   18.1450   24.8770 C.3   196  LEU196      0.0019
    152  CD1        5.0220   17.2960   25.7330 C.3   196  LEU196      0.0001
    153  CD2        5.2200   19.3110   24.1980 C.3   196  LEU196      0.0001
    154  N          8.3850   15.7240   25.0780 N.am  197  GLU197     -0.1979
    155  CA         9.0190   14.8830   24.0790 C.3   197  GLU197      0.1602
    156  C          9.2090   15.6240   22.7610 C.2   197  GLU197      0.2287
    157  O          8.2510   16.2330   22.2250 O.2   197  GLU197     -0.2864
    158  CB         8.2190   13.5880   23.9080 C.3   197  GLU197      0.0415
    159  CG         6.7060   13.7420   23.6330 C.3   197  GLU197      0.1163
    160  CD         5.8290   13.6200   24.8470 C.2   197  GLU197      0.3649
    161  OE1        6.2520   14.0500   25.9440 O.co2 197  GLU197     -0.2457
    162  OE2        4.6690   13.1540   24.7500 O.co2 197  GLU197     -0.2457
@<TRIPOS>BOND
     1     1     2    1
     2     4     3    2
     3     2     5    1
     4     2     3    1
     5     5     6    1
     6     6     7   ar
     7     6     8   ar
     8    11     8   ar
     9    11    13   ar
    10     7     9   ar
    11     8    10   ar
    12    13    14   ar
    13     9    10   ar
    14    10    12   ar
    15    15    16    1
    16    14    12   ar
    17   157   156    2
    18    16    19    1
    19    16    17    1
    20    20    19    1
    21    20    21    1
    22    22    21    1
    23   156   155    1
    24    17    18    2
    25   159   158    1
    26   159   160    1
    27    55    54    2
    28   158   155    1
    29   155   154    1
    30   153   151    1
    31    51    49   ar
    32    54    53    1
    33    48    49    1
    34    48    47    1
    35    49    50   ar
    36   149   148    2
    37   162   160   ar
    38   160   161   ar
    39   151   150    1
    40   151   152    1
    41   154   148   am
    42   148   147    1
    43    58    56    1
    44    47    44    1
    45   150   147    1
    46    53    52    1
    47    53    56    1
    48    46    45    2
    49    52    45   am
    50    45    44    1
    51   147   146    1
    52    56    57    1
    53    57    59    1
    54    44    43    1
    55   101   102   ar
    56   101    99   ar
    57   104   102   ar
    58   104   106   ar
    59   137   136    1
    60   144   145    1
    61   144   143    1
    62    60    61    1
    63   102   100   ar
    64    99    98   ar
    65   106   105   ar
    66    43    37   am
    67   145   139    1
    68    61    62    1
    69    33    34    2
    70    33    32    1
    71   143   140    1
    72    82    80   ar
    73   136   138    1
    74   136   133    1
    75   131   129   am
    76    63    62    2
    77    32    31    1
    78   139   140    1
    79   139   134   am
    80   100    98   ar
    81   100   103   ar
    82    62    64   am
    83   140   141    1
    84   135   134    2
    85    98    97    1
    86    78    77    2
    87    37    38    2
    88    37    36    1
    89   134   133    1
    90    80    81   ar
    91    80    79    1
    92   123   121   ar
    93   130   129    2
    94   105   103   ar
    95   129   128    1
    96   133   132    1
    97   114   115    1
    98   114   113    1
    99    64    65    1
   100    93    94    1
   101    93    85   am
   102    31    25   am
   103    94    97    1
   104    94    95    1
   105    85    84    1
   106    85    86    2
   107    84    87    1
   108    84    83    1
   109    36    35    1
   110    36    39    1
   111    77    83   am
   112    77    76    1
   113    65    68    1
   114    65    66    1
   115   141   142    2
   116    79    76    1
   117   121   122   ar
   118   121   120    1
   119   112   113    1
   120   112   111    1
   121   128   125    1
   122    87    88    1
   123    76    75    1
   124   107    95   am
   125   107   108    1
   126    25    26    2
   127    25    24    1
   128    39    40    2
   129    95    96    2
   130   125   124    1
   131   125   126    1
   132   120   117    1
   133   111   108    1
   134    66    69   am
   135    66    67    2
   136   124   118   am
   137    88    90   ar
   138    88    89   ar
   139    69    70    1
   140   108   109    1
   141   127   126    2
   142    24    23    1
   143    24    27    1
   144    40    41    1
   145   118   117    1
   146   118   119    2
   147    90    92   ar
   148   117   116    1
   149    89    91   ar
   150   109   110    2
   151    27    28    1
   152    70    73    1
   153    70    71    1
   154    74    73    1
   155    41    42    1
   156    92    91   ar
   157    71    72    2
   158    30    28    1
   159    28    29    1
