@<TRIPOS>MOLECULE
tmp/5p93A01.pdb
 185 181 0 0 0
SMALL
GASTEIGER

@<TRIPOS>ATOM
      1  N          6.2020   13.9010   14.8500 N.3    36  TRP36      -0.1241
      2  CA         6.0560   13.9310   16.3040 C.3    36  TRP36       0.1605
      3  C          5.0730   12.8970   16.7770 C.2    36  TRP36       0.2264
      4  O          4.0440   12.6670   16.1330 O.2    36  TRP36      -0.2867
      5  CB         5.5430   15.3190   16.7290 C.3    36  TRP36       0.0550
      6  CG         5.5050   15.5420   18.2160 C.ar   36  TRP36       0.0003
      7  CD1        6.5220   16.0080   18.9870 C.ar   36  TRP36       0.0946
      8  CD2        4.4260   15.2320   19.1230 C.ar   36  TRP36       0.0152
      9  NE1        6.1460   16.0480   20.2930 N.ar   36  TRP36      -0.2442
     10  CE2        4.8710   15.5750   20.4140 C.ar   36  TRP36       0.0810
     11  CE3        3.1240   14.7440   18.9640 C.ar   36  TRP36       0.0012
     12  CZ2        4.0760   15.4420   21.5340 C.ar   36  TRP36       0.0191
     13  CZ3        2.3290   14.6020   20.0800 C.ar   36  TRP36       0.0001
     14  CH2        2.8030   14.9540   21.3490 C.ar   36  TRP36       0.0015
     15  N          3.4930   11.1720   20.8160 N.3    38  MET38      -0.1245
     16  CA         3.4480   11.3550   22.2700 C.3    38  MET38       0.1570
     17  C          4.1350   10.2440   23.0730 C.2    38  MET38       0.2261
     18  O          3.6170    9.7880   24.1070 O.2    38  MET38      -0.2867
     19  CB         2.0010   11.5560   22.7330 C.3    38  MET38       0.0387
     20  CG         1.0790   10.3960   22.4800 C.3    38  MET38       0.0595
     21  SD        -0.6230   10.8240   22.8000 S.3    38  MET38      -0.1393
     22  CE        -1.3660    9.2260   22.5650 C.3    38  MET38       0.0692
     23  N         -0.0710    3.0150   33.1140 N.3    63  LEU63      -0.1231
     24  CA        -1.3510    3.4580   32.5580 C.3    63  LEU63       0.1693
     25  C         -1.0280    4.3060   31.3260 C.2    63  LEU63       0.2592
     26  O         -0.4460    5.3800   31.4360 O.2    63  LEU63      -0.2718
     27  CB        -2.1410    4.2750   33.5980 C.3    63  LEU63       0.0284
     28  CG        -2.3870    3.5260   34.9040 C.3    63  LEU63       0.0019
     29  CD1       -3.1900    4.4090   35.8880 C.3    63  LEU63       0.0001
     30  CD2       -3.1300    2.2150   34.6630 C.3    63  LEU63       0.0001
     31  N         -1.3660    3.7870   30.1410 N.am   64  GLY64      -0.1957
     32  CA        -1.1960    4.5130   28.8650 C.3    64  GLY64       0.1869
     33  C          0.0050    4.1630   27.9820 C.2    64  GLY64       0.2309
     34  O          0.8670    5.0070   27.7080 O.2    64  GLY64      -0.2863
     35  N          0.5370    3.5990   24.6940 N.3    66  TYR66      -0.1241
     36  CA         0.6630    4.2300   23.3840 C.3    66  TYR66       0.1605
     37  C          1.2750    3.2370   22.3740 C.2    66  TYR66       0.2264
     38  O          0.5690    2.3160   21.9680 O.2    66  TYR66      -0.2867
     39  CB         1.3230    5.6030   23.4460 C.3    66  TYR66       0.0534
     40  CG         1.3100    6.3340   22.1130 C.ar   66  TYR66      -0.0201
     41  CD1        0.1570    6.3720   21.3170 C.ar   66  TYR66      -0.0009
     42  CD2        2.4400    6.9790   21.6390 C.ar   66  TYR66      -0.0009
     43  CE1        0.1340    7.0080   20.1140 C.ar   66  TYR66       0.0417
     44  CE2        2.4240    7.6330   20.4200 C.ar   66  TYR66       0.0417
     45  CZ         1.2600    7.6420   19.6590 C.ar   66  TYR66       0.1957
     46  OH         1.2810    8.2940   18.4520 O.3    66  TYR66      -0.2866
     47  N         -1.5140   -0.7630   30.2950 N.3    87  MET87      -0.1182
     48  CA        -2.9050   -0.5840   29.8740 C.3    87  MET87       0.1917
     49  C         -2.9350    0.4560   28.7180 C.2    87  MET87       0.2635
     50  O         -2.3840    1.5610   28.8560 O.2    87  MET87      -0.2714
     51  CB        -3.7560   -0.0750   31.0950 C.2    87  MET87       0.0083
     52  CG        -4.1490   -1.1370   32.2270 C.2    87  MET87       0.0282
     53  SD        -4.9400   -0.6830   33.8280 S.3    87  MET87      -0.1125
     54  CE        -4.8480   -2.1850   34.7740 C.3    87  MET87       0.0742
     55  N         -3.6120    0.1440   27.6230 N.am   88  GLU88      -0.1963
     56  CA        -3.7690    1.0540   26.4990 C.3    88  GLU88       0.1733
     57  C         -5.2170    1.0190   26.0770 C.2    88  GLU88       0.2616
     58  O         -5.7750   -0.0510   25.8090 O.2    88  GLU88      -0.2715
     59  CB        -2.8470    0.6980   25.3380 C.3    88  GLU88       0.0429
     60  CG        -3.1050    1.4540   24.0280 C.3    88  GLU88       0.1163
     61  CD        -3.0690    2.9650   24.1820 C.2    88  GLU88       0.3649
     62  OE1       -2.1550    3.4850   24.8500 O.co2  88  GLU88      -0.2457
     63  OE2       -3.9750    3.6240   23.6090 O.co2  88  GLU88      -0.2457
     64  N         -5.8310    2.1960   25.9540 N.am   89  ILE89      -0.1977
     65  CA        -7.2550    2.2890   25.6250 C.3    89  ILE89       0.1596
     66  C         -7.5250    2.0340   24.1380 C.2    89  ILE89       0.2287
     67  O         -8.5760    1.5110   23.7750 O.2    89  ILE89      -0.2864
     68  CB        -7.8570    3.6540   26.1140 C.3    89  ILE89       0.0276
     69  CG1       -9.4030    3.5890   26.1260 C.3    89  ILE89       0.0022
     70  CG2       -7.3020    4.8090   25.3030 C.3    89  ILE89       0.0022
     71  CD1      -10.0640    4.3930   27.2010 C.3    89  ILE89       0.0001
     72  N         -7.8850   -1.6920   27.3200 N.3   115  GLY115     -0.1210
     73  CA        -9.0990   -1.2570   27.9810 C.3   115  GLY115      0.1956
     74  C         -8.8710    0.0350   28.7460 C.2   115  GLY115      0.2612
     75  O         -7.7710    0.6110   28.7120 O.2   115  GLY115     -0.2717
     76  N         -9.9410    0.4850   29.4070 N.am  116  ALA116     -0.1965
     77  CA        -9.9390    1.7110   30.1720 C.3   116  ALA116      0.1728
     78  C         -9.4820    1.4290   31.5970 C.2   116  ALA116      0.2616
     79  O         -9.8820    0.4420   32.2250 O.2   116  ALA116     -0.2715
     80  CB       -11.3460    2.3110   30.1860 C.3   116  ALA116      0.0334
     81  N         -8.6620    2.3220   32.1310 N.am  117  SER117     -0.1950
     82  CA        -8.1480    2.1760   33.4870 C.3   117  SER117      0.1924
     83  C         -9.2220    2.0050   34.5520 C.2   117  SER117      0.2314
     84  O         -9.0580    1.2000   35.4770 O.2   117  SER117     -0.2863
     85  CB        -7.2490    3.3750   33.8050 C.3   117  SER117      0.2116
     86  OG        -7.9340    4.6060   33.6280 O.3   117  SER117     -0.2180
     87  N          0.5790    7.7630   32.5430 N.3   139  ASP139     -0.1225
     88  CA         0.8160    8.3790   31.2520 C.3   139  ASP139      0.1805
     89  C         -0.3820    8.2550   30.3580 C.2   139  ASP139      0.2598
     90  O         -0.2650    8.2250   29.1480 O.2   139  ASP139     -0.2718
     91  CB         2.0790    7.7650   30.5810 C.3   139  ASP139      0.1424
     92  CG         2.6190    8.6030   29.4590 C.2   139  ASP139      0.3668
     93  OD1        2.3610    9.8240   29.4210 O.co2 139  ASP139     -0.2456
     94  OD2        3.3860    8.0380   28.6460 O.co2 139  ASP139     -0.2456
     95  N         -1.5620    8.2450   30.9600 N.am  140  HIS140     -0.1961
     96  CA        -2.8050    8.0150   30.2450 C.3   140  HIS140      0.1787
     97  C         -3.5750    9.3380   30.1240 C.2   140  HIS140      0.2620
     98  O         -2.9540   10.3920   29.9980 O.2   140  HIS140     -0.2715
     99  CB        -3.6040    6.8630   30.8250 C.3   140  HIS140      0.0785
    100  CG        -4.0400    7.0350   32.2320 C.ar  140  HIS140      0.0821
    101  ND1       -3.2570    7.6600   33.1790 N.ar  140  HIS140     -0.2267
    102  CD2       -5.1720    6.6210   32.8580 C.ar  140  HIS140      0.1154
    103  CE1       -3.9110    7.6460   34.3270 C.ar  140  HIS140      0.1986
    104  NE2       -5.0670    7.0140   34.1660 N.ar  140  HIS140     -0.2212
    105  N         -4.8920    9.3160   30.0760 N.am  141  TRP141     -0.1960
    106  CA        -5.6270   10.5540   29.9760 C.3   141  TRP141      0.1771
    107  C         -5.3520   11.4250   31.1890 C.2   141  TRP141      0.2619
    108  O         -5.4160   10.9550   32.3170 O.2   141  TRP141     -0.2715
    109  CB        -7.0920   10.2580   29.8710 C.3   141  TRP141      0.0590
    110  CG        -7.4400    9.6280   28.5860 C.ar  141  TRP141      0.0006
    111  CD1       -6.6240    9.4170   27.5170 C.ar  141  TRP141      0.0946
    112  CD2       -8.6970    9.0950   28.2410 C.ar  141  TRP141      0.0152
    113  NE1       -7.2950    8.7900   26.5090 N.ar  141  TRP141     -0.2442
    114  CE2       -8.5840    8.5860   26.9250 C.ar  141  TRP141      0.0810
    115  CE3       -9.9200    9.0110   28.9040 C.ar  141  TRP141      0.0012
    116  CZ2       -9.6430    7.9960   26.2700 C.ar  141  TRP141      0.0191
    117  CZ3      -10.9780    8.4270   28.2480 C.ar  141  TRP141      0.0001
    118  CH2      -10.8350    7.9340   26.9390 C.ar  141  TRP141      0.0015
    119  N         -5.0250   12.6860   30.9580 N.am  142  LYS142     -0.1977
    120  CA        -4.4990   13.5070   32.0320 C.3   142  LYS142      0.1596
    121  C         -5.5350   13.8020   33.1110 C.2   142  LYS142      0.2287
    122  O         -5.2060   13.8920   34.2920 O.2   142  LYS142     -0.2864
    123  CB        -3.8900   14.7840   31.4530 C.3   142  LYS142      0.0298
    124  CG        -2.8340   14.5340   30.3620 C.3   142  LYS142      0.0038
    125  CD        -1.8500   13.4010   30.6370 C.3   142  LYS142      0.0206
    126  CE        -1.1180   12.9620   29.4000 C.3   142  LYS142      0.1093
    127  NZ        -0.4700   11.6200   29.6060 N.3   142  LYS142     -0.1314
    128  N         -7.4940   11.6490   34.2140 N.3   144  ARG144     -0.1245
    129  CA        -7.6710   10.4200   34.9810 C.3   144  ARG144      0.1563
    130  C         -6.5790   10.1790   36.0060 C.2   144  ARG144      0.2260
    131  O         -6.6760    9.2290   36.7850 O.2   144  ARG144     -0.2867
    132  CB        -7.7480    9.2240   34.0560 C.3   144  ARG144      0.0307
    133  CG        -8.9800    9.1430   33.2040 C.3   144  ARG144      0.0489
    134  CD       -10.2280    9.0040   34.0050 C.3   144  ARG144      0.2205
    135  NE       -10.1760    7.9420   35.0130 N.pl3 144  ARG144     -0.0865
    136  CZ       -11.1820    7.6630   35.8290 C.cat 144  ARG144      0.5346
    137  NH1      -12.2920    8.3860   35.7470 N.pl3 144  ARG144      0.1354
    138  NH2      -11.0620    6.7160   36.7540 N.pl3 144  ARG144      0.1354
    139  N          3.9110   11.3080   34.0560 N.3   167  ASP167     -0.1225
    140  CA         4.3200   12.1060   32.9070 C.3   167  ASP167      0.1805
    141  C          3.4000   13.2940   32.7030 C.2   167  ASP167      0.2597
    142  O          2.2360   13.2520   33.0980 O.2   167  ASP167     -0.2718
    143  CB         4.3150   11.2580   31.6220 C.3   167  ASP167      0.1424
    144  CG         5.0580   11.9230   30.4710 C.2   167  ASP167      0.3668
    145  OD1        5.9600   12.7280   30.7640 O.co2 167  ASP167     -0.2456
    146  OD2        4.7400   11.6240   29.2710 O.co2 167  ASP167     -0.2456
    147  N          3.9010   14.3350   32.0410 N.am  168  ASN168     -0.1974
    148  CA         3.0350   15.3760   31.5040 C.3   168  ASN168      0.1688
    149  C          2.3430   16.2180   32.5640 C.2   168  ASN168      0.2292
    150  O          1.2760   16.7720   32.3280 O.2   168  ASN168     -0.2864
    151  CB         1.9680   14.8080   30.5540 C.3   168  ASN168      0.1181
    152  CG         2.5350   14.0060   29.4450 C.2   168  ASN168      0.2629
    153  OD1        2.2330   12.8190   29.3240 O.2   168  ASN168     -0.2716
    154  ND2        3.3850   14.6210   28.6210 N.am  168  ASN168     -0.0877
    155  N          2.6760   19.7800   30.7490 N.3   171  VAL171     -0.1231
    156  CA         2.0290   19.8110   29.4250 C.3   171  VAL171      0.1678
    157  C          1.7040   18.3740   29.0070 C.2   171  VAL171      0.2434
    158  O          2.6030   17.5570   28.9020 O.2   171  VAL171     -0.2733
    159  CB         2.9460   20.4460   28.3390 C.3   171  VAL171      0.0265
    160  CG1        2.2400   20.4190   26.9940 C.3   171  VAL171      0.0020
    161  CG2        3.4180   21.8390   28.7010 C.3   171  VAL171      0.0020
    162  N          0.4230   18.0630   28.7430 N.am  172  PRO172     -0.2729
    163  CA        -0.7380   18.9580   28.8400 C.3   172  PRO172      0.1401
    164  C         -1.0670   19.4630   30.2390 C.2   172  PRO172      0.2269
    165  O         -1.8210   20.4260   30.3650 O.2   172  PRO172     -0.2865
    166  CB        -1.8760   18.1020   28.2820 C.3   172  PRO172      0.0296
    167  CG        -1.2020   17.1710   27.3310 C.3   172  PRO172      0.0237
    168  CD         0.0610   16.8230   28.0370 C.3   172  PRO172      0.0939
    169  N          8.9070   18.5340   27.1240 N.3   196  LEU196     -0.1231
    170  CA         7.9820   17.7610   26.3300 C.3   196  LEU196      0.1693
    171  C          8.7540   16.9890   25.2730 C.2   196  LEU196      0.2591
    172  O          9.6680   17.5230   24.6560 O.2   196  LEU196     -0.2718
    173  CB         6.9690   18.7150   25.6880 C.3   196  LEU196      0.0284
    174  CG         5.8620   18.0770   24.8430 C.3   196  LEU196      0.0019
    175  CD1        4.9380   17.2160   25.6670 C.3   196  LEU196      0.0001
    176  CD2        5.0920   19.1670   24.1110 C.3   196  LEU196      0.0001
    177  N          8.3600   15.7440   25.0550 N.am  197  GLU197     -0.1979
    178  CA         9.0350   14.9060   24.0940 C.3   197  GLU197      0.1602
    179  C          9.2240   15.6230   22.7660 C.2   197  GLU197      0.2287
    180  O          8.2850   16.1850   22.1860 O.2   197  GLU197     -0.2864
    181  CB         8.2730   13.5940   23.9120 C.3   197  GLU197      0.0415
    182  CG         6.7840   13.7300   23.6220 C.3   197  GLU197      0.1163
    183  CD         5.8980   13.5800   24.8640 C.2   197  GLU197      0.3649
    184  OE1        6.2700   14.0350   25.9540 O.co2 197  GLU197     -0.2457
    185  OE2        4.7930   13.0220   24.6910 O.co2 197  GLU197     -0.2457
@<TRIPOS>BOND
     1     1     2    1
     2     4     3    2
     3     2     5    1
     4     2     3    1
     5     5     6    1
     6     6     7   ar
     7     6     8   ar
     8    46    45    1
     9    11     8   ar
    10    11    13   ar
    11     7     9   ar
    12     8    10   ar
    13    45    43   ar
    14    45    44   ar
    15    13    14   ar
    16    43    41   ar
    17     9    10   ar
    18    10    12   ar
    19    44    42   ar
    20    15    16    1
    21    41    40   ar
    22    14    12   ar
    23    42    40   ar
    24    38    37    2
    25    40    39    1
    26   180   179    2
    27    16    19    1
    28    16    17    1
    29    37    36    1
    30    20    19    1
    31    20    21    1
    32    22    21    1
    33   179   178    1
    34    17    18    2
    35    36    39    1
    36    36    35    1
    37    63    61   ar
    38   182   181    1
    39   182   183    1
    40    67    66    2
    41   181   178    1
    42    60    61    1
    43    60    59    1
    44   178   177    1
    45   176   174    1
    46    66    65    1
    47    61    62   ar
    48   172   171    2
    49   185   183   ar
    50   174   175    1
    51   174   173    1
    52   183   184   ar
    53   177   171   am
    54   171   170    1
    55    70    68    1
    56    59    56    1
    57    65    64    1
    58    65    68    1
    59   173   170    1
    60    58    57    2
    61    64    57   am
    62    57    56    1
    63    68    69    1
    64    69    71    1
    65   116   114   ar
    66   116   118   ar
    67   170   169    1
    68    56    55    1
    69   113   114   ar
    70   113   111   ar
    71   114   112   ar
    72   118   117   ar
    73   160   159    1
    74    72    73    1
    75   167   168    1
    76   167   166    1
    77   111   110   ar
    78    55    49   am
    79    34    33    2
    80    73    74    1
    81    33    32    1
    82   168   162    1
    83   112   110   ar
    84   112   115   ar
    85   117   115   ar
    86   166   163    1
    87   159   161    1
    88   159   156    1
    89   110   109    1
    90   154   152   am
    91    94    92   ar
    92    75    74    2
    93    49    50    2
    94    49    48    1
    95   162   163    1
    96   162   157   am
    97    74    76   am
    98   163   164    1
    99    32    31    1
   100   158   157    2
   101   157   156    1
   102    90    89    2
   103   146   144   ar
   104   153   152    2
   105   126   127    1
   106   126   125    1
   107    76    77    1
   108    93    92   ar
   109   156   155    1
   110   152   151    1
   111    92    91    1
   112   109   106    1
   113    48    47    1
   114    48    51    1
   115   106   105    1
   116   106   107    1
   117    98    97    2
   118   105    97   am
   119    97    96    1
   120    31    25   am
   121    77    80    1
   122    77    78    1
   123   164   165    2
   124    96    99    1
   125    96    95    1
   126    89    95   am
   127    89    88    1
   128   124   125    1
   129   124   123    1
   130   144   145   ar
   131   144   143    1
   132   151   148    1
   133    91    88    1
   134    99   100    1
   135   119   107   am
   136   119   120    1
   137    51    52    2
   138   107   108    2
   139    88    87    1
   140    25    26    2
   141    25    24    1
   142   123   120    1
   143   148   147    1
   144   148   149    1
   145    78    81   am
   146    78    79    2
   147   143   140    1
   148   120   121    1
   149   147   141   am
   150    81    82    1
   151    52    53    1
   152   100   102   ar
   153   100   101   ar
   154   150   149    2
   155    24    23    1
   156    24    27    1
   157   141   140    1
   158   141   142    2
   159   102   104   ar
   160   140   139    1
   161   121   122    2
   162   101   103   ar
   163   133   134    1
   164   133   132    1
   165    82    85    1
   166    82    83    1
   167    27    28    1
   168    86    85    1
   169    53    54    1
   170   134   135    1
   171   132   129    1
   172   104   103   ar
   173   128   129    1
   174    83    84    2
   175    30    28    1
   176    28    29    1
   177   129   130    1
   178   135   136    2
   179   137   136    1
   180   136   138    1
   181   130   131    2
