@<TRIPOS>MOLECULE
tmp/5p94A01.pdb
 202 198 0 0 0
SMALL
GASTEIGER

@<TRIPOS>ATOM
      1  N          6.0160   13.8890   14.7580 N.3    36  TRP36      -0.1241
      2  CA         5.9280   13.9260   16.2070 C.3    36  TRP36       0.1605
      3  C          4.9220   12.9140   16.6780 C.2    36  TRP36       0.2264
      4  O          3.9040   12.6850   16.0570 O.2    36  TRP36      -0.2867
      5  CB         5.4390   15.3110   16.6720 C.3    36  TRP36       0.0550
      6  CG         5.4130   15.5210   18.1510 C.ar   36  TRP36       0.0003
      7  CD1        6.4360   15.9930   18.9140 C.ar   36  TRP36       0.0946
      8  CD2        4.3340   15.2190   19.0620 C.ar   36  TRP36       0.0152
      9  NE1        6.0600   16.0300   20.2280 N.ar   36  TRP36      -0.2442
     10  CE2        4.7770   15.5770   20.3450 C.ar   36  TRP36       0.0810
     11  CE3        3.0220   14.7500   18.9140 C.ar   36  TRP36       0.0012
     12  CZ2        3.9800   15.4470   21.4740 C.ar   36  TRP36       0.0191
     13  CZ3        2.2310   14.6150   20.0520 C.ar   36  TRP36       0.0001
     14  CH2        2.7230   14.9600   21.3180 C.ar   36  TRP36       0.0015
     15  N          3.3200   11.2310   20.7400 N.3    38  MET38      -0.1245
     16  CA         3.2910   11.4220   22.1980 C.3    38  MET38       0.1570
     17  C          4.0080   10.3130   22.9910 C.2    38  MET38       0.2261
     18  O          3.5250    9.8940   24.0470 O.2    38  MET38      -0.2867
     19  CB         1.8740   11.5750   22.6910 C.3    38  MET38       0.0387
     20  CG         0.9570   10.3830   22.4440 C.3    38  MET38       0.0595
     21  SD        -0.5870   10.5850   23.3380 S.3    38  MET38      -0.1393
     22  CE        -1.4040    9.0780   22.9090 C.3    38  MET38       0.0692
     23  N         -0.2830    3.0870   32.9420 N.3    63  LEU63      -0.1231
     24  CA        -1.5590    3.5270   32.3890 C.3    63  LEU63       0.1693
     25  C         -1.2940    4.3650   31.1580 C.2    63  LEU63       0.2592
     26  O         -0.7260    5.4500   31.2460 O.2    63  LEU63      -0.2718
     27  CB        -2.3320    4.3210   33.4360 C.3    63  LEU63       0.0284
     28  CG        -2.5490    3.6170   34.7730 C.3    63  LEU63       0.0019
     29  CD1       -3.4050    4.4780   35.7310 C.3    63  LEU63       0.0001
     30  CD2       -3.1640    2.2470   34.5760 C.3    63  LEU63       0.0001
     31  N         -1.6720    3.8310   29.9900 N.am   64  GLY64      -0.1957
     32  CA        -1.5050    4.5480   28.7050 C.3    64  GLY64       0.1869
     33  C         -0.3010    4.1570   27.8440 C.2    64  GLY64       0.2309
     34  O          0.5660    4.9930   27.5690 O.2    64  GLY64      -0.2863
     35  N          0.2130    3.4990   24.5920 N.3    66  TYR66      -0.1241
     36  CA         0.3460    4.1160   23.2660 C.3    66  TYR66       0.1605
     37  C          0.9890    3.1490   22.2740 C.2    66  TYR66       0.2264
     38  O          0.3230    2.2000   21.8740 O.2    66  TYR66      -0.2867
     39  CB         1.0060    5.5100   23.3370 C.3    66  TYR66       0.0534
     40  CG         1.0060    6.2480   22.0240 C.ar   66  TYR66      -0.0201
     41  CD1       -0.1180    6.2700   21.2020 C.ar   66  TYR66      -0.0009
     42  CD2        2.1360    6.9070   21.5860 C.ar   66  TYR66      -0.0009
     43  CE1       -0.0940    6.9440   19.9680 C.ar   66  TYR66       0.0417
     44  CE2        2.1940    7.5980   20.3820 C.ar   66  TYR66       0.0417
     45  CZ         1.0730    7.5870   19.5610 C.ar   66  TYR66       0.1957
     46  OH         1.1100    8.2520   18.3630 O.3    66  TYR66      -0.2866
     47  N         -1.7470   -0.8090   30.3750 N.3    87  MET87      -0.1230
     48  CA        -3.1330   -0.7100   29.9460 C.3    87  MET87       0.1702
     49  C         -3.2890    0.3060   28.8350 C.2    87  MET87       0.2592
     50  O         -2.7740    1.4300   28.9210 O.2    87  MET87      -0.2718
     51  CB        -3.9970   -0.2870   31.1450 C.3    87  MET87       0.0401
     52  CG        -3.9450   -1.3200   32.2760 C.3    87  MET87       0.0596
     53  SD        -4.9520   -0.8210   33.6890 S.3    87  MET87      -0.1393
     54  CE        -4.7970   -2.2850   34.7530 C.3    87  MET87       0.0692
     55  N         -4.0420   -0.0660   27.8120 N.am   88  GLU88      -0.1966
     56  CA        -4.2540    0.8090   26.6610 C.3    88  GLU88       0.1733
     57  C         -5.6760    0.6510   26.1560 C.2    88  GLU88       0.2616
     58  O         -6.0800   -0.4490   25.8120 O.2    88  GLU88      -0.2715
     59  CB        -3.2130    0.5190   25.5600 C.3    88  GLU88       0.0429
     60  CG        -3.4050    1.3440   24.2730 C.3    88  GLU88       0.1163
     61  CD        -3.4660    2.7950   24.5330 C.2    88  GLU88       0.3649
     62  OE1       -2.5260    3.3190   25.2130 O.co2  88  GLU88      -0.2457
     63  OE2       -4.4490    3.4530   24.0780 O.co2  88  GLU88      -0.2457
     64  N         -6.4300    1.7330   26.1230 N.am   89  ILE89      -0.1963
     65  CA        -7.8210    1.7080   25.7400 C.3    89  ILE89       0.1727
     66  C         -7.9960    1.6060   24.2360 C.2    89  ILE89       0.2616
     67  O         -9.0280    1.1010   23.7720 O.2    89  ILE89      -0.2715
     68  CB        -8.5330    3.0030   26.2890 C.3    89  ILE89       0.0290
     69  CG1      -10.0460    2.8030   26.4780 C.3    89  ILE89       0.0022
     70  CG2       -8.1960    4.2180   25.4820 C.3    89  ILE89       0.0023
     71  CD1      -10.7340    3.9440   27.1970 C.3    89  ILE89       0.0001
     72  N         -7.0600    2.0920   23.4510 N.am   90  ASN90      -0.1972
     73  CA        -7.2280    2.1100   22.0050 C.3    90  ASN90       0.1688
     74  C         -6.7460    0.7750   21.4520 C.2    90  ASN90       0.2292
     75  O         -5.5620    0.4180   21.6240 O.2    90  ASN90      -0.2864
     76  CB        -6.4180    3.2690   21.4220 C.3    90  ASN90       0.1181
     77  CG        -6.5090    3.3570   19.9010 C.2    90  ASN90       0.2629
     78  OD1       -6.0960    2.4480   19.1960 O.2    90  ASN90      -0.2716
     79  ND2       -7.0400    4.4360   19.3930 N.am   90  ASN90      -0.0877
     80  N         -7.9520   -2.1910   27.3230 N.3   115  GLY115     -0.1210
     81  CA        -9.1440   -1.7870   28.0670 C.3   115  GLY115      0.1956
     82  C         -8.8490   -0.4770   28.8110 C.2   115  GLY115      0.2612
     83  O         -7.7490    0.0380   28.7710 O.2   115  GLY115     -0.2717
     84  N         -9.8640    0.0110   29.5140 N.am  116  ALA116     -0.1965
     85  CA        -9.7960    1.2520   30.2980 C.3   116  ALA116      0.1728
     86  C         -9.3100    0.9700   31.7020 C.2   116  ALA116      0.2617
     87  O         -9.7930    0.0630   32.3720 O.2   116  ALA116     -0.2715
     88  CB       -11.1680    1.9030   30.3720 C.3   116  ALA116      0.0334
     89  N         -8.3990    1.8180   32.1570 N.am  117  SER117     -0.1936
     90  CA        -7.8790    1.7150   33.5260 C.3   117  SER117      0.2055
     91  C         -8.9680    1.5200   34.5940 C.2   117  SER117      0.2642
     92  O         -8.8350    0.7020   35.4820 O.2   117  SER117     -0.2714
     93  CB        -7.1200    3.0030   33.8360 C.3   117  SER117      0.2130
     94  OG        -7.8980    4.1490   33.5520 O.3   117  SER117     -0.2179
     95  N        -10.0290    2.3130   34.5350 N.am  118  GLN118     -0.1976
     96  CA       -11.0390    2.2140   35.5910 C.3   118  GLN118      0.1601
     97  C        -11.7950    0.9000   35.6000 C.2   118  GLN118      0.2287
     98  O        -12.3210    0.5210   36.6400 O.2   118  GLN118     -0.2864
     99  CB       -11.9990    3.4010   35.5840 C.3   118  GLN118      0.0394
    100  CG       -12.9320    3.4920   34.3960 C.3   118  GLN118      0.0908
    101  CD       -12.3540    4.2550   33.2390 C.2   118  GLN118      0.2608
    102  OE1      -11.1480    4.4150   33.1220 O.2   118  GLN118     -0.2717
    103  NE2      -13.2310    4.7410   32.3650 N.am  118  GLN118     -0.0878
    104  N          0.3250    7.8990   32.3050 N.3   139  ASP139     -0.1225
    105  CA         0.5770    8.5550   31.0180 C.3   139  ASP139      0.1805
    106  C         -0.6420    8.4460   30.1020 C.2   139  ASP139      0.2598
    107  O         -0.4960    8.4770   28.8790 O.2   139  ASP139     -0.2718
    108  CB         1.8190    7.9520   30.3440 C.3   139  ASP139      0.1424
    109  CG         2.3190    8.7600   29.1810 C.2   139  ASP139      0.3668
    110  OD1        2.1410   10.0120   29.1950 O.co2 139  ASP139     -0.2456
    111  OD2        2.9750    8.1880   28.2860 O.co2 139  ASP139     -0.2456
    112  N         -1.8380    8.3370   30.6830 N.am  140  HIS140     -0.1961
    113  CA        -3.0690    8.2220   29.9200 C.3   140  HIS140      0.1787
    114  C         -3.7680    9.5730   29.9040 C.2   140  HIS140      0.2620
    115  O         -3.1030   10.5910   30.0100 O.2   140  HIS140     -0.2715
    116  CB        -3.9120    7.0320   30.4240 C.3   140  HIS140      0.0785
    117  CG        -4.3350    7.1200   31.8450 C.ar  140  HIS140      0.0821
    118  ND1       -3.5730    7.7610   32.7990 N.ar  140  HIS140     -0.2267
    119  CD2       -5.3970    6.5600   32.4760 C.ar  140  HIS140      0.1154
    120  CE1       -4.2010    7.6100   33.9670 C.ar  140  HIS140      0.1986
    121  NE2       -5.2850    6.8680   33.8050 N.ar  140  HIS140     -0.2212
    122  N         -5.0840    9.6120   29.7470 N.am  141  TRP141     -0.1960
    123  CA        -5.7640   10.9010   29.7390 C.3   141  TRP141      0.1771
    124  C         -5.4710   11.6630   31.0200 C.2   141  TRP141      0.2619
    125  O         -5.5580   11.1020   32.1030 O.2   141  TRP141     -0.2715
    126  CB        -7.2880   10.6940   29.5630 C.3   141  TRP141      0.0590
    127  CG        -7.7280   10.2370   28.1830 C.ar  141  TRP141      0.0006
    128  CD1       -7.1330   10.5420   26.9850 C.ar  141  TRP141      0.0946
    129  CD2       -8.8150    9.3750   27.8820 C.ar  141  TRP141      0.0152
    130  NE1       -7.8000    9.8980   25.9630 N.ar  141  TRP141     -0.2442
    131  CE2       -8.8400    9.1830   26.4930 C.ar  141  TRP141      0.0810
    132  CE3       -9.7690    8.7510   28.6630 C.ar  141  TRP141      0.0012
    133  CZ2       -9.8070    8.4000   25.8680 C.ar  141  TRP141      0.0191
    134  CZ3      -10.7120    7.9850   28.0620 C.ar  141  TRP141      0.0001
    135  CH2      -10.7160    7.8070   26.6860 C.ar  141  TRP141      0.0015
    136  N         -5.1660   12.9450   30.8980 N.am  142  LYS142     -0.1977
    137  CA        -4.6310   13.6700   32.0490 C.3   142  LYS142      0.1596
    138  C         -5.6500   13.8620   33.1340 C.2   142  LYS142      0.2287
    139  O         -5.3140   13.9310   34.3100 O.2   142  LYS142     -0.2864
    140  CB        -3.9880   14.9950   31.6250 C.3   142  LYS142      0.0298
    141  CG        -2.9310   14.8250   30.5150 C.3   142  LYS142      0.0038
    142  CD        -1.9450   13.6480   30.7110 C.3   142  LYS142      0.0206
    143  CE        -1.2440   13.2940   29.4330 C.3   142  LYS142      0.1093
    144  NZ        -0.5780   11.9480   29.5530 N.3   142  LYS142     -0.1314
    145  N         -7.5860   11.6310   34.0730 N.3   144  ARG144     -0.1245
    146  CA        -7.7650   10.3600   34.7700 C.3   144  ARG144      0.1563
    147  C         -6.6820   10.0980   35.8060 C.2   144  ARG144      0.2260
    148  O         -6.7820    9.1420   36.5730 O.2   144  ARG144     -0.2867
    149  CB        -7.8290    9.1960   33.8100 C.3   144  ARG144      0.0307
    150  CG        -8.9760    9.1910   32.8430 C.3   144  ARG144      0.0489
    151  CD       -10.2810    9.2170   33.4900 C.3   144  ARG144      0.2205
    152  NE       -10.4610    8.1640   34.4730 N.pl3 144  ARG144     -0.0865
    153  CZ       -11.5630    8.0320   35.2130 C.cat 144  ARG144      0.5346
    154  NH1      -12.5930    8.8690   35.0590 N.pl3 144  ARG144      0.1354
    155  NH2      -11.6120    7.0610   36.1020 N.pl3 144  ARG144      0.1354
    156  N          3.6970   11.4210   33.9160 N.3   167  ASP167     -0.1225
    157  CA         4.1300   12.2070   32.7610 C.3   167  ASP167      0.1805
    158  C          3.2650   13.4500   32.6160 C.2   167  ASP167      0.2597
    159  O          2.1120   13.4860   33.0250 O.2   167  ASP167     -0.2718
    160  CB         4.1000   11.3740   31.4770 C.3   167  ASP167      0.1424
    161  CG         4.8550   12.0280   30.3380 C.2   167  ASP167      0.3668
    162  OD1        5.8040   12.8000   30.6240 O.co2 167  ASP167     -0.2456
    163  OD2        4.5450   11.7420   29.1450 O.co2 167  ASP167     -0.2456
    164  N          3.8270   14.4650   31.9650 N.am  168  ASN168     -0.1974
    165  CA         3.0430   15.5710   31.4450 C.3   168  ASN168      0.1688
    166  C          2.4080   16.4400   32.4970 C.2   168  ASN168      0.2292
    167  O          1.3600   17.0300   32.2820 O.2   168  ASN168     -0.2864
    168  CB         1.9490   15.1080   30.4660 C.3   168  ASN168      0.1181
    169  CG         2.4900   14.2700   29.3550 C.2   168  ASN168      0.2629
    170  OD1        2.1240   13.0890   29.2320 O.2   168  ASN168     -0.2716
    171  ND2        3.3830   14.8310   28.5470 N.am  168  ASN168     -0.0877
    172  N          2.8360   19.9960   30.6150 N.3   171  VAL171     -0.1231
    173  CA         2.1560   20.0470   29.3120 C.3   171  VAL171      0.1678
    174  C          1.7950   18.6230   28.9020 C.2   171  VAL171      0.2434
    175  O          2.6850   17.7910   28.7640 O.2   171  VAL171     -0.2733
    176  CB         3.0650   20.6730   28.2220 C.3   171  VAL171      0.0265
    177  CG1        2.3390   20.7060   26.8610 C.3   171  VAL171      0.0020
    178  CG2        3.6060   22.0630   28.5920 C.3   171  VAL171      0.0020
    179  N          0.5050   18.3270   28.6830 N.am  172  PRO172     -0.2729
    180  CA        -0.6440   19.2280   28.8130 C.3   172  PRO172      0.1401
    181  C         -0.9670   19.7090   30.2180 C.2   172  PRO172      0.2269
    182  O         -1.7420   20.6390   30.3550 O.2   172  PRO172     -0.2865
    183  CB        -1.8030   18.3890   28.2450 C.3   172  PRO172      0.0296
    184  CG        -1.1430   17.4980   27.2660 C.3   172  PRO172      0.0237
    185  CD         0.1130   17.0870   27.9820 C.3   172  PRO172      0.0939
    186  N          9.1160   18.4740   26.9560 N.3   196  LEU196     -0.1231
    187  CA         8.1630   17.7320   26.1730 C.3   196  LEU196      0.1693
    188  C          8.8810   16.9550   25.1110 C.2   196  LEU196      0.2591
    189  O          9.8110   17.4570   24.4640 O.2   196  LEU196     -0.2718
    190  CB         7.2100   18.7320   25.5270 C.3   196  LEU196      0.0284
    191  CG         6.0840   18.1830   24.6690 C.3   196  LEU196      0.0019
    192  CD1        5.1200   17.3480   25.4570 C.3   196  LEU196      0.0001
    193  CD2        5.3280   19.3130   23.9330 C.3   196  LEU196      0.0001
    194  N          8.4700   15.7170   24.8920 N.am  197  GLU197     -0.1979
    195  CA         9.0690   14.8500   23.9130 C.3   197  GLU197      0.1602
    196  C          9.2290   15.5660   22.5740 C.2   197  GLU197      0.2287
    197  O          8.3070   16.1470   22.0090 O.2   197  GLU197     -0.2864
    198  CB         8.2590   13.5630   23.7430 C.3   197  GLU197      0.0415
    199  CG         6.7580   13.7910   23.4840 C.3   197  GLU197      0.1163
    200  CD         5.8760   13.6770   24.6980 C.2   197  GLU197      0.3649
    201  OE1        6.3100   14.0900   25.8040 O.co2 197  GLU197     -0.2457
    202  OE2        4.7420   13.1500   24.5620 O.co2 197  GLU197     -0.2457
@<TRIPOS>BOND
     1     1     2    1
     2     4     3    2
     3     2     5    1
     4     2     3    1
     5     5     6    1
     6     6     7   ar
     7     6     8   ar
     8    46    45    1
     9     7     9   ar
    10    11     8   ar
    11    11    13   ar
    12     8    10   ar
    13    78    77    2
    14    79    77   am
    15    45    43   ar
    16    45    44   ar
    17    77    76    1
    18    43    41   ar
    19    13    14   ar
    20     9    10   ar
    21    10    12   ar
    22    44    42   ar
    23    15    16    1
    24    41    40   ar
    25    14    12   ar
    26    76    73    1
    27    74    75    2
    28    74    73    1
    29    42    40   ar
    30    38    37    2
    31    73    72    1
    32   197   196    2
    33    40    39    1
    34    16    19    1
    35    16    17    1
    36    37    36    1
    37    20    19    1
    38    20    21    1
    39   196   195    1
    40    22    21    1
    41    17    18    2
    42    36    39    1
    43    36    35    1
    44    72    66   am
    45   199   198    1
    46   199   200    1
    47   198   195    1
    48    67    66    2
    49   195   194    1
    50   193   191    1
    51    63    61   ar
    52    66    65    1
    53    60    61    1
    54    60    59    1
    55   189   188    2
    56    61    62   ar
    57   202   200   ar
    58   191   192    1
    59   191   190    1
    60   200   201   ar
    61   194   188   am
    62   188   187    1
    63    70    68    1
    64   190   187    1
    65    59    56    1
    66    65    64    1
    67    65    68    1
    68    58    57    2
    69   133   131   ar
    70   133   135   ar
    71   130   131   ar
    72   130   128   ar
    73    64    57   am
    74    57    56    1
    75   187   186    1
    76    68    69    1
    77    69    71    1
    78   131   129   ar
    79    56    55    1
    80   135   134   ar
    81   177   176    1
    82   128   127   ar
    83   184   185    1
    84   184   183    1
    85    80    81    1
    86    34    33    2
    87    55    49   am
    88    33    32    1
    89   129   127   ar
    90   129   132   ar
    91   185   179    1
    92   134   132   ar
    93    81    82    1
    94   127   126    1
    95   176   178    1
    96   176   173    1
    97   183   180    1
    98   111   109   ar
    99   171   169   am
   100   179   180    1
   101   179   174   am
   102    32    31    1
   103   175   174    2
   104    83    82    2
   105    82    84   am
   106   180   181    1
   107    49    50    2
   108    49    48    1
   109   107   106    2
   110   174   173    1
   111   163   161   ar
   112   109   110   ar
   113   109   108    1
   114   170   169    2
   115   173   172    1
   116   169   168    1
   117   143   144    1
   118   143   142    1
   119    84    85    1
   120   126   123    1
   121   123   122    1
   122   123   124    1
   123   122   114   am
   124   114   113    1
   125   114   115    2
   126   113   116    1
   127   113   112    1
   128    48    47    1
   129    48    51    1
   130    31    25   am
   131   106   112   am
   132   106   105    1
   133   181   182    2
   134    85    88    1
   135    85    86    1
   136   161   162   ar
   137   161   160    1
   138   108   105    1
   139   116   117    1
   140   168   165    1
   141   141   142    1
   142   141   140    1
   143   136   124   am
   144   136   137    1
   145   105   104    1
   146   124   125    2
   147    51    52    1
   148    25    26    2
   149    25    24    1
   150   165   164    1
   151   165   166    1
   152   160   157    1
   153   140   137    1
   154    86    89   am
   155    86    87    2
   156   117   119   ar
   157   117   118   ar
   158   164   158   am
   159   137   138    1
   160    89    90    1
   161    52    53    1
   162   167   166    2
   163   103   101   am
   164    24    23    1
   165    24    27    1
   166   119   121   ar
   167   158   157    1
   168   158   159    2
   169   157   156    1
   170   118   120   ar
   171   150   151    1
   172   150   149    1
   173   102   101    2
   174   138   139    2
   175   101   100    1
   176    27    28    1
   177   151   152    1
   178    90    93    1
   179    90    91    1
   180    94    93    1
   181    53    54    1
   182   121   120   ar
   183   149   146    1
   184   145   146    1
   185   100    99    1
   186   152   153    2
   187    95    91   am
   188    95    96    1
   189    30    28    1
   190    91    92    2
   191   146   147    1
   192    28    29    1
   193   154   153    1
   194   153   155    1
   195    99    96    1
   196    96    97    1
   197    97    98    2
   198   147   148    2
