@<TRIPOS>MOLECULE
tmp/5p96A00.pdb
 194 190 0 0 0
SMALL
GASTEIGER

@<TRIPOS>ATOM
      1  N          6.0710   13.1310   25.5870 N.3    36  TRP36      -0.1241
      2  CA         5.9320   13.1110   24.1320 C.3    36  TRP36       0.1605
      3  C          4.9320   14.1400   23.6850 C.2    36  TRP36       0.2264
      4  O          3.9100   14.3600   24.3380 O.2    36  TRP36      -0.2867
      5  CB         5.4300   11.7360   23.6630 C.3    36  TRP36       0.0550
      6  CG         5.3790   11.5680   22.1870 C.ar   36  TRP36       0.0003
      7  CD1        6.3860   11.0930   21.3970 C.ar   36  TRP36       0.0946
      8  CD2        4.2850   11.8530   21.2990 C.ar   36  TRP36       0.0152
      9  NE1        6.0120   11.0970   20.0850 N.ar   36  TRP36      -0.2442
     10  CE2        4.7310   11.5610   19.9910 C.ar   36  TRP36       0.0810
     11  CE3        2.9800   12.3460   21.4710 C.ar   36  TRP36       0.0012
     12  CZ2        3.9160   11.7160   18.8710 C.ar   36  TRP36       0.0191
     13  CZ3        2.1730   12.4930   20.3630 C.ar   36  TRP36       0.0001
     14  CH2        2.6540   12.1850   19.0720 C.ar   36  TRP36       0.0015
     15  N          3.3050   15.8920   19.6740 N.3    38  MET38      -0.1245
     16  CA         3.2400   15.7440   18.2290 C.3    38  MET38       0.1570
     17  C          3.9310   16.8520   17.4180 C.2    38  MET38       0.2261
     18  O          3.4200   17.3050   16.3860 O.2    38  MET38      -0.2867
     19  CB         1.7850   15.5550   17.7800 C.3    38  MET38       0.0387
     20  CG         0.8400   16.6930   18.1150 C.3    38  MET38       0.0595
     21  SD        -0.7520   16.4800   17.3350 S.3    38  MET38      -0.1393
     22  CE        -1.6380   17.8070   18.0930 C.3    38  MET38       0.0692
     23  N         -0.3310   24.0790    7.6020 N.3    63  LEU63      -0.1231
     24  CA        -1.6270   23.6710    8.1400 C.3    63  LEU63       0.1693
     25  C         -1.4120   22.8370    9.3870 C.2    63  LEU63       0.2592
     26  O         -0.8370   21.7460    9.3120 O.2    63  LEU63      -0.2718
     27  CB        -2.3580   22.8620    7.0630 C.3    63  LEU63       0.0284
     28  CG        -2.6000   23.5890    5.7460 C.3    63  LEU63       0.0019
     29  CD1       -3.3510   22.6660    4.7550 C.3    63  LEU63       0.0001
     30  CD2       -3.2970   24.9410    5.9600 C.3    63  LEU63       0.0001
     31  N         -1.8060   23.3820   10.5400 N.am   64  GLY64      -0.1957
     32  CA        -1.6630   22.7330   11.8310 C.3    64  GLY64       0.1869
     33  C         -0.4240   23.0420   12.6170 C.2    64  GLY64       0.2309
     34  O          0.3390   22.1040   12.9530 O.2    64  GLY64      -0.2863
     35  N         -1.6740   28.0710   10.0570 N.3    87  MET87      -0.1182
     36  CA        -3.0600   27.9200   10.5210 C.3    87  MET87       0.1917
     37  C         -3.1220   26.9340   11.6910 C.2    87  MET87       0.2635
     38  O         -2.5130   25.8560   11.6660 O.2    87  MET87      -0.2714
     39  CB        -3.9560   27.4310    9.3740 C.2    87  MET87       0.0083
     40  CG        -4.0320   28.3370    8.1290 C.2    87  MET87       0.0282
     41  SD        -5.2020   27.8130    6.8050 S.3    87  MET87      -0.1125
     42  CE        -5.0550   29.1550    5.5980 C.3    87  MET87       0.0742
     43  N         -3.8480   27.3330   12.7230 N.am   88  GLU88      -0.1963
     44  CA        -4.0820   26.4840   13.8760 C.3    88  GLU88       0.1733
     45  C         -5.4890   26.7460   14.3990 C.2    88  GLU88       0.2616
     46  O         -5.7660   27.8350   14.8800 O.2    88  GLU88      -0.2715
     47  CB        -3.0490   26.7220   14.9610 C.3    88  GLU88       0.0429
     48  CG        -3.3080   25.9450   16.2540 C.3    88  GLU88       0.1163
     49  CD        -3.4880   24.4830   16.0020 C.2    88  GLU88       0.3649
     50  OE1       -2.5700   23.8180   15.4580 O.co2  88  GLU88      -0.2457
     51  OE2       -4.6090   23.9750   16.3080 O.co2  88  GLU88      -0.2457
     52  N         -6.3530   25.7490   14.3170 N.am   89  MET89      -0.1977
     53  CA        -7.7530   25.9170   14.6500 C.3    89  MET89       0.1605
     54  C         -8.0140   25.8780   16.1620 C.2    89  MET89       0.2287
     55  O         -9.0250   26.3910   16.6080 O.2    89  MET89      -0.2864
     56  CB        -8.6010   24.8780   13.9170 C.3    89  MET89       0.0413
     57  CG        -8.4890   23.5180   14.3930 C.3    89  MET89       0.0598
     58  SD        -9.6450   22.4610   13.4720 S.3    89  MET89      -0.1393
     59  CE       -11.1990   22.8860   14.1910 C.3    89  MET89       0.0692
     60  N         -3.8260   26.3070   21.4030 N.3    93  TYR93      -0.1241
     61  CA        -2.5930   26.0090   20.7060 C.3    93  TYR93       0.1605
     62  C         -2.1310   27.1930   19.8880 C.2    93  TYR93       0.2264
     63  O         -0.9400   27.4740   19.8130 O.2    93  TYR93      -0.2867
     64  CB        -2.7770   24.8300   19.7580 C.3    93  TYR93       0.0534
     65  CG        -3.0710   23.4810   20.3700 C.ar   93  TYR93      -0.0201
     66  CD1       -3.0670   23.2560   21.7160 C.ar   93  TYR93      -0.0009
     67  CD2       -3.3840   22.4130   19.5230 C.ar   93  TYR93      -0.0009
     68  CE1       -3.3920   21.9890   22.2510 C.ar   93  TYR93       0.0417
     69  CE2       -3.6440   21.1540   20.0260 C.ar   93  TYR93       0.0417
     70  CZ        -3.6570   20.9560   21.3970 C.ar   93  TYR93       0.1957
     71  OH        -3.9550   19.7110   21.9110 O.3    93  TYR93      -0.2866
     72  N         -7.9800   29.3980   12.8750 N.3   115  GLY115     -0.1210
     73  CA        -9.2110   28.9140   12.2290 C.3   115  GLY115      0.1956
     74  C         -8.9290   27.5950   11.4760 C.2   115  GLY115      0.2612
     75  O         -7.8190   27.0990   11.4810 O.2   115  GLY115     -0.2717
     76  N         -9.9730   27.0260   10.8750 N.am  116  ALA116     -0.1965
     77  CA        -9.9190   25.7630   10.1410 C.3   116  ALA116      0.1728
     78  C         -9.5500   25.9940    8.6900 C.2   116  ALA116      0.2617
     79  O        -10.0090   26.9500    8.0570 O.2   116  ALA116     -0.2715
     80  CB       -11.2730   25.0750   10.2170 C.3   116  ALA116      0.0334
     81  N         -8.7280   25.0900    8.1580 N.am  117  SER117     -0.1936
     82  CA        -8.2890   25.1580    6.7680 C.3   117  SER117      0.2055
     83  C         -9.4490   25.3070    5.7930 C.2   117  SER117      0.2642
     84  O         -9.3250   26.0940    4.8280 O.2   117  SER117     -0.2714
     85  CB        -7.4790   23.8880    6.4510 C.3   117  SER117      0.2130
     86  OG        -8.2680   22.7430    6.6840 O.3   117  SER117     -0.2179
     87  N        -10.5640   24.6210    6.0470 N.am  118  GLN118     -0.1976
     88  CA       -11.6740   24.6500    5.1060 C.3   118  GLN118      0.1601
     89  C        -12.3130   26.0390    5.0340 C.2   118  GLN118      0.2287
     90  O        -12.8670   26.4140    3.9870 O.2   118  GLN118     -0.2864
     91  CB       -12.6960   23.5480    5.3160 C.3   118  GLN118      0.0394
     92  CG       -13.1500   23.0990    6.6580 C.3   118  GLN118      0.0908
     93  CD       -12.1780   22.1200    7.3650 C.2   118  GLN118      0.2608
     94  OE1      -11.1800   22.5740    7.7810 O.2   118  GLN118     -0.2717
     95  NE2      -12.5710   20.8170    7.6220 N.am  118  GLN118     -0.0878
     96  N          0.2590   19.3240    8.1120 N.3   139  ASP139     -0.1225
     97  CA         0.4880   18.6700    9.3950 C.3   139  ASP139      0.1805
     98  C         -0.7590   18.6810   10.2810 C.2   139  ASP139      0.2598
     99  O         -0.6710   18.5790   11.5120 O.2   139  ASP139     -0.2718
    100  CB         1.6690   19.2860   10.1350 C.3   139  ASP139      0.1424
    101  CG         2.2090   18.4210   11.2720 C.2   139  ASP139      0.3668
    102  OD1        2.0610   17.1910   11.2200 O.co2 139  ASP139     -0.2456
    103  OD2        2.8110   19.0270   12.2130 O.co2 139  ASP139     -0.2456
    104  N         -1.9290   18.8200    9.6560 N.am  140  HIS140     -0.1961
    105  CA        -3.1880   18.9150   10.3830 C.3   140  HIS140      0.1787
    106  C         -3.8710   17.5460   10.4040 C.2   140  HIS140      0.2620
    107  O         -3.1840   16.5290   10.3950 O.2   140  HIS140     -0.2715
    108  CB        -4.0650   20.0520    9.8730 C.3   140  HIS140      0.0785
    109  CG        -4.4200   19.9690    8.4210 C.ar  140  HIS140      0.0821
    110  ND1       -3.6130   19.3710    7.4800 N.ar  140  HIS140     -0.2267
    111  CD2       -5.5010   20.4430    7.7640 C.ar  140  HIS140      0.1154
    112  CE1       -4.1790   19.5040    6.2960 C.ar  140  HIS140      0.1986
    113  NE2       -5.3280   20.1490    6.4400 N.ar  140  HIS140     -0.2212
    114  N         -5.1940   17.4830   10.5140 N.am  141  TRP141     -0.1960
    115  CA        -5.8540   16.1660   10.5280 C.3   141  TRP141      0.1771
    116  C         -5.4910   15.3940    9.2660 C.2   141  TRP141      0.2619
    117  O         -5.4950   15.9330    8.1640 O.2   141  TRP141     -0.2715
    118  CB        -7.3790   16.3040   10.6400 C.3   141  TRP141      0.0590
    119  CG        -7.8840   16.8510   11.9090 C.ar  141  TRP141      0.0006
    120  CD1       -8.6490   17.9690   12.0690 C.ar  141  TRP141      0.0946
    121  CD2       -7.6830   16.3060   13.2370 C.ar  141  TRP141      0.0152
    122  NE1       -8.9130   18.1530   13.3960 N.ar  141  TRP141     -0.2442
    123  CE2       -8.3300   17.1630   14.1330 C.ar  141  TRP141      0.0810
    124  CE3       -6.9890   15.2030   13.7470 C.ar  141  TRP141      0.0012
    125  CZ2       -8.3230   16.9390   15.5260 C.ar  141  TRP141      0.0191
    126  CZ3       -6.9830   14.9830   15.1220 C.ar  141  TRP141      0.0001
    127  CH2       -7.6390   15.8540   15.9910 C.ar  141  TRP141      0.0015
    128  N         -5.1240   14.1240    9.4290 N.am  142  LYS142     -0.1977
    129  CA        -4.5930   13.3620    8.3010 C.3   142  LYS142      0.1596
    130  C         -5.6260   13.1500    7.2070 C.2   142  LYS142      0.2287
    131  O         -5.2880   13.0720    6.0240 O.2   142  LYS142     -0.2864
    132  CB        -3.9480   12.0620    8.7660 C.3   142  LYS142      0.0298
    133  CG        -2.8940   12.2680    9.9050 C.3   142  LYS142      0.0038
    134  CD        -1.9230   13.4650    9.6730 C.3   142  LYS142      0.0206
    135  CE        -1.2910   13.9250   10.9470 C.3   142  LYS142      0.1093
    136  NZ        -0.6630   15.2670   10.8560 N.3   142  LYS142     -0.1314
    137  N         -7.5690   15.3500    6.1910 N.3   144  ARG144     -0.1245
    138  CA        -7.7200   16.6080    5.4850 C.3   144  ARG144      0.1563
    139  C         -6.6390   16.8840    4.4250 C.2   144  ARG144      0.2260
    140  O         -6.7440   17.8330    3.6590 O.2   144  ARG144     -0.2867
    141  CB        -7.7800   17.7970    6.4300 C.3   144  ARG144      0.0307
    142  CG        -8.9810   17.8450    7.3170 C.3   144  ARG144      0.0489
    143  CD       -10.2570   17.9680    6.5300 C.3   144  ARG144      0.2205
    144  NE       -10.1930   19.0410    5.5100 N.pl3 144  ARG144     -0.0865
    145  CZ       -11.1810   19.3010    4.6580 C.cat 144  ARG144      0.5346
    146  NH1      -12.2980   18.6120    4.7370 N.pl3 144  ARG144      0.1354
    147  NH2      -11.0550   20.2270    3.7340 N.pl3 144  ARG144      0.1354
    148  N          3.6470   15.7850    6.5020 N.3   167  ASP167     -0.1225
    149  CA         4.0930   14.9820    7.6300 C.3   167  ASP167      0.1805
    150  C          3.2230   13.7500    7.8210 C.2   167  ASP167      0.2597
    151  O          2.0340   13.7370    7.4140 O.2   167  ASP167     -0.2718
    152  CB         4.0490   15.8020    8.9330 C.3   167  ASP167      0.1424
    153  CG         4.8200   15.1380   10.0750 C.2   167  ASP167      0.3668
    154  OD1        5.7510   14.3490    9.7810 O.co2 167  ASP167     -0.2456
    155  OD2        4.5140   15.4470   11.2740 O.co2 167  ASP167     -0.2456
    156  N          3.7770   12.7050    8.4560 N.am  168  ASN168     -0.1974
    157  CA         2.9360   11.6050    8.9750 C.3   168  ASN168      0.1688
    158  C          2.3120   10.7710    7.9100 C.2   168  ASN168      0.2292
    159  O          1.2380   10.1830    8.1210 O.2   168  ASN168     -0.2864
    160  CB         1.8470   12.1210    9.9430 C.3   168  ASN168      0.1181
    161  CG         2.3950   12.9330   11.0550 C.2   168  ASN168      0.2629
    162  OD1        2.0180   14.1230   11.1980 O.2   168  ASN168     -0.2716
    163  ND2        3.3160   12.3430   11.8400 N.am  168  ASN168     -0.0877
    164  N          2.6750    7.2090    9.7200 N.3   171  VAL171     -0.1231
    165  CA         2.0320    7.1220   11.0180 C.3   171  VAL171      0.1678
    166  C          1.6570    8.5620   11.4310 C.2   171  VAL171      0.2434
    167  O          2.5300    9.4010   11.5880 O.2   171  VAL171     -0.2733
    168  CB         2.9280    6.4900   12.1110 C.3   171  VAL171      0.0265
    169  CG1        2.1720    6.4940   13.4450 C.3   171  VAL171      0.0020
    170  CG2        3.4550    5.1170   11.7540 C.3   171  VAL171      0.0020
    171  N          0.3470    8.8400   11.6680 N.am  172  PRO172     -0.2729
    172  CA        -0.7820    7.9250   11.5610 C.3   172  PRO172      0.1401
    173  C         -1.1190    7.4440   10.1520 C.2   172  PRO172      0.2269
    174  O         -1.8700    6.4930    9.9900 O.2   172  PRO172     -0.2865
    175  CB        -1.9400    8.7480   12.1340 C.3   172  PRO172      0.0296
    176  CG        -1.2850    9.6870   13.1000 C.3   172  PRO172      0.0237
    177  CD        -0.0180   10.0850   12.3670 C.3   172  PRO172      0.0939
    178  N          9.0190    8.6570   13.3940 N.3   196  LEU196     -0.1231
    179  CA         8.0600    9.4160   14.1510 C.3   196  LEU196      0.1693
    180  C          8.8080   10.2130   15.2170 C.2   196  LEU196      0.2591
    181  O          9.7350    9.6900   15.8540 O.2   196  LEU196     -0.2718
    182  CB         7.0750    8.4490   14.8100 C.3   196  LEU196      0.0284
    183  CG         6.0010    8.9980   15.6900 C.3   196  LEU196      0.0019
    184  CD1        5.0050    9.8730   14.8650 C.3   196  LEU196      0.0001
    185  CD2        5.2700    7.8320   16.4060 C.3   196  LEU196      0.0001
    186  N          8.3780   11.4380   15.4610 N.am  197  GLU197     -0.1979
    187  CA         8.9980   12.2990   16.4500 C.3   197  GLU197      0.1602
    188  C          9.1840   11.5660   17.7780 C.2   197  GLU197      0.2287
    189  O          8.2520   10.9680   18.3370 O.2   197  GLU197     -0.2864
    190  CB         8.1710   13.5700   16.6430 C.3   197  GLU197      0.0415
    191  CG         6.6550   13.3510   16.8990 C.3   197  GLU197      0.1163
    192  CD         5.8010   13.5150   15.6850 C.2   197  GLU197      0.3649
    193  OE1        6.2150   13.0850   14.5880 O.co2 197  GLU197     -0.2457
    194  OE2        4.6530   14.0040   15.8450 O.co2 197  GLU197     -0.2457
@<TRIPOS>BOND
     1   140   139    2
     2   147   145    1
     3    90    89    2
     4   139   138    1
     5   145   146    1
     6   145   144    2
     7    29    28    1
     8    84    83    2
     9    89    88    1
    10    88    91    1
    11    88    87    1
    12    91    92    1
    13   138   137    1
    14   138   141    1
    15   144   143    1
    16    42    41    1
    17    28    30    1
    18    28    27    1
    19    83    87   am
    20    83    82    1
    21   131   130    2
    22   112   113   ar
    23   112   110   ar
    24   141   142    1
    25   113   111   ar
    26    85    86    1
    27    85    82    1
    28   148   149    1
    29   143   142    1
    30    92    93    1
    31    82    81    1
    32    41    40    1
    33    27    24    1
    34   130   129    1
    35    93    95   am
    36    93    94    2
    37   151   150    2
    38   110   109   ar
    39    23    24    1
    40   149   150    1
    41   149   152    1
    42   111   109   ar
    43   150   156   am
    44   158   159    2
    45   158   157    1
    46    79    78    2
    47    96    97    1
    48    40    39    2
    49    24    25    1
    50    81    78   am
    51   117   116    2
    52   129   132    1
    53   129   128    1
    54   109   108    1
    55   156   157    1
    56    78    77    1
    57   132   133    1
    58   152   153    1
    59   157   160    1
    60   116   128   am
    61   116   115    1
    62    26    25    2
    63    39    36    1
    64    25    31   am
    65    97   100    1
    66    97    98    1
    67   104    98   am
    68   104   105    1
    69   134   133    1
    70   134   135    1
    71   164   165    1
    72   154   153   ar
    73   108   105    1
    74   160   161    1
    75   174   173    2
    76    35    36    1
    77   153   155   ar
    78   100   101    1
    79    77    80    1
    80    77    76    1
    81   173   172    1
    82    98    99    2
    83   105   106    1
    84   107   106    2
    85   106   114   am
    86   114   115    1
    87    36    37    1
    88   115   118    1
    89    31    32    1
    90   118   119    1
    91   136   135    1
    92    76    74   am
    93   165   166    1
    94   165   168    1
    95   161   162    2
    96   161   163   am
    97   102   101   ar
    98   101   103   ar
    99   166   167    2
   100   166   171   am
   101    74    75    2
   102    74    73    1
   103   172   171    1
   104   172   175    1
   105    38    37    2
   106   171   177    1
   107    37    43   am
   108   170   168    1
   109    32    33    1
   110   119   120   ar
   111   119   121   ar
   112   120   122   ar
   113   168   169    1
   114   175   176    1
   115    73    72    1
   116   177   176    1
   117    33    34    2
   118    43    44    1
   119   121   124   ar
   120   121   123   ar
   121   178   179    1
   122   122   123   ar
   123    58    59    1
   124    58    57    1
   125   124   126   ar
   126    44    45    1
   127    44    47    1
   128    56    57    1
   129    56    53    1
   130   123   125   ar
   131   179   182    1
   132   179   180    1
   133    52    45   am
   134    52    53    1
   135    45    46    2
   136   193   192   ar
   137    53    54    1
   138   182   183    1
   139   184   183    1
   140    47    48    1
   141   126   127   ar
   142   180   186   am
   143   180   181    2
   144    50    49   ar
   145   186   187    1
   146   125   127   ar
   147   192   194   ar
   148   192   191    1
   149   183   185    1
   150    49    48    1
   151    49    51   ar
   152    54    55    2
   153    18    17    2
   154   187   190    1
   155   187   188    1
   156   190   191    1
   157    21    22    1
   158    21    20    1
   159    17    16    1
   160   188   189    2
   161    19    20    1
   162    19    16    1
   163    16    15    1
   164    12    14   ar
   165    12    10   ar
   166    14    13   ar
   167    67    69   ar
   168    67    65   ar
   169    64    65    1
   170    64    61    1
   171    63    62    2
   172    62    61    1
   173    10     9   ar
   174    10     8   ar
   175    69    70   ar
   176     9     7   ar
   177    13    11   ar
   178    65    66   ar
   179    61    60    1
   180     8    11   ar
   181     8     6   ar
   182     7     6   ar
   183    70    71    1
   184    70    68   ar
   185    66    68   ar
   186     6     5    1
   187     5     2    1
   188     3     2    1
   189     3     4    2
   190     2     1    1
