@<TRIPOS>MOLECULE
tmp/5p97A01.pdb
 151 150 0 0 0
SMALL
GASTEIGER

@<TRIPOS>ATOM
      1  N          6.1070   13.1630   25.5090 N.3    36  TRP36      -0.1241
      2  CA         6.0070   13.0830   24.0480 C.3    36  TRP36       0.1605
      3  C          5.0120   14.1040   23.5350 C.2    36  TRP36       0.2264
      4  O          3.9990   14.3670   24.1820 O.2    36  TRP36      -0.2867
      5  CB         5.5120   11.7020   23.6050 C.3    36  TRP36       0.0550
      6  CG         5.5280   11.4880   22.1330 C.ar   36  TRP36       0.0003
      7  CD1        6.5880   11.0670   21.3830 C.ar   36  TRP36       0.0946
      8  CD2        4.4480   11.6930   21.2190 C.ar   36  TRP36       0.0152
      9  NE1        6.2330   10.9910   20.0570 N.ar   36  TRP36      -0.2442
     10  CE2        4.9310   11.3780   19.9230 C.ar   36  TRP36       0.0810
     11  CE3        3.1250   12.1070   21.3610 C.ar   36  TRP36       0.0012
     12  CZ2        4.1380   11.4480   18.7970 C.ar   36  TRP36       0.0191
     13  CZ3        2.3340   12.1840   20.2240 C.ar   36  TRP36       0.0001
     14  CH2        2.8590   11.8530   18.9550 C.ar   36  TRP36       0.0015
     15  N          3.4080   15.7050   19.4740 N.3    38  MET38      -0.1230
     16  CA         3.3730   15.5050   18.0250 C.3    38  MET38       0.1702
     17  C          4.0360   16.6340   17.2250 C.2    38  MET38       0.2592
     18  O          3.5140   17.0940   16.2130 O.2    38  MET38      -0.2718
     19  CB         1.9310   15.2920   17.5740 C.3    38  MET38       0.0401
     20  CG         1.0470   16.5050   17.7880 C.3    38  MET38       0.0596
     21  SD        -0.5570   16.2650   17.0720 S.3    38  MET38      -0.1393
     22  CE        -1.3030   15.2270   18.3260 C.3    38  MET38       0.0692
     23  N          5.1930   17.0960   17.6830 N.am   39  ASN39      -0.1974
     24  CA         6.0210   18.0100   16.8920 C.3    39  ASN39       0.1688
     25  C          6.6810   17.1770   15.8080 C.2    39  ASN39       0.2292
     26  O          6.8820   15.9990   15.9950 O.2    39  ASN39      -0.2864
     27  CB         7.1340   18.6250   17.7470 C.3    39  ASN39       0.1181
     28  CG         6.6210   19.2820   19.0060 C.2    39  ASN39       0.2629
     29  OD1        7.0180   18.9260   20.1350 O.2    39  ASN39      -0.2716
     30  ND2        5.7600   20.2400   18.8360 N.am   39  ASN39      -0.0877
     31  N          0.1980   23.4550   15.4880 N.3    66  TYR66      -0.1241
     32  CA         0.3360   22.8500   16.8050 C.3    66  TYR66       0.1605
     33  C          0.9950   23.7970   17.8090 C.2    66  TYR66       0.2264
     34  O          0.3650   24.7730   18.1970 O.2    66  TYR66      -0.2867
     35  CB         0.9910   21.4580   16.7440 C.3    66  TYR66       0.0534
     36  CG         0.9850   20.7180   18.0620 C.ar   66  TYR66      -0.0201
     37  CD1       -0.1280   20.7340   18.9040 C.ar   66  TYR66      -0.0009
     38  CD2        2.1050   20.0120   18.4820 C.ar   66  TYR66      -0.0009
     39  CE1       -0.1220   20.0550   20.1120 C.ar   66  TYR66       0.0417
     40  CE2        2.1340   19.3480   19.6960 C.ar   66  TYR66       0.0417
     41  CZ         1.0060   19.3720   20.5050 C.ar   66  TYR66       0.1957
     42  OH         1.0320   18.7050   21.7010 O.3    66  TYR66      -0.2866
     43  N         -3.9500   27.0180   12.2760 N.3    88  GLU88      -0.1245
     44  CA        -4.1980   26.1270   13.4110 C.3    88  GLU88       0.1567
     45  C         -5.6300   26.2860   13.8870 C.2    88  GLU88       0.2260
     46  O         -6.0450   27.3760   14.2630 O.2    88  GLU88      -0.2867
     47  CB        -3.2290   26.4340   14.5550 C.3    88  GLU88       0.0388
     48  CG        -3.4310   25.5950   15.8100 C.3    88  GLU88       0.1160
     49  CD        -3.5690   24.1080   15.5530 C.2    88  GLU88       0.3649
     50  OE1       -2.6170   23.4980   15.0040 O.co2  88  GLU88      -0.2457
     51  OE2       -4.6410   23.5390   15.8940 O.co2  88  GLU88      -0.2457
     52  N         -3.8240   26.1210   20.9180 N.3    93  TYR93      -0.1241
     53  CA        -2.5740   25.8260   20.2320 C.3    93  TYR93       0.1605
     54  C         -2.1120   27.0230   19.4160 C.2    93  TYR93       0.2264
     55  O         -0.9140   27.3020   19.3500 O.2    93  TYR93      -0.2867
     56  CB        -2.7300   24.6190   19.3100 C.3    93  TYR93       0.0534
     57  CG        -3.0780   23.2810   19.9490 C.ar   93  TYR93      -0.0201
     58  CD1       -3.0220   23.0590   21.3220 C.ar   93  TYR93      -0.0009
     59  CD2       -3.4520   22.2090   19.1300 C.ar   93  TYR93      -0.0009
     60  CE1       -3.3680   21.7980   21.8590 C.ar   93  TYR93       0.0417
     61  CE2       -3.7800   20.9630   19.6530 C.ar   93  TYR93       0.0417
     62  CZ        -3.7330   20.7720   21.0080 C.ar   93  TYR93       0.1957
     63  OH        -4.0600   19.5100   21.5070 O.3    93  TYR93      -0.2866
     64  N          0.4310   19.1230    7.9190 N.3   139  ASP139     -0.1225
     65  CA         0.6740   18.4680    9.2070 C.3   139  ASP139      0.1805
     66  C         -0.5300   18.5630   10.1330 C.2   139  ASP139      0.2598
     67  O         -0.3860   18.4270   11.3470 O.2   139  ASP139     -0.2718
     68  CB         1.8930   19.0880    9.9100 C.3   139  ASP139      0.1424
     69  CG         2.4170   18.2450   11.0520 C.2   139  ASP139      0.3668
     70  OD1        2.2570   17.0100   11.0150 O.co2 139  ASP139     -0.2456
     71  OD2        3.0300   18.8330   11.9780 O.co2 139  ASP139     -0.2456
     72  N         -1.7070   18.7530    9.5510 N.am  140  HIS140     -0.1961
     73  CA        -2.9140   18.8850   10.3370 C.3   140  HIS140      0.1787
     74  C         -3.6280   17.5270   10.4240 C.2   140  HIS140      0.2620
     75  O         -2.9920   16.4900   10.3570 O.2   140  HIS140     -0.2715
     76  CB        -3.7940   20.0370    9.8290 C.3   140  HIS140      0.0785
     77  CG        -4.2340   19.9380    8.4040 C.ar  140  HIS140      0.0821
     78  ND1       -3.4950   19.3080    7.4250 N.ar  140  HIS140     -0.2267
     79  CD2       -5.3280   20.4470    7.7890 C.ar  140  HIS140      0.1154
     80  CE1       -4.1290   19.4370    6.2650 C.ar  140  HIS140      0.1986
     81  NE2       -5.2330   20.1390    6.4570 N.ar  140  HIS140     -0.2212
     82  N         -4.9390   17.5020   10.6110 N.am  141  TRP141     -0.1960
     83  CA        -5.6550   16.2380   10.6530 C.3   141  TRP141      0.1771
     84  C         -5.4050   15.4400    9.3780 C.2   141  TRP141      0.2619
     85  O         -5.5280   15.9810    8.2840 O.2   141  TRP141     -0.2715
     86  CB        -7.1540   16.4910   10.8250 C.3   141  TRP141      0.0590
     87  CG        -7.5040   17.2620   12.0760 C.ar  141  TRP141      0.0006
     88  CD1       -7.9930   18.5350   12.1400 C.ar  141  TRP141      0.0946
     89  CD2       -7.3650   16.8110   13.4230 C.ar  141  TRP141      0.0152
     90  NE1       -8.1840   18.8990   13.4540 N.ar  141  TRP141     -0.2442
     91  CE2       -7.8050   17.8600   14.2630 C.ar  141  TRP141      0.0810
     92  CE3       -6.9180   15.6190   14.0080 C.ar  141  TRP141      0.0012
     93  CZ2       -7.8160   17.7500   15.6590 C.ar  141  TRP141      0.0191
     94  CZ3       -6.9260   15.5090   15.4060 C.ar  141  TRP141      0.0001
     95  CH2       -7.3700   16.5740   16.2100 C.ar  141  TRP141      0.0015
     96  N         -5.0840   14.1590    9.5130 N.am  142  LYS142     -0.1977
     97  CA        -4.6270   13.3850    8.3600 C.3   142  LYS142      0.1596
     98  C         -5.7160   13.2070    7.3180 C.2   142  LYS142      0.2287
     99  O         -5.4020   13.1030    6.1500 O.2   142  LYS142     -0.2864
    100  CB        -3.9530   12.0710    8.7720 C.3   142  LYS142      0.0298
    101  CG        -2.8360   12.2120    9.8220 C.3   142  LYS142      0.0038
    102  CD        -1.8900   13.3960    9.5820 C.3   142  LYS142      0.0206
    103  CE        -1.1420   13.7740   10.8410 C.3   142  LYS142      0.1093
    104  NZ        -0.5220   15.1180   10.6970 N.3   142  LYS142     -0.1314
    105  N          3.7360   15.5400    6.3060 N.3   167  ASP167     -0.1225
    106  CA         4.2090   14.7610    7.4360 C.3   167  ASP167      0.1805
    107  C          3.3300   13.5420    7.6250 C.2   167  ASP167      0.2597
    108  O          2.1600   13.5230    7.2270 O.2   167  ASP167     -0.2718
    109  CB         4.1910   15.5970    8.7330 C.3   167  ASP167      0.1424
    110  CG         4.9740   14.9490    9.8630 C.2   167  ASP167      0.3668
    111  OD1        5.8950   14.1600    9.5690 O.co2 167  ASP167     -0.2456
    112  OD2        4.6530   15.2250   11.0600 O.co2 167  ASP167     -0.2456
    113  N          3.8850   12.5370    8.2790 N.am  168  ASN168     -0.1974
    114  CA         3.0870   11.4270    8.8030 C.3   168  ASN168      0.1688
    115  C          2.4250   10.5580    7.7420 C.2   168  ASN168      0.2292
    116  O          1.3520    9.9970    7.9620 O.2   168  ASN168     -0.2864
    117  CB         2.0130   11.9020    9.7800 C.3   168  ASN168      0.1181
    118  CG         2.5650   12.7620   10.8690 C.2   168  ASN168      0.2629
    119  OD1        2.1840   13.9390   11.0160 O.2   168  ASN168     -0.2716
    120  ND2        3.4450   12.1680   11.6840 N.am  168  ASN168     -0.0877
    121  N          2.8290    6.9790    9.6430 N.3   171  VAL171     -0.1231
    122  CA         2.1410    6.9570   10.9420 C.3   171  VAL171      0.1678
    123  C          1.7970    8.3920   11.3540 C.2   171  VAL171      0.2434
    124  O          2.6970    9.2100   11.5020 O.2   171  VAL171     -0.2733
    125  CB         3.0440    6.3090   12.0510 C.3   171  VAL171      0.0265
    126  CG1        2.2920    6.2710   13.3680 C.3   171  VAL171      0.0020
    127  CG2        3.5940    4.9060   11.6440 C.3   171  VAL171      0.0020
    128  N          0.4990    8.7070   11.6000 N.am  172  PRO172     -0.2729
    129  CA        -0.6590    7.8240   11.4820 C.3   172  PRO172      0.1401
    130  C         -0.9950    7.3600   10.0750 C.2   172  PRO172      0.2269
    131  O         -1.7690    6.4270    9.9170 O.2   172  PRO172     -0.2865
    132  CB        -1.8150    8.6830   12.0230 C.3   172  PRO172      0.0296
    133  CG        -1.1310    9.6220   12.9620 C.3   172  PRO172      0.0237
    134  CD         0.1420    9.9610   12.2660 C.3   172  PRO172      0.0939
    135  N          9.1540    8.4940   13.2950 N.3   196  LEU196     -0.1231
    136  CA         8.2030    9.2310   14.0850 C.3   196  LEU196      0.1693
    137  C          8.9500   10.0340   15.1420 C.2   196  LEU196      0.2591
    138  O          9.8840    9.5180   15.7810 O.2   196  LEU196     -0.2718
    139  CB         7.2350    8.2460   14.7400 C.3   196  LEU196      0.0284
    140  CG         6.1050    8.8040   15.6010 C.3   196  LEU196      0.0019
    141  CD1        5.1170    9.6490   14.8020 C.3   196  LEU196      0.0001
    142  CD2        5.3760    7.6630   16.2950 C.3   196  LEU196      0.0001
    143  N          8.5050   11.2650   15.3590 N.am  197  GLU197     -0.1979
    144  CA         9.1320   12.1470   16.3100 C.3   197  GLU197      0.1602
    145  C          9.3290   11.4410   17.6400 C.2   197  GLU197      0.2287
    146  O          8.4010   10.8680   18.2120 O.2   197  GLU197     -0.2864
    147  CB         8.3110   13.4130   16.4910 C.3   197  GLU197      0.0415
    148  CG         6.7990   13.2090   16.7580 C.3   197  GLU197      0.1163
    149  CD         5.9350   13.3250   15.5220 C.2   197  GLU197      0.3649
    150  OE1        6.3770   12.8920   14.4350 O.co2 197  GLU197     -0.2457
    151  OE2        4.8210   13.8540   15.6260 O.co2 197  GLU197     -0.2457
@<TRIPOS>BOND
     1    99    98    2
     2    80    81   ar
     3    80    78   ar
     4   105   106    1
     5    81    79   ar
     6   108   107    2
     7    98    97    1
     8    78    77   ar
     9   106   107    1
    10   106   109    1
    11   107   113   am
    12   115   116    2
    13   115   114    1
    14    79    77   ar
    15    64    65    1
    16   113   114    1
    17    85    84    2
    18    97   100    1
    19    97    96    1
    20    77    76    1
    21   109   110    1
    22   100   101    1
    23   114   117    1
    24    65    68    1
    25    65    66    1
    26    84    96   am
    27    84    83    1
    28    72    66   am
    29    72    73    1
    30   111   110   ar
    31   102   101    1
    32   102   103    1
    33   121   122    1
    34   117   118    1
    35    76    73    1
    36   110   112   ar
    37    68    69    1
    38   131   130    2
    39   130   129    1
    40    66    67    2
    41    73    74    1
    42    75    74    2
    43    74    82   am
    44    82    83    1
    45    83    86    1
    46   104   103    1
    47    86    87    1
    48   118   119    2
    49   118   120   am
    50   122   123    1
    51   122   125    1
    52    70    69   ar
    53    69    71   ar
    54   123   124    2
    55   123   128   am
    56   129   128    1
    57   129   132    1
    58   128   134    1
    59   127   125    1
    60   132   133    1
    61   125   126    1
    62    87    88   ar
    63    87    89   ar
    64    88    90   ar
    65   134   133    1
    66    43    44    1
    67   135   136    1
    68    44    45    1
    69    44    47    1
    70    89    92   ar
    71    89    91   ar
    72    90    91   ar
    73    45    46    2
    74    92    94   ar
    75   136   139    1
    76   136   137    1
    77    91    93   ar
    78   150   149   ar
    79    47    48    1
    80   139   140    1
    81   141   140    1
    82    50    49   ar
    83   137   143   am
    84   137   138    2
    85   143   144    1
    86    94    95   ar
    87    31    32    1
    88   149   151   ar
    89   149   148    1
    90    49    48    1
    91    49    51   ar
    92   140   142    1
    93    93    95   ar
    94    25    26    2
    95    25    24    1
    96    18    17    2
    97   144   147    1
    98   144   145    1
    99   147   148    1
   100    35    32    1
   101    35    36    1
   102    32    33    1
   103    24    23    1
   104    24    27    1
   105    21    20    1
   106    21    22    1
   107    17    23   am
   108    17    16    1
   109    19    20    1
   110    19    16    1
   111   145   146    2
   112    27    28    1
   113    33    34    2
   114    16    15    1
   115    36    38   ar
   116    36    37   ar
   117    38    40   ar
   118    12    14   ar
   119    12    10   ar
   120    30    28   am
   121    37    39   ar
   122    14    13   ar
   123    28    29    2
   124    59    61   ar
   125    59    57   ar
   126    56    57    1
   127    56    53    1
   128    55    54    2
   129    54    53    1
   130    61    62   ar
   131    40    41   ar
   132    10     9   ar
   133    10     8   ar
   134    57    58   ar
   135     9     7   ar
   136    39    41   ar
   137    13    11   ar
   138    53    52    1
   139    41    42    1
   140    62    63    1
   141    62    60   ar
   142     8    11   ar
   143     8     6   ar
   144    58    60   ar
   145     7     6   ar
   146     6     5    1
   147     3     2    1
   148     3     4    2
   149     5     2    1
   150     2     1    1
