@<TRIPOS>MOLECULE
tmp/5p98A02.pdb
 155 153 0 0 0
SMALL
GASTEIGER

@<TRIPOS>ATOM
      1  N          6.2060   12.8870   25.4960 N.3    37  TRP37      -0.1241
      2  CA         6.0520   12.9070   24.0570 C.3    37  TRP37       0.1605
      3  C          5.0930   13.9570   23.6580 C.2    37  TRP37       0.2264
      4  O          4.0720   14.1600   24.3380 O.2    37  TRP37      -0.2867
      5  CB         5.5240   11.5500   23.5610 C.3    37  TRP37       0.0550
      6  CG         5.4480   11.3920   22.1030 C.ar   37  TRP37       0.0003
      7  CD1        6.4430   10.9140   21.2600 C.ar   37  TRP37       0.0946
      8  CD2        4.3440   11.7160   21.2330 C.ar   37  TRP37       0.0152
      9  NE1        6.0250   10.9700   19.9830 N.ar   37  TRP37      -0.2442
     10  CE2        4.7330   11.4490   19.9210 C.ar   37  TRP37       0.0810
     11  CE3        3.0390   12.2050   21.4720 C.ar   37  TRP37       0.0012
     12  CZ2        3.8800   11.6630   18.8440 C.ar   37  TRP37       0.0191
     13  CZ3        2.1910   12.3860   20.3970 C.ar   37  TRP37       0.0001
     14  CH2        2.6130   12.0960   19.1090 C.ar   37  TRP37       0.0015
     15  N          3.3890   15.7590   19.7230 N.3    39  MET39      -0.1230
     16  CA         3.3030   15.6350   18.2490 C.3    39  MET39       0.1702
     17  C          3.9470   16.7580   17.4610 C.2    39  MET39       0.2592
     18  O          3.4130   17.2780   16.4700 O.2    39  MET39      -0.2718
     19  CB         1.8630   15.4370   17.8310 C.3    39  MET39       0.0401
     20  CG         0.9110   16.5550   18.2450 C.3    39  MET39       0.0596
     21  SD        -0.7830   16.1550   17.6610 S.3    39  MET39      -0.1393
     22  CE        -1.7720   17.2740   18.6210 C.3    39  MET39       0.0692
     23  N          5.1210   17.1960   17.9090 N.am   40  ASN40      -0.1974
     24  CA         5.9370   18.1140   17.0700 C.3    40  ASN40       0.1688
     25  C          6.6080   17.2880   15.9710 C.2    40  ASN40       0.2292
     26  O          6.8670   16.0900   16.1600 O.2    40  ASN40      -0.2864
     27  CB         7.0640   18.7040   17.9160 C.3    40  ASN40       0.1181
     28  CG         6.5930   19.3240   19.1970 C.2    40  ASN40       0.2629
     29  OD1        6.9780   18.7940   20.3300 O.2    40  ASN40      -0.2716
     30  ND2        5.7740   20.3090   19.1330 N.am   40  ASN40      -0.0877
     31  N         -1.7230   23.4240   10.1840 N.3    65  GLY65      -0.1225
     32  CA        -1.5440   22.8460   11.4960 C.3    65  GLY65       0.1811
     33  C         -0.2460   23.3170   12.0980 C.2    65  GLY65       0.2280
     34  O          0.8290   23.0640   11.5560 O.2    65  GLY65      -0.2866
     35  N          0.2760   23.3570   15.9110 N.3    67  TYR67      -0.1241
     36  CA         0.4940   22.7040   17.2150 C.3    67  TYR67       0.1605
     37  C          1.1310   23.6800   18.2030 C.2    67  TYR67       0.2264
     38  O          0.4390   24.6320   18.6390 O.2    67  TYR67      -0.2867
     39  CB         1.1140   21.2990   17.0780 C.3    67  TYR67       0.0534
     40  CG         1.1550   20.5610   18.3890 C.ar   67  TYR67      -0.0201
     41  CD1        0.0450   20.5220   19.2100 C.ar   67  TYR67      -0.0009
     42  CD2        2.2990   19.9430   18.8730 C.ar   67  TYR67      -0.0009
     43  CE1        0.0800   19.9020   20.4290 C.ar   67  TYR67       0.0417
     44  CE2        2.3680   19.3170   20.0770 C.ar   67  TYR67       0.0417
     45  CZ         1.2490   19.2890   20.8680 C.ar   67  TYR67       0.1957
     46  OH         1.3360   18.6950   22.0900 O.3    67  TYR67      -0.2866
     47  N         -4.0920   27.3310   12.2580 N.3    89  GLU89      -0.1245
     48  CA        -4.2400   26.5130   13.4580 C.3    89  GLU89       0.1567
     49  C         -5.6650   26.6340   13.9920 C.2    89  GLU89       0.2260
     50  O         -6.0620   27.7310   14.4980 O.2    89  GLU89      -0.2867
     51  CB        -3.2130   26.9010   14.5220 C.3    89  GLU89       0.0388
     52  CG        -3.3380   26.1090   15.8130 C.3    89  GLU89       0.1160
     53  CD        -3.4720   24.5850   15.5800 C.2    89  GLU89       0.3649
     54  OE1       -2.4570   23.9840   15.1380 O.co2  89  GLU89      -0.2457
     55  OE2       -4.5650   24.0200   15.8330 O.co2  89  GLU89      -0.2457
     56  N         -3.7720   25.9280   21.0470 N.3    94  TYR94      -0.1241
     57  CA        -2.5580   25.7070   20.2610 C.3    94  TYR94       0.1605
     58  C         -2.1070   26.9920   19.5850 C.2    94  TYR94       0.2264
     59  O         -0.9090   27.2920   19.5280 O.2    94  TYR94      -0.2867
     60  CB        -2.7640   24.6550   19.1870 C.3    94  TYR94       0.0534
     61  CG        -3.0190   23.2040   19.6020 C.ar   94  TYR94      -0.0201
     62  CD1       -2.9410   22.8150   20.9230 C.ar   94  TYR94      -0.0009
     63  CD2       -3.3050   22.2400   18.6540 C.ar   94  TYR94      -0.0009
     64  CE1       -3.1970   21.4530   21.3180 C.ar   94  TYR94       0.0417
     65  CE2       -3.5130   20.9080   18.9820 C.ar   94  TYR94       0.0417
     66  CZ        -3.5070   20.5530   20.2970 C.ar   94  TYR94       0.1957
     67  OH        -3.7340   19.2320   20.5270 O.3    94  TYR94      -0.2866
     68  N          0.3800   19.3530    8.0580 N.3   140  ASP140     -0.1225
     69  CA         0.5890   18.7360    9.3480 C.3   140  ASP140      0.1805
     70  C         -0.6390   18.8280   10.2660 C.2   140  ASP140      0.2598
     71  O         -0.5080   18.8390   11.4870 O.2   140  ASP140     -0.2718
     72  CB         1.8430   19.3330   10.0590 C.3   140  ASP140      0.1424
     73  CG         2.3520   18.4790   11.1940 C.2   140  ASP140      0.3668
     74  OD1        2.1900   17.2450   11.1790 O.co2 140  ASP140     -0.2456
     75  OD2        2.9830   19.0740   12.1120 O.co2 140  ASP140     -0.2456
     76  N         -1.8220   18.8980    9.6390 N.am  141  HIS141     -0.1961
     77  CA        -3.0620   19.0600   10.3710 C.3   141  HIS141      0.1787
     78  C         -3.7640   17.7220   10.5360 C.2   141  HIS141      0.2620
     79  O         -3.0890   16.6800   10.5570 O.2   141  HIS141     -0.2715
     80  CB        -3.8860   20.2250    9.7960 C.3   141  HIS141      0.0785
     81  CG        -4.2380   20.0630    8.3550 C.ar  141  HIS141      0.0821
     82  ND1       -3.4230   19.4060    7.4490 N.ar  141  HIS141     -0.2267
     83  CD2       -5.3050   20.5250    7.6740 C.ar  141  HIS141      0.1154
     84  CE1       -3.9860   19.5020    6.2640 C.ar  141  HIS141      0.1986
     85  NE2       -5.1130   20.1980    6.3630 N.ar  141  HIS141     -0.2212
     86  N         -5.0650   17.6460   10.6220 N.am  142  TRP142     -0.1960
     87  CA        -5.7380   16.3830   10.7340 C.3   142  TRP142      0.1771
     88  C         -5.4750   15.5850    9.4520 C.2   142  TRP142      0.2619
     89  O         -5.5350   16.0830    8.3480 O.2   142  TRP142     -0.2715
     90  CB        -7.2480   16.5730   10.7890 C.3   142  TRP142      0.0590
     91  CG        -7.9260   16.2180   11.9250 C.ar  142  TRP142      0.0006
     92  CD1       -8.9070   15.2280   12.0650 C.ar  142  TRP142      0.0946
     93  CD2       -7.6990   16.7370   13.1670 C.ar  142  TRP142      0.0152
     94  NE1       -9.3390   15.1780   13.3780 N.ar  142  TRP142     -0.2442
     95  CE2       -8.6100   16.1030   14.0860 C.ar  142  TRP142      0.0810
     96  CE3       -6.8300   17.6670   13.6530 C.ar  142  TRP142      0.0012
     97  CZ2       -8.6510   16.4300   15.4680 C.ar  142  TRP142      0.0191
     98  CZ3       -6.9230   18.0040   14.9710 C.ar  142  TRP142      0.0001
     99  CH2       -7.7720   17.3740   15.8850 C.ar  142  TRP142      0.0015
    100  N         -5.1810   14.2910    9.5770 N.am  143  LYS143     -0.1977
    101  CA        -4.6690   13.5430    8.4720 C.3   143  LYS143      0.1596
    102  C         -5.7180   13.3080    7.4090 C.2   143  LYS143      0.2287
    103  O         -5.3580   13.1660    6.2320 O.2   143  LYS143     -0.2864
    104  CB        -4.0330   12.2300    8.9720 C.3   143  LYS143      0.0298
    105  CG        -2.9650   12.4710   10.1150 C.3   143  LYS143      0.0038
    106  CD        -1.9830   13.6470    9.8300 C.3   143  LYS143      0.0206
    107  CE        -1.2180   14.0760   11.0700 C.3   143  LYS143      0.1093
    108  NZ        -0.6140   15.3820   10.8960 N.3   143  LYS143     -0.1314
    109  N          3.7280   15.7820    6.4740 N.3   168  ASP168     -0.1225
    110  CA         4.1200   14.9840    7.6180 C.3   168  ASP168      0.1805
    111  C          3.2390   13.7880    7.8160 C.2   168  ASP168      0.2597
    112  O          2.0760   13.8040    7.3880 O.2   168  ASP168     -0.2718
    113  CB         4.1280   15.8140    8.9300 C.3   168  ASP168      0.1424
    114  CG         4.8670   15.1640   10.0660 C.2   168  ASP168      0.3668
    115  OD1        5.7580   14.3570    9.7930 O.co2 168  ASP168     -0.2456
    116  OD2        4.5890   15.4630   11.2620 O.co2 168  ASP168     -0.2456
    117  N          3.7540   12.7370    8.4570 N.am  169  ASN169     -0.1974
    118  CA         2.9070   11.6800    9.0130 C.3   169  ASN169      0.1688
    119  C          2.2440   10.8520    7.9430 C.2   169  ASN169      0.2292
    120  O          1.1650   10.2960    8.1660 O.2   169  ASN169     -0.2864
    121  CB         1.8280   12.2100    9.9870 C.3   169  ASN169      0.1181
    122  CG         2.4040   13.0350   11.0750 C.2   169  ASN169      0.2629
    123  OD1        2.0770   14.2250   11.2250 O.2   169  ASN169     -0.2716
    124  ND2        3.2730   12.4390   11.8620 N.am  169  ASN169     -0.0877
    125  N          2.5390    7.2980    9.7620 N.3   172  VAL172     -0.1231
    126  CA         1.9170    7.2720   11.0580 C.3   172  VAL172      0.1678
    127  C          1.5550    8.6720   11.4860 C.2   172  VAL172      0.2434
    128  O          2.4450    9.4770   11.6090 O.2   172  VAL172     -0.2733
    129  CB         2.8140    6.6860   12.1480 C.3   172  VAL172      0.0265
    130  CG1        2.0670    6.6700   13.4700 C.3   172  VAL172      0.0020
    131  CG2        3.3210    5.2910   11.7840 C.3   172  VAL172      0.0020
    132  N          0.2550    9.0000   11.7400 N.am  173  PRO173     -0.2729
    133  CA        -0.8890    8.0750   11.6470 C.3   173  PRO173      0.1401
    134  C         -1.2260    7.6200   10.2460 C.2   173  PRO173      0.2269
    135  O         -2.0040    6.6740   10.1040 O.2   173  PRO173     -0.2865
    136  CB        -2.0120    8.9200   12.2550 C.3   173  PRO173      0.0296
    137  CG        -1.3260    9.8450   13.1770 C.3   173  PRO173      0.0237
    138  CD        -0.0970   10.2500   12.4160 C.3   173  PRO173      0.0939
    139  N          8.8670    8.5060   13.3590 N.3   197  LEU197     -0.1231
    140  CA         7.9430    9.2790   14.1460 C.3   197  LEU197      0.1693
    141  C          8.6930   10.0700   15.1870 C.2   197  LEU197      0.2591
    142  O          9.6500    9.5490   15.8040 O.2   197  LEU197     -0.2718
    143  CB         6.9810    8.2720   14.8270 C.3   197  LEU197      0.0284
    144  CG         5.8840    8.9010   15.7170 C.3   197  LEU197      0.0019
    145  CD1        4.8690    9.7310   14.9270 C.3   197  LEU197      0.0001
    146  CD2        5.1030    7.7590   16.4460 C.3   197  LEU197      0.0001
    147  N          8.3090   11.3070   15.4000 N.am  198  GLU198     -0.1979
    148  CA         8.9840   12.1520   16.3550 C.3   198  GLU198      0.1602
    149  C          9.1890   11.4360   17.6680 C.2   198  GLU198      0.2287
    150  O          8.2600   10.8600   18.2540 O.2   198  GLU198     -0.2864
    151  CB         8.1900   13.4420   16.5390 C.3   198  GLU198      0.0415
    152  CG         6.6750   13.2820   16.8470 C.3   198  GLU198      0.1163
    153  CD         5.7950   13.4550   15.6280 C.2   198  GLU198      0.3649
    154  OE1        6.1630   13.0310   14.5580 O.co2 198  GLU198     -0.2457
    155  OE2        4.6910   14.0120   15.8220 O.co2 198  GLU198     -0.2457
@<TRIPOS>BOND
     1   103   102    2
     2    84    85   ar
     3    84    82   ar
     4    85    83   ar
     5   109   110    1
     6   112   111    2
     7   102   101    1
     8    82    81   ar
     9   110   111    1
    10   110   113    1
    11    83    81   ar
    12   111   117   am
    13   119   120    2
    14   119   118    1
    15    68    69    1
    16    89    88    2
    17    81    80    1
    18   117   118    1
    19   101   104    1
    20   101   100    1
    21   113   114    1
    22   104   105    1
    23   118   121    1
    24    69    72    1
    25    69    70    1
    26    88   100   am
    27    88    87    1
    28    76    70   am
    29    76    77    1
    30   125   126    1
    31   115   114   ar
    32    80    77    1
    33   106   105    1
    34   106   107    1
    35   121   122    1
    36    72    73    1
    37   114   116   ar
    38   135   134    2
    39    31    32    1
    40   134   133    1
    41    70    71    2
    42    77    78    1
    43    78    79    2
    44    78    86   am
    45    86    87    1
    46    87    90    1
    47    90    91    1
    48   108   107    1
    49   126   127    1
    50   126   129    1
    51   122   123    2
    52   122   124   am
    53    74    73   ar
    54    73    75   ar
    55   127   128    2
    56   127   132   am
    57    32    33    1
    58    34    33    2
    59   133   132    1
    60   133   136    1
    61   132   138    1
    62   131   129    1
    63    91    92   ar
    64    91    93   ar
    65    92    94   ar
    66   129   130    1
    67   136   137    1
    68    47    48    1
    69   138   137    1
    70    93    96   ar
    71    93    95   ar
    72   139   140    1
    73    94    95   ar
    74    48    49    1
    75    48    51    1
    76    96    98   ar
    77    49    50    2
    78    95    97   ar
    79   140   143    1
    80   140   141    1
    81    51    52    1
    82   154   153   ar
    83   143   144    1
    84   145   144    1
    85    98    99   ar
    86    54    53   ar
    87   141   147   am
    88   141   142    2
    89   147   148    1
    90    97    99   ar
    91    53    52    1
    92    53    55   ar
    93   153   155   ar
    94   153   152    1
    95   144   146    1
    96    35    36    1
    97    25    26    2
    98    25    24    1
    99   148   151    1
   100   148   149    1
   101    18    17    2
   102   151   152    1
   103    24    23    1
   104    24    27    1
   105    39    36    1
   106    39    40    1
   107    36    37    1
   108    17    23   am
   109    17    16    1
   110    21    20    1
   111    21    22    1
   112   149   150    2
   113    19    20    1
   114    19    16    1
   115    27    28    1
   116    37    38    2
   117    16    15    1
   118    40    42   ar
   119    40    41   ar
   120    63    65   ar
   121    63    61   ar
   122    12    14   ar
   123    12    10   ar
   124    42    44   ar
   125    65    66   ar
   126    14    13   ar
   127    30    28   am
   128    60    61    1
   129    60    57    1
   130    28    29    2
   131    41    43   ar
   132    59    58    2
   133    58    57    1
   134    61    62   ar
   135    10     9   ar
   136    10     8   ar
   137     9     7   ar
   138    44    45   ar
   139    57    56    1
   140    66    67    1
   141    66    64   ar
   142    13    11   ar
   143    43    45   ar
   144    45    46    1
   145    62    64   ar
   146     8    11   ar
   147     8     6   ar
   148     7     6   ar
   149     6     5    1
   150     5     2    1
   151     3     2    1
   152     3     4    2
   153     2     1    1
