@<TRIPOS>MOLECULE
tmp/5p99A00.pdb
 178 177 0 0 0
SMALL
GASTEIGER

@<TRIPOS>ATOM
      1  N          6.2680   12.9270   25.5720 N.3    36  TRP36      -0.1241
      2  CA         6.1600   12.9530   24.1260 C.3    36  TRP36       0.1605
      3  C          5.1420   13.9690   23.6860 C.2    36  TRP36       0.2264
      4  O          4.0990   14.1990   24.3610 O.2    36  TRP36      -0.2867
      5  CB         5.6020   11.5780   23.6410 C.3    36  TRP36       0.0550
      6  CG         5.4990   11.4310   22.1890 C.ar   36  TRP36       0.0003
      7  CD1        6.5040   10.9620   21.3740 C.ar   36  TRP36       0.0946
      8  CD2        4.4000   11.7440   21.2980 C.ar   36  TRP36       0.0152
      9  NE1        6.1230   10.9500   20.0810 N.ar   36  TRP36      -0.2442
     10  CE2        4.8420   11.4160   19.9930 C.ar   36  TRP36       0.0810
     11  CE3        3.0720   12.1820   21.4720 C.ar   36  TRP36       0.0012
     12  CZ2        4.0260   11.5910   18.8950 C.ar   36  TRP36       0.0191
     13  CZ3        2.2830   12.3270   20.3890 C.ar   36  TRP36       0.0001
     14  CH2        2.7470   12.0160   19.1100 C.ar   36  TRP36       0.0015
     15  N          3.4690   15.7640   19.6860 N.3    38  MET38      -0.1230
     16  CA         3.3410   15.6050   18.2310 C.3    38  MET38       0.1702
     17  C          4.0090   16.7270   17.4330 C.2    38  MET38       0.2592
     18  O          3.4970   17.1730   16.4090 O.2    38  MET38      -0.2718
     19  CB         1.8970   15.3910   17.8480 C.3    38  MET38       0.0401
     20  CG         0.9810   16.5370   18.1430 C.3    38  MET38       0.0596
     21  SD        -0.6710   16.2580   17.5070 S.3    38  MET38      -0.1393
     22  CE        -1.5980   17.5380   18.3390 C.3    38  MET38       0.0692
     23  N          5.2010   17.1720   17.8580 N.am   39  ASN39      -0.1974
     24  CA         6.0150   18.0510   17.0510 C.3    39  ASN39       0.1688
     25  C          6.6670   17.2350   15.9560 C.2    39  ASN39       0.2292
     26  O          6.8800   16.0640   16.1290 O.2    39  ASN39      -0.2864
     27  CB         7.1350   18.6540   17.9110 C.3    39  ASN39       0.1181
     28  CG         6.6730   19.3050   19.1910 C.2    39  ASN39       0.2629
     29  OD1        7.0880   18.8380   20.3150 O.2    39  ASN39      -0.2716
     30  ND2        5.8450   20.2360   19.1330 N.am   39  ASN39      -0.0877
     31  N         -1.6320   23.3720   10.2150 N.3    64  GLY64      -0.1225
     32  CA        -1.4620   22.7690   11.5100 C.3    64  GLY64       0.1811
     33  C         -0.1640   23.2860   12.1180 C.2    64  GLY64       0.2280
     34  O          0.9080   23.0090   11.6130 O.2    64  GLY64      -0.2866
     35  N          0.3030   23.4000   15.9200 N.3    66  TYR66      -0.1241
     36  CA         0.5520   22.7580   17.1800 C.3    66  TYR66       0.1605
     37  C          1.1600   23.7080   18.1910 C.2    66  TYR66       0.2264
     38  O          0.4920   24.6580   18.6170 O.2    66  TYR66      -0.2867
     39  CB         1.1820   21.3800   17.0870 C.3    66  TYR66       0.0534
     40  CG         1.2100   20.6250   18.4050 C.ar   66  TYR66      -0.0201
     41  CD1        0.0900   20.5540   19.2100 C.ar   66  TYR66      -0.0009
     42  CD2        2.3450   19.9930   18.8450 C.ar   66  TYR66      -0.0009
     43  CE1        0.1160   19.9300   20.4470 C.ar   66  TYR66       0.0417
     44  CE2        2.4110   19.3290   20.0600 C.ar   66  TYR66       0.0417
     45  CZ         1.2630   19.2960   20.8710 C.ar   66  TYR66       0.1957
     46  OH         1.3290   18.6990   22.1100 O.3    66  TYR66      -0.2866
     47  N         -4.1090   27.3060   12.1840 N.3    88  GLU88      -0.1231
     48  CA        -4.3050   26.4720   13.3800 C.3    88  GLU88       0.1699
     49  C         -5.7360   26.6320   13.8730 C.2    88  GLU88       0.2592
     50  O         -6.1070   27.6980   14.3770 O.2    88  GLU88      -0.2718
     51  CB        -3.3330   26.8770   14.4660 C.3    88  GLU88       0.0402
     52  CG        -3.3930   26.0970   15.7520 C.3    88  GLU88       0.1161
     53  CD        -3.4800   24.5930   15.5320 C.2    88  GLU88       0.3649
     54  OE1       -2.4220   24.0020   15.1030 O.co2  88  GLU88      -0.2457
     55  OE2       -4.5790   23.9670   15.7020 O.co2  88  GLU88      -0.2457
     56  N         -6.4800   25.5640   13.8010 N.am   89  MET89      -0.1965
     57  CA        -7.8680   25.6110   14.2040 C.3    89  MET89       0.1736
     58  C         -8.0980   25.5800   15.7250 C.2    89  MET89       0.2616
     59  O         -9.1000   26.0570   16.1860 O.2    89  MET89      -0.2715
     60  CB        -8.5900   24.5100   13.4640 C.3    89  MET89       0.0427
     61  CG        -8.3520   23.2080   13.9680 C.3    89  MET89       0.0599
     62  SD        -9.4660   22.1140   13.0290 S.3    89  MET89      -0.1393
     63  CE       -10.7740   23.1060   12.4310 C.3    89  MET89       0.0692
     64  N         -7.1720   25.0420   16.4820 N.am   90  ASN90      -0.1959
     65  CA        -7.3130   24.9490   17.9370 C.3    90  ASN90       0.1804
     66  C         -6.7730   26.2410   18.5510 C.2    90  ASN90       0.2463
     67  O         -5.6120   26.5660   18.4190 O.2    90  ASN90      -0.2730
     68  CB        -6.5510   23.7370   18.4560 C.3    90  ASN90       0.1195
     69  CG        -6.5370   23.5760   19.9230 C.2    90  ASN90       0.2630
     70  OD1       -6.5130   24.5140   20.6840 O.2    90  ASN90      -0.2716
     71  ND2       -6.5520   22.3620   20.3630 N.am   90  ASN90      -0.0877
     72  N         -7.6300   27.0540   19.1890 N.am   91  PRO91      -0.2727
     73  CA        -7.1980   28.3570   19.7000 C.3    91  PRO91       0.1402
     74  C         -6.1470   28.2550   20.7710 C.2    91  PRO91       0.2269
     75  O         -5.3070   29.1510   20.8820 O.2    91  PRO91      -0.2865
     76  CB        -8.5200   28.9470   20.2850 C.3    91  PRO91       0.0296
     77  CG        -9.4200   27.9050   20.3440 C.3    91  PRO91       0.0237
     78  CD        -9.0660   26.7900   19.4630 C.3    91  PRO91       0.0939
     79  N         -3.7780   25.9350   20.9640 N.3    93  TYR93      -0.1241
     80  CA        -2.5310   25.7070   20.2150 C.3    93  TYR93       0.1605
     81  C         -2.0530   27.0050   19.5010 C.2    93  TYR93       0.2264
     82  O         -0.8430   27.3000   19.4660 O.2    93  TYR93      -0.2867
     83  CB        -2.7250   24.6540   19.1490 C.3    93  TYR93       0.0534
     84  CG        -2.9490   23.2280   19.5800 C.ar   93  TYR93      -0.0201
     85  CD1       -2.9350   22.8530   20.8950 C.ar   93  TYR93      -0.0009
     86  CD2       -3.3000   22.2310   18.6320 C.ar   93  TYR93      -0.0009
     87  CE1       -3.1790   21.5210   21.2940 C.ar   93  TYR93       0.0417
     88  CE2       -3.5450   20.9270   19.0100 C.ar   93  TYR93       0.0417
     89  CZ        -3.4850   20.5840   20.3260 C.ar   93  TYR93       0.1957
     90  OH        -3.7450   19.2630   20.6850 O.3    93  TYR93      -0.2866
     91  N          0.3780   19.2320    8.0710 N.3   139  ASP139     -0.1225
     92  CA         0.6080   18.5890    9.3580 C.3   139  ASP139      0.1805
     93  C         -0.6050   18.7170   10.2570 C.2   139  ASP139      0.2598
     94  O         -0.4630   18.6590   11.4770 O.2   139  ASP139     -0.2718
     95  CB         1.8440   19.1760   10.0310 C.3   139  ASP139      0.1424
     96  CG         2.3770   18.3200   11.1620 C.2   139  ASP139      0.3668
     97  OD1        2.1880   17.0860   11.1500 O.co2 139  ASP139     -0.2456
     98  OD2        3.0430   18.9300   12.0670 O.co2 139  ASP139     -0.2456
     99  N         -1.7910   18.8250    9.6810 N.am  140  HIS140     -0.1961
    100  CA        -3.0500   18.9730   10.4180 C.3   140  HIS140      0.1787
    101  C         -3.7490   17.6270   10.4970 C.2   140  HIS140      0.2620
    102  O         -3.0820   16.5930   10.4370 O.2   140  HIS140     -0.2715
    103  CB        -3.8630   20.1470    9.8760 C.3   140  HIS140      0.0785
    104  CG        -4.2700   20.0310    8.4710 C.ar  140  HIS140      0.0821
    105  ND1       -3.5040   19.4100    7.5160 N.ar  140  HIS140     -0.2267
    106  CD2       -5.3600   20.5400    7.8390 C.ar  140  HIS140      0.1154
    107  CE1       -4.1100   19.5330    6.3550 C.ar  140  HIS140      0.1986
    108  NE2       -5.2510   20.2010    6.5120 N.ar  140  HIS140     -0.2212
    109  N         -5.0410   17.5920   10.6640 N.am  141  TRP141     -0.1960
    110  CA        -5.7040   16.2900   10.7170 C.3   141  TRP141      0.1771
    111  C         -5.4690   15.4920    9.4370 C.2   141  TRP141      0.2619
    112  O         -5.5530   16.0310    8.3400 O.2   141  TRP141     -0.2715
    113  CB        -7.2220   16.4490   10.9170 C.3   141  TRP141      0.0590
    114  CG        -7.7060   16.8810   12.3070 C.ar  141  TRP141      0.0006
    115  CD1       -8.7030   17.7760   12.5310 C.ar  141  TRP141      0.0946
    116  CD2       -7.3410   16.3510   13.6010 C.ar  141  TRP141      0.0152
    117  NE1       -8.9410   17.8890   13.8400 N.ar  141  TRP141     -0.2442
    118  CE2       -8.1470   17.0370   14.5490 C.ar  141  TRP141      0.0810
    119  CE3       -6.4250   15.3960   14.0500 C.ar  141  TRP141      0.0012
    120  CZ2       -8.0890   16.8050   15.9390 C.ar  141  TRP141      0.0191
    121  CZ3       -6.3320   15.1790   15.4530 C.ar  141  TRP141      0.0001
    122  CH2       -7.1700   15.8930   16.3760 C.ar  141  TRP141      0.0015
    123  N         -5.1520   14.2150    9.5580 N.am  142  LYS142     -0.1977
    124  CA        -4.6300   13.4890    8.4200 C.3   142  LYS142      0.1596
    125  C         -5.6780   13.2660    7.3610 C.2   142  LYS142      0.2287
    126  O         -5.3560   13.1930    6.1640 O.2   142  LYS142     -0.2864
    127  CB        -3.9660   12.1930    8.8930 C.3   142  LYS142      0.0298
    128  CG        -2.8870   12.3880   10.0130 C.3   142  LYS142      0.0038
    129  CD        -1.9370   13.5340    9.7650 C.3   142  LYS142      0.0206
    130  CE        -1.2060   13.9360   11.0100 C.3   142  LYS142      0.1093
    131  NZ        -0.6050   15.2890   10.8610 N.3   142  LYS142     -0.1314
    132  N          3.7300   15.6650    6.4380 N.3   167  ASP167     -0.1225
    133  CA         4.1410   14.8600    7.5510 C.3   167  ASP167      0.1805
    134  C          3.2600   13.6730    7.7670 C.2   167  ASP167      0.2597
    135  O          2.0920   13.6580    7.3760 O.2   167  ASP167     -0.2718
    136  CB         4.1630   15.7050    8.8460 C.3   167  ASP167      0.1424
    137  CG         4.9060   15.0470    9.9750 C.2   167  ASP167      0.3668
    138  OD1        5.8200   14.2630    9.7300 O.co2 167  ASP167     -0.2456
    139  OD2        4.6300   15.3460   11.2100 O.co2 167  ASP167     -0.2456
    140  N          3.7940   12.6190    8.3840 N.am  168  ASN168     -0.1974
    141  CA         2.9690   11.5320    8.9370 C.3   168  ASN168      0.1688
    142  C          2.3170   10.7010    7.9050 C.2   168  ASN168      0.2292
    143  O          1.2320   10.1350    8.1060 O.2   168  ASN168     -0.2864
    144  CB         1.9030   12.0500    9.9160 C.3   168  ASN168      0.1181
    145  CG         2.4950   12.8670   11.0110 C.2   168  ASN168      0.2629
    146  OD1        2.1400   14.0430   11.1680 O.2   168  ASN168     -0.2716
    147  ND2        3.3350   12.2620   11.8310 N.am  168  ASN168     -0.0877
    148  N          2.6350    7.1010    9.7610 N.3   171  VAL171     -0.1231
    149  CA         2.0160    7.0860   11.1300 C.3   171  VAL171      0.1678
    150  C          1.6620    8.5430   11.5020 C.2   171  VAL171      0.2434
    151  O          2.5560    9.3480   11.6290 O.2   171  VAL171     -0.2733
    152  CB         2.9430    6.4760   12.2370 C.3   171  VAL171      0.0265
    153  CG1        2.1980    6.3860   13.5570 C.3   171  VAL171      0.0020
    154  CG2        3.4320    5.0870   11.8440 C.3   171  VAL171      0.0020
    155  N          0.3570    8.8630   11.7320 N.am  172  PRO172     -0.2729
    156  CA        -0.7890    7.9800   11.6200 C.3   172  PRO172      0.1401
    157  C         -1.1020    7.4910   10.2380 C.2   172  PRO172      0.2269
    158  O         -1.9200    6.5770   10.0890 O.2   172  PRO172     -0.2865
    159  CB        -1.9200    8.7920   12.1930 C.3   172  PRO172      0.0296
    160  CG        -1.2730    9.7170   13.1670 C.3   172  PRO172      0.0237
    161  CD         0.0090   10.0960   12.4240 C.3   172  PRO172      0.0939
    162  N          8.9990    8.4610   13.3720 N.3   196  LEU196     -0.1231
    163  CA         8.0790    9.2220   14.1740 C.3   196  LEU196      0.1693
    164  C          8.8340   10.0320   15.2160 C.2   196  LEU196      0.2591
    165  O          9.7570    9.5120   15.8410 O.2   196  LEU196     -0.2718
    166  CB         7.1120    8.2380   14.8390 C.3   196  LEU196      0.0284
    167  CG         6.0210    8.8030   15.7340 C.3   196  LEU196      0.0019
    168  CD1        5.0000    9.7180   14.9950 C.3   196  LEU196      0.0001
    169  CD2        5.3230    7.6800   16.4860 C.3   196  LEU196      0.0001
    170  N          8.4320   11.2520   15.4320 N.am  197  GLU197     -0.1979
    171  CA         9.0840   12.1160   16.3870 C.3   197  GLU197      0.1602
    172  C          9.2550   11.3870   17.7280 C.2   197  GLU197      0.2287
    173  O          8.3290   10.8010   18.3180 O.2   197  GLU197     -0.2864
    174  CB         8.2810   13.4170   16.5660 C.3   197  GLU197      0.0415
    175  CG         6.7850   13.2580   16.8430 C.3   197  GLU197      0.1163
    176  CD         5.9210   13.3780   15.6290 C.2   197  GLU197      0.3649
    177  OE1        6.2800   12.9390   14.5300 O.co2 197  GLU197     -0.2457
    178  OE2        4.7820   13.9010   15.7820 O.co2 197  GLU197     -0.2457
@<TRIPOS>BOND
     1   126   125    2
     2   107   108   ar
     3   107   105   ar
     4   132   133    1
     5   108   106   ar
     6   125   124    1
     7   135   134    2
     8   105   104   ar
     9   133   134    1
    10   133   136    1
    11   134   140   am
    12   106   104   ar
    13   142   143    2
    14   142   141    1
    15    91    92    1
    16   112   111    2
    17   140   141    1
    18   124   127    1
    19   124   123    1
    20   104   103    1
    21   136   137    1
    22   127   128    1
    23   141   144    1
    24    92    95    1
    25    92    93    1
    26   111   123   am
    27   111   110    1
    28    99    93   am
    29    99   100    1
    30   138   137   ar
    31   148   149    1
    32   129   128    1
    33   129   130    1
    34   103   100    1
    35   144   145    1
    36   137   139   ar
    37    95    96    1
    38   158   157    2
    39    31    32    1
    40   157   156    1
    41    93    94    2
    42   100   101    1
    43   102   101    2
    44   101   109   am
    45   109   110    1
    46   110   113    1
    47   131   130    1
    48   113   114    1
    49   145   146    2
    50   145   147   am
    51   149   150    1
    52   149   152    1
    53    97    96   ar
    54    96    98   ar
    55   150   151    2
    56   150   155   am
    57    32    33    1
    58    34    33    2
    59   156   155    1
    60   156   159    1
    61   155   161    1
    62   154   152    1
    63    47    48    1
    64   159   160    1
    65   152   153    1
    66   114   115   ar
    67   114   116   ar
    68   161   160    1
    69    63    62    1
    70   115   117   ar
    71    62    61    1
    72   162   163    1
    73    48    49    1
    74    48    51    1
    75    60    61    1
    76    60    57    1
    77   116   119   ar
    78   116   118   ar
    79    56    49   am
    80    56    57    1
    81   117   118   ar
    82    49    50    2
    83   119   121   ar
    84   163   166    1
    85   163   164    1
    86    57    58    1
    87    51    52    1
    88   177   176   ar
    89   118   120   ar
    90   166   167    1
    91   168   167    1
    92    54    53   ar
    93   164   170   am
    94   164   165    2
    95   170   171    1
    96   121   122   ar
    97    53    55   ar
    98    53    52    1
    99   176   178   ar
   100   176   175    1
   101    58    59    2
   102    58    64   am
   103   167   169    1
   104    35    36    1
   105   120   122   ar
   106    25    26    2
   107    25    24    1
   108   171   174    1
   109   171   172    1
   110    18    17    2
   111    64    65    1
   112   174   175    1
   113    24    23    1
   114    24    27    1
   115    39    36    1
   116    39    40    1
   117    36    37    1
   118    17    23   am
   119    17    16    1
   120    21    20    1
   121    21    22    1
   122   172   173    2
   123    19    20    1
   124    19    16    1
   125    27    28    1
   126    65    68    1
   127    65    66    1
   128    37    38    2
   129    16    15    1
   130    40    42   ar
   131    40    41   ar
   132    67    66    2
   133    68    69    1
   134    66    72   am
   135    86    88   ar
   136    86    84   ar
   137    42    44   ar
   138    12    14   ar
   139    12    10   ar
   140    88    89   ar
   141    14    13   ar
   142    30    28   am
   143    83    84    1
   144    83    80    1
   145    72    78    1
   146    72    73    1
   147    28    29    2
   148    41    43   ar
   149    78    77    1
   150    82    81    2
   151    81    80    1
   152    84    85   ar
   153    73    76    1
   154    73    74    1
   155    69    71   am
   156    69    70    2
   157    10     9   ar
   158    10     8   ar
   159    44    45   ar
   160     9     7   ar
   161    80    79    1
   162    76    77    1
   163    89    90    1
   164    89    87   ar
   165    13    11   ar
   166    43    45   ar
   167    74    75    2
   168    45    46    1
   169    85    87   ar
   170     8    11   ar
   171     8     6   ar
   172     7     6   ar
   173     6     5    1
   174     5     2    1
   175     3     2    1
   176     3     4    2
   177     2     1    1
