@<TRIPOS>MOLECULE
tmp/5p9aA00.pdb
 206 202 0 0 0
SMALL
GASTEIGER

@<TRIPOS>ATOM
      1  N          6.2830   12.9160   25.4690 N.3    36  TRP36      -0.1241
      2  CA         6.1830   12.8550   24.0170 C.3    36  TRP36       0.1605
      3  C          5.1810   13.8980   23.5820 C.2    36  TRP36       0.2264
      4  O          4.1810   14.1180   24.2770 O.2    36  TRP36      -0.2867
      5  CB         5.6440   11.4800   23.5890 C.3    36  TRP36       0.0550
      6  CG         5.5530   11.2970   22.0980 C.ar   36  TRP36       0.0003
      7  CD1        6.5370   10.8360   21.2770 C.ar   36  TRP36       0.0946
      8  CD2        4.4310   11.6080   21.2450 C.ar   36  TRP36       0.0152
      9  NE1        6.1090   10.8500   19.9700 N.ar   36  TRP36      -0.2442
     10  CE2        4.8260   11.3260   19.9200 C.ar   36  TRP36       0.0810
     11  CE3        3.1420   12.1360   21.4680 C.ar   36  TRP36       0.0012
     12  CZ2        3.9630   11.4870   18.8310 C.ar   36  TRP36       0.0191
     13  CZ3        2.3020   12.3190   20.3840 C.ar   36  TRP36       0.0001
     14  CH2        2.7110   11.9890   19.0850 C.ar   36  TRP36       0.0015
     15  N          3.4740   15.6810   19.6430 N.3    38  MET38      -0.1245
     16  CA         3.3590   15.5730   18.1900 C.3    38  MET38       0.1570
     17  C          4.0500   16.6570   17.3450 C.2    38  MET38       0.2261
     18  O          3.5490   17.0280   16.2690 O.2    38  MET38      -0.2867
     19  CB         1.9010   15.3650   17.7690 C.3    38  MET38       0.0387
     20  CG         0.9900   16.5070   18.1550 C.3    38  MET38       0.0595
     21  SD        -0.6670   16.1370   17.5430 S.3    38  MET38      -0.1393
     22  CE        -1.5800   17.5210   18.1940 C.3    38  MET38       0.0692
     23  N         -1.6960   23.2290   10.2470 N.3    64  GLY64      -0.1225
     24  CA        -1.5160   22.6250   11.5640 C.3    64  GLY64       0.1811
     25  C         -0.2370   23.1360   12.1990 C.2    64  GLY64       0.2280
     26  O          0.8490   22.8160   11.7220 O.2    64  GLY64      -0.2866
     27  N          0.3440   23.2670   15.8990 N.3    66  TYR66      -0.1241
     28  CA         0.5090   22.6250   17.1920 C.3    66  TYR66       0.1605
     29  C          1.1500   23.6180   18.1800 C.2    66  TYR66       0.2264
     30  O          0.4740   24.5680   18.5820 O.2    66  TYR66      -0.2867
     31  CB         1.2240   21.2490   17.1180 C.3    66  TYR66       0.0534
     32  CG         1.3030   20.5200   18.4420 C.ar   66  TYR66      -0.0201
     33  CD1        0.1910   20.4270   19.2770 C.ar   66  TYR66      -0.0009
     34  CD2        2.4820   19.8970   18.8530 C.ar   66  TYR66      -0.0009
     35  CE1        0.2630   19.7840   20.5070 C.ar   66  TYR66       0.0417
     36  CE2        2.5690   19.2620   20.0940 C.ar   66  TYR66       0.0417
     37  CZ         1.4410   19.1680   20.8970 C.ar   66  TYR66       0.1957
     38  OH         1.4830   18.5210   22.1100 O.3    66  TYR66      -0.2866
     39  N         -1.8760   27.8390    9.6780 N.3    87  MET87      -0.1230
     40  CA        -3.2780   27.7270   10.0730 C.3    87  MET87       0.1702
     41  C         -3.4130   26.7210   11.2010 C.2    87  MET87       0.2592
     42  O         -2.9520   25.5840   11.0700 O.2    87  MET87      -0.2718
     43  CB        -4.1430   27.3270    8.8650 C.3    87  MET87       0.0401
     44  CG        -4.2140   28.3990    7.8070 C.3    87  MET87       0.0596
     45  SD        -4.9640   27.7640    6.3100 S.3    87  MET87      -0.1393
     46  CE        -4.8950   29.2020    5.3370 C.3    87  MET87       0.0692
     47  N         -4.0260   27.1440   12.3190 N.am   88  GLU88      -0.1966
     48  CA        -4.2150   26.3190   13.4960 C.3    88  GLU88       0.1733
     49  C         -5.6540   26.4610   14.0000 C.2    88  GLU88       0.2616
     50  O         -6.0610   27.5450   14.4180 O.2    88  GLU88      -0.2715
     51  CB        -3.1990   26.6960   14.6020 C.3    88  GLU88       0.0429
     52  CG        -3.3150   25.8430   15.8590 C.3    88  GLU88       0.1163
     53  CD        -3.4000   24.3510   15.6070 C.2    88  GLU88       0.3649
     54  OE1       -2.3970   23.7600   15.1440 O.co2  88  GLU88      -0.2457
     55  OE2       -4.4910   23.7770   15.8210 O.co2  88  GLU88      -0.2457
     56  N         -6.4110   25.3660   13.9620 N.am   89  MET89      -0.1963
     57  CA        -7.8030   25.4240   14.3820 C.3    89  MET89       0.1736
     58  C         -8.0180   25.3870   15.8740 C.2    89  MET89       0.2616
     59  O         -9.0150   25.9260   16.3470 O.2    89  MET89      -0.2715
     60  CB        -8.7080   24.4970   13.5630 C.3    89  MET89       0.0427
     61  CG        -8.7670   23.0830   14.0130 C.3    89  MET89       0.0599
     62  SD       -10.0990   22.2800   13.0510 S.3    89  MET89      -0.1393
     63  CE       -10.5390   20.9840   14.1800 C.3    89  MET89       0.0692
     64  N         -7.0480   24.8280   16.6250 N.am   90  ASN90      -0.1972
     65  CA        -7.1350   24.7840   18.0820 C.3    90  ASN90       0.1688
     66  C         -6.6560   26.1340   18.6600 C.2    90  ASN90       0.2292
     67  O         -5.4830   26.4960   18.4860 O.2    90  ASN90      -0.2864
     68  CB        -6.3510   23.5880   18.6330 C.3    90  ASN90       0.1181
     69  CG        -6.4820   23.3880   20.1210 C.2    90  ASN90       0.2629
     70  OD1       -6.2550   24.2920   20.9140 O.2    90  ASN90      -0.2716
     71  ND2       -6.7840   22.1780   20.5330 N.am   90  ASN90      -0.0877
     72  N         -3.6250   25.9090   21.0960 N.3    93  TYR93      -0.1241
     73  CA        -2.4000   25.6160   20.3460 C.3    93  TYR93       0.1605
     74  C         -1.9350   26.8550   19.5910 C.2    93  TYR93       0.2264
     75  O         -0.7340   27.1170   19.5210 O.2    93  TYR93      -0.2867
     76  CB        -2.6570   24.5260   19.3160 C.3    93  TYR93       0.0534
     77  CG        -2.9160   23.1150   19.7990 C.ar   93  TYR93      -0.0201
     78  CD1       -2.8680   22.7920   21.1570 C.ar   93  TYR93      -0.0009
     79  CD2       -3.2310   22.1040   18.8990 C.ar   93  TYR93      -0.0009
     80  CE1       -3.1360   21.4870   21.5980 C.ar   93  TYR93       0.0417
     81  CE2       -3.4810   20.8090   19.3210 C.ar   93  TYR93       0.0417
     82  CZ        -3.4400   20.5040   20.6690 C.ar   93  TYR93       0.1957
     83  OH        -3.6930   19.2060   21.0240 O.3    93  TYR93      -0.2866
     84  N         -7.9730   29.1290   12.9980 N.3   115  GLY115     -0.1210
     85  CA        -9.1720   28.6820   12.2930 C.3   115  GLY115      0.1956
     86  C         -8.9610   27.4060   11.4920 C.2   115  GLY115      0.2612
     87  O         -7.8360   26.9080   11.3990 O.2   115  GLY115     -0.2717
     88  N        -10.0550   26.8730   10.9040 N.am  116  ALA116     -0.1965
     89  CA       -10.0620   25.6490   10.0920 C.3   116  ALA116      0.1728
     90  C         -9.5030   25.9660    8.6990 C.2   116  ALA116      0.2617
     91  O         -9.8480   26.9920    8.1270 O.2   116  ALA116     -0.2715
     92  CB       -11.4770   25.1060    9.9780 C.3   116  ALA116      0.0334
     93  N         -8.6160   25.1070    8.1810 N.am  117  SER117     -0.1936
     94  CA        -7.9560   25.3200    6.8880 C.3   117  SER117      0.2055
     95  C         -8.9780   25.4010    5.7440 C.2   117  SER117      0.2642
     96  O         -8.8260   26.2460    4.8650 O.2   117  SER117     -0.2714
     97  CB        -6.9420   24.2110    6.6290 C.3   117  SER117      0.2130
     98  OG        -7.6080   22.9560    6.6180 O.3   117  SER117     -0.2179
     99  N        -10.0410   24.5610    5.7870 N.am  118  GLN118     -0.1976
    100  CA       -11.0960   24.5680    4.7670 C.3   118  GLN118      0.1601
    101  C        -11.8310   25.9060    4.7180 C.2   118  GLN118      0.2287
    102  O        -12.3310   26.2820    3.6620 O.2   118  GLN118     -0.2864
    103  CB       -12.0910   23.3940    4.9200 C.3   118  GLN118      0.0394
    104  CG       -12.8320   23.3410    6.2560 C.3   118  GLN118      0.0908
    105  CD       -12.2140   22.3470    7.2100 C.2   118  GLN118      0.2608
    106  OE1      -11.0770   22.5020    7.6780 O.2   118  GLN118     -0.2717
    107  NE2      -12.9680   21.3070    7.5290 N.am  118  GLN118     -0.0878
    108  N          0.4100   19.1160    8.0620 N.3   139  ASP139     -0.1225
    109  CA         0.6190   18.5060    9.3680 C.3   139  ASP139      0.1805
    110  C         -0.6110   18.6260   10.2730 C.2   139  ASP139      0.2598
    111  O         -0.4910   18.5860   11.4990 O.2   139  ASP139     -0.2718
    112  CB         1.8570   19.1460   10.0520 C.3   139  ASP139      0.1424
    113  CG         2.4370   18.2850   11.1420 C.2   139  ASP139      0.3668
    114  OD1        2.2390   17.0520   11.0860 O.co2 139  ASP139     -0.2456
    115  OD2        3.0440   18.8490   12.0960 O.co2 139  ASP139     -0.2456
    116  N         -1.7880   18.7530    9.6710 N.am  140  HIS140     -0.1961
    117  CA        -3.0300   18.8940   10.4250 C.3   140  HIS140      0.1787
    118  C         -3.7260   17.5500   10.5010 C.2   140  HIS140      0.2620
    119  O         -3.0090   16.5560   10.4650 O.2   140  HIS140     -0.2715
    120  CB        -3.8910   20.0480    9.8650 C.3   140  HIS140      0.0785
    121  CG        -4.2520   19.9170    8.4110 C.ar  140  HIS140      0.0821
    122  ND1       -3.4510   19.2170    7.5130 N.ar  140  HIS140     -0.2267
    123  CD2       -5.2990   20.4520    7.7400 C.ar  140  HIS140      0.1154
    124  CE1       -4.0480   19.3330    6.3390 C.ar  140  HIS140      0.1986
    125  NE2       -5.1570   20.0840    6.4260 N.ar  140  HIS140     -0.2212
    126  N         -5.0790   17.4830   10.6450 N.am  141  TRP141     -0.1960
    127  CA        -5.8060   16.1980   10.7190 C.3   141  TRP141      0.1771
    128  C         -5.4910   15.4020    9.4680 C.2   141  TRP141      0.2619
    129  O         -5.5040   15.9520    8.3660 O.2   141  TRP141     -0.2715
    130  CB        -7.3330   16.3700   10.8730 C.3   141  TRP141      0.0590
    131  CG        -7.8240   16.8420   12.2150 C.ar  141  TRP141      0.0006
    132  CD1       -8.7950   17.7750   12.4400 C.ar  141  TRP141      0.0946
    133  CD2       -7.4570   16.3280   13.5110 C.ar  141  TRP141      0.0152
    134  NE1       -8.9800   17.9510   13.7930 N.ar  141  TRP141     -0.2442
    135  CE2       -8.1950   17.0540   14.4730 C.ar  141  TRP141      0.0810
    136  CE3       -6.5660   15.3320   13.9530 C.ar  141  TRP141      0.0012
    137  CZ2       -8.0900   16.7990   15.8450 C.ar  141  TRP141      0.0191
    138  CZ3       -6.4270   15.1150   15.3130 C.ar  141  TRP141      0.0001
    139  CH2       -7.1850   15.8360   16.2410 C.ar  141  TRP141      0.0015
    140  N         -5.1130   14.1380    9.6430 N.am  142  LYS142     -0.1977
    141  CA        -4.6460   13.3280    8.5150 C.3   142  LYS142      0.1596
    142  C         -5.6740   13.1450    7.3870 C.2   142  LYS142      0.2287
    143  O         -5.2990   13.1200    6.2150 O.2   142  LYS142     -0.2864
    144  CB        -3.9730   12.0250    8.9910 C.3   142  LYS142      0.0298
    145  CG        -2.8820   12.2030   10.0830 C.3   142  LYS142      0.0038
    146  CD        -1.8790   13.3490    9.8090 C.3   142  LYS142      0.0206
    147  CE        -1.1150   13.7850   11.0450 C.3   142  LYS142      0.1093
    148  NZ        -0.6140   15.1850   10.9100 N.3   142  LYS142     -0.1314
    149  N         -7.5670   15.3850    6.3240 N.3   144  ARG144     -0.1245
    150  CA        -7.7050   16.6740    5.6420 C.3   144  ARG144      0.1563
    151  C         -6.6440   16.9400    4.5800 C.2   144  ARG144      0.2260
    152  O         -6.8230   17.8550    3.7940 O.2   144  ARG144     -0.2867
    153  CB        -7.7910   17.8540    6.6330 C.3   144  ARG144      0.0307
    154  CG        -9.0080   17.8300    7.5870 C.3   144  ARG144      0.0489
    155  CD       -10.3530   17.7790    6.8900 C.3   144  ARG144      0.2205
    156  NE       -10.5180   18.8590    5.9100 N.pl3 144  ARG144     -0.0865
    157  CZ       -11.6020   19.0250    5.1640 C.cat 144  ARG144      0.5346
    158  NH1      -12.6290   18.1950    5.2780 N.pl3 144  ARG144      0.1354
    159  NH2      -11.6770   20.0330    4.3130 N.pl3 144  ARG144      0.1354
    160  N          3.7270   15.6180    6.4090 N.3   167  ASP167     -0.1225
    161  CA         4.2160   14.8430    7.5390 C.3   167  ASP167      0.1805
    162  C          3.2870   13.6450    7.7510 C.2   167  ASP167      0.2597
    163  O          2.1400   13.6760    7.3110 O.2   167  ASP167     -0.2718
    164  CB         4.2620   15.6940    8.8200 C.3   167  ASP167      0.1424
    165  CG         4.9610   15.0070    9.9750 C.2   167  ASP167      0.3668
    166  OD1        5.8160   14.1350    9.7200 O.co2 167  ASP167     -0.2456
    167  OD2        4.6260   15.3040   11.1350 O.co2 167  ASP167     -0.2456
    168  N          3.7920   12.5940    8.4060 N.am  168  ASN168     -0.1974
    169  CA         3.0260   11.4240    8.8600 C.3   168  ASN168      0.1688
    170  C          2.3460   10.5980    7.8070 C.2   168  ASN168      0.2292
    171  O          1.2760   10.0360    8.0720 O.2   168  ASN168     -0.2864
    172  CB         1.9770   11.8940    9.8910 C.3   168  ASN168      0.1181
    173  CG         2.5450   12.7690   10.9680 C.2   168  ASN168      0.2629
    174  OD1        2.1570   13.9260   11.1140 O.2   168  ASN168     -0.2716
    175  ND2        3.4620   12.2320   11.7560 N.am  168  ASN168     -0.0877
    176  N          2.7230    7.1270    9.7080 N.3   171  VAL171     -0.1231
    177  CA         2.0730    7.0920   11.0340 C.3   171  VAL171      0.1678
    178  C          1.6580    8.4990   11.4420 C.2   171  VAL171      0.2434
    179  O          2.5250    9.3640   11.5670 O.2   171  VAL171     -0.2733
    180  CB         2.9100    6.4070   12.1570 C.3   171  VAL171      0.0265
    181  CG1        2.1300    6.3640   13.4790 C.3   171  VAL171      0.0020
    182  CG2        3.3150    4.9980   11.7660 C.3   171  VAL171      0.0020
    183  N          0.3580    8.7460   11.6970 N.am  172  PRO172     -0.2729
    184  CA        -0.7960    7.8060   11.6160 C.3   172  PRO172      0.1401
    185  C         -1.1560    7.3480   10.1950 C.2   172  PRO172      0.2269
    186  O         -1.9320    6.4150   10.0280 O.2   172  PRO172     -0.2865
    187  CB        -1.9430    8.5950   12.2900 C.3   172  PRO172      0.0296
    188  CG        -1.2760    9.7120   13.0680 C.3   172  PRO172      0.0237
    189  CD        -0.0670   10.0590   12.2160 C.3   172  PRO172      0.0939
    190  N          8.9880    8.3520   13.3740 N.3   196  LEU196     -0.1231
    191  CA         8.0240    9.1540   14.1170 C.3   196  LEU196      0.1693
    192  C          8.8330    9.9040   15.1670 C.2   196  LEU196      0.2591
    193  O          9.8030    9.3510   15.6980 O.2   196  LEU196     -0.2718
    194  CB         6.9860    8.2270   14.7720 C.3   196  LEU196      0.0284
    195  CG         5.9110    8.8710   15.6760 C.3   196  LEU196      0.0019
    196  CD1        5.0030    9.8470   14.8930 C.3   196  LEU196      0.0001
    197  CD2        5.0860    7.8060   16.3920 C.3   196  LEU196      0.0001
    198  N          8.4770   11.1620   15.3930 N.am  197  GLU197     -0.1979
    199  CA         9.0940   12.0720   16.3490 C.3   197  GLU197      0.1602
    200  C          9.2490   11.4180   17.7070 C.2   197  GLU197      0.2287
    201  O          8.2730   10.8760   18.2510 O.2   197  GLU197     -0.2864
    202  CB         8.2790   13.3790   16.4880 C.3   197  GLU197      0.0415
    203  CG         6.7830   13.1960   16.7900 C.3   197  GLU197      0.1163
    204  CD         5.8780   13.3190   15.5740 C.2   197  GLU197      0.3649
    205  OE1        6.2900   12.9280   14.4590 O.co2 197  GLU197     -0.2457
    206  OE2        4.7630   13.8540   15.7360 O.co2 197  GLU197     -0.2457
@<TRIPOS>BOND
     1   102   101    2
     2   152   151    2
     3   159   157    1
     4   151   150    1
     5   101   100    1
     6   100   103    1
     7   100    99    1
     8    96    95    2
     9   103   104    1
    10   157   158    1
    11   157   156    2
    12    46    45    1
    13   150   149    1
    14   150   153    1
    15    95    99   am
    16    95    94    1
    17   156   155    1
    18   143   142    2
    19   104   105    1
    20    45    44    1
    21   124   125   ar
    22   124   122   ar
    23   160   161    1
    24   125   123   ar
    25    98    97    1
    26    97    94    1
    27   153   154    1
    28    94    93    1
    29   155   154    1
    30   105   107   am
    31   105   106    2
    32   163   162    2
    33   142   141    1
    34   122   121   ar
    35   161   162    1
    36   161   164    1
    37   123   121   ar
    38   162   168   am
    39   170   171    2
    40   170   169    1
    41    44    43    1
    42   108   109    1
    43    91    90    2
    44    93    90   am
    45   129   128    2
    46   168   169    1
    47   121   120    1
    48   141   144    1
    49   141   140    1
    50    90    89    1
    51   164   165    1
    52   169   172    1
    53    43    40    1
    54   144   145    1
    55   109   112    1
    56   109   110    1
    57   128   140   am
    58   128   127    1
    59   116   110   am
    60   116   117    1
    61    39    40    1
    62   176   177    1
    63   166   165   ar
    64   146   145    1
    65   146   147    1
    66   120   117    1
    67   172   173    1
    68   165   167   ar
    69    92    89    1
    70   186   185    2
    71   112   113    1
    72    40    41    1
    73    89    88    1
    74   185   184    1
    75    23    24    1
    76   110   111    2
    77   117   118    1
    78   119   118    2
    79   118   126   am
    80   126   127    1
    81   127   130    1
    82   130   131    1
    83    88    86   am
    84   148   147    1
    85   173   174    2
    86   173   175   am
    87   177   178    1
    88   177   180    1
    89    42    41    2
    90   114   113   ar
    91   113   115   ar
    92    41    47   am
    93    87    86    2
    94   178   179    2
    95   178   183   am
    96    86    85    1
    97    24    25    1
    98   184   183    1
    99   184   187    1
   100   183   189    1
   101    26    25    2
   102   182   180    1
   103   180   181    1
   104   131   132   ar
   105   131   133   ar
   106   189   188    1
   107   187   188    1
   108    85    84    1
   109    47    48    1
   110   132   134   ar
   111    62    61    1
   112    62    63    1
   113   190   191    1
   114    48    49    1
   115    48    51    1
   116   133   136   ar
   117   133   135   ar
   118    60    61    1
   119    60    57    1
   120   134   135   ar
   121   136   138   ar
   122    56    49   am
   123    56    57    1
   124    49    50    2
   125   191   194    1
   126   191   192    1
   127    57    58    1
   128   205   204   ar
   129   135   137   ar
   130    51    52    1
   131   194   195    1
   132   196   195    1
   133    54    53   ar
   134   192   198   am
   135   192   193    2
   136   138   139   ar
   137   198   199    1
   138   204   206   ar
   139   204   203    1
   140    53    55   ar
   141    53    52    1
   142   195   197    1
   143   137   139   ar
   144    58    59    2
   145    58    64   am
   146    27    28    1
   147    18    17    2
   148   199   202    1
   149   199   200    1
   150   202   203    1
   151    64    65    1
   152    31    28    1
   153    31    32    1
   154    28    29    1
   155    17    16    1
   156    21    20    1
   157    21    22    1
   158   200   201    2
   159    19    20    1
   160    19    16    1
   161    65    68    1
   162    65    66    1
   163    29    30    2
   164    16    15    1
   165    32    34   ar
   166    32    33   ar
   167    67    66    2
   168    68    69    1
   169    12    14   ar
   170    12    10   ar
   171    34    36   ar
   172    79    81   ar
   173    79    77   ar
   174    14    13   ar
   175    33    35   ar
   176    76    77    1
   177    76    73    1
   178    81    82   ar
   179    75    74    2
   180    74    73    1
   181    77    78   ar
   182    10     9   ar
   183    10     8   ar
   184     9     7   ar
   185    36    37   ar
   186    69    71   am
   187    69    70    2
   188    73    72    1
   189    13    11   ar
   190    35    37   ar
   191    82    83    1
   192    82    80   ar
   193    37    38    1
   194    78    80   ar
   195     8    11   ar
   196     8     6   ar
   197     7     6   ar
   198     6     5    1
   199     3     2    1
   200     3     4    2
   201     5     2    1
   202     2     1    1
