@<TRIPOS>MOLECULE
tmp/5p9bA00.pdb
 171 169 0 0 0
SMALL
GASTEIGER

@<TRIPOS>ATOM
      1  N          6.4020   12.7510   25.4630 N.3    37  TRP37      -0.1241
      2  CA         6.2120   12.8060   24.0110 C.3    37  TRP37       0.1605
      3  C          5.2850   13.8830   23.6110 C.2    37  TRP37       0.2264
      4  O          4.3000   14.1310   24.3090 O.2    37  TRP37      -0.2867
      5  CB         5.6390   11.4430   23.5560 C.3    37  TRP37       0.0550
      6  CG         5.5490   11.2900   22.0810 C.ar   37  TRP37       0.0003
      7  CD1        6.5550   10.8520   21.2560 C.ar   37  TRP37       0.0946
      8  CD2        4.4380   11.6170   21.2080 C.ar   37  TRP37       0.0152
      9  NE1        6.1150   10.8570   19.9630 N.ar   37  TRP37      -0.2442
     10  CE2        4.8350   11.3340   19.8870 C.ar   37  TRP37       0.0810
     11  CE3        3.1720   12.1710   21.4310 C.ar   37  TRP37       0.0012
     12  CZ2        3.9750   11.4930   18.7780 C.ar   37  TRP37       0.0191
     13  CZ3        2.3140   12.2970   20.3480 C.ar   37  TRP37       0.0001
     14  CH2        2.7210   11.9880   19.0370 C.ar   37  TRP37       0.0015
     15  N          3.5240   15.6340   19.6280 N.3    39  MET39      -0.1230
     16  CA         3.4080   15.4300   18.1770 C.3    39  MET39       0.1702
     17  C          4.0750   16.5940   17.3710 C.2    39  MET39       0.2592
     18  O          3.5960   17.0270   16.3430 O.2    39  MET39      -0.2718
     19  CB         1.9420   15.2640   17.7930 C.3    39  MET39       0.0401
     20  CG         1.0590   16.4490   18.1690 C.3    39  MET39       0.0596
     21  SD        -0.6020   16.1520   17.5120 S.3    39  MET39      -0.1393
     22  CE        -1.5300   17.4430   18.4210 C.3    39  MET39       0.0692
     23  N          5.2340   17.0370   17.8060 N.am   40  ASN40      -0.1974
     24  CA         6.0770   17.9560   16.9930 C.3    40  ASN40       0.1688
     25  C          6.7200   17.1310   15.8900 C.2    40  ASN40       0.2292
     26  O          6.9280   15.9250   16.0760 O.2    40  ASN40      -0.2864
     27  CB         7.2080   18.5890   17.8370 C.3    40  ASN40       0.1181
     28  CG         6.7310   19.1750   19.1090 C.2    40  ASN40       0.2629
     29  OD1        7.1370   18.7000   20.2240 O.2    40  ASN40      -0.2716
     30  ND2        5.9290   20.2090   19.0410 N.am   40  ASN40      -0.0877
     31  N         -1.6740   23.2250   10.2320 N.3    65  GLY65      -0.1225
     32  CA        -1.4210   22.6210   11.5190 C.3    65  GLY65       0.1811
     33  C         -0.1270   23.0800   12.0940 C.2    65  GLY65       0.2280
     34  O          0.9210   22.7790   11.5350 O.2    65  GLY65      -0.2866
     35  N          0.3770   23.2210   15.8500 N.3    67  TYR67      -0.1241
     36  CA         0.5850   22.6190   17.1150 C.3    67  TYR67       0.1605
     37  C          1.1940   23.5340   18.1460 C.2    67  TYR67       0.2264
     38  O          0.4880   24.4790   18.5630 O.2    67  TYR67      -0.2867
     39  CB         1.1670   21.1860   17.0460 C.3    67  TYR67       0.0534
     40  CG         1.2340   20.4940   18.3670 C.ar   67  TYR67      -0.0201
     41  CD1        0.1310   20.4460   19.1570 C.ar   67  TYR67      -0.0009
     42  CD2        2.3820   19.8630   18.8090 C.ar   67  TYR67      -0.0009
     43  CE1        0.1750   19.8030   20.4220 C.ar   67  TYR67       0.0417
     44  CE2        2.4690   19.2430   20.0430 C.ar   67  TYR67       0.0417
     45  CZ         1.3350   19.1450   20.8110 C.ar   67  TYR67       0.1957
     46  OH         1.4990   18.5690   22.0750 O.3    67  TYR67      -0.2866
     47  N         -3.9340   27.1790   12.2200 N.3    89  GLU89      -0.1231
     48  CA        -4.1090   26.3450   13.4200 C.3    89  GLU89       0.1699
     49  C         -5.5350   26.5260   13.9440 C.2    89  GLU89       0.2592
     50  O         -5.7960   27.5750   14.6150 O.2    89  GLU89      -0.2718
     51  CB        -3.0640   26.6820   14.4690 C.3    89  GLU89       0.0402
     52  CG        -3.1910   25.8800   15.7500 C.3    89  GLU89       0.1161
     53  CD        -3.3670   24.4090   15.4910 C.2    89  GLU89       0.3649
     54  OE1       -2.3610   23.7830   15.0760 O.co2  89  GLU89      -0.2457
     55  OE2       -4.5130   23.8390   15.5870 O.co2  89  GLU89      -0.2457
     56  N         -6.3930   25.5540   13.7730 N.am   90  MET90      -0.1965
     57  CA        -7.7520   25.7330   14.1950 C.3    90  MET90       0.1736
     58  C         -7.9790   25.5890   15.6990 C.2    90  MET90       0.2616
     59  O         -8.9960   26.0790   16.2030 O.2    90  MET90      -0.2715
     60  CB        -8.6460   24.8420   13.3820 C.3    90  MET90       0.0427
     61  CG        -8.6050   23.5750   13.7180 C.3    90  MET90       0.0599
     62  SD        -9.9760   22.8050   12.6290 S.3    90  MET90      -0.1393
     63  CE       -11.4400   23.7610   13.0240 C.3    90  MET90       0.0692
     64  N         -7.0590   24.9360   16.4350 N.am   91  ASN91      -0.1972
     65  CA        -7.1910   24.8230   17.8530 C.3    91  ASN91       0.1688
     66  C         -6.6990   26.0870   18.5180 C.2    91  ASN91       0.2292
     67  O         -5.5370   26.4400   18.3830 O.2    91  ASN91      -0.2864
     68  CB        -6.3940   23.5960   18.3110 C.3    91  ASN91       0.1181
     69  CG        -6.4680   23.3340   19.7670 C.2    91  ASN91       0.2629
     70  OD1       -6.2860   24.2190   20.5920 O.2    91  ASN91      -0.2716
     71  ND2       -6.7100   22.0830   20.1600 N.am   91  ASN91      -0.0877
     72  N         -3.7220   25.7270   20.9260 N.3    94  TYR94      -0.1241
     73  CA        -2.4840   25.5120   20.1520 C.3    94  TYR94       0.1605
     74  C         -2.0440   26.8100   19.4630 C.2    94  TYR94       0.2264
     75  O         -0.8390   27.0650   19.4120 O.2    94  TYR94      -0.2867
     76  CB        -2.6720   24.4470   19.1130 C.3    94  TYR94       0.0534
     77  CG        -2.9400   23.0170   19.5420 C.ar   94  TYR94      -0.0201
     78  CD1       -2.8890   22.5970   20.8260 C.ar   94  TYR94      -0.0009
     79  CD2       -3.2410   22.0640   18.5770 C.ar   94  TYR94      -0.0009
     80  CE1       -3.1730   21.2840   21.1820 C.ar   94  TYR94       0.0417
     81  CE2       -3.4430   20.7530   18.9250 C.ar   94  TYR94       0.0417
     82  CZ        -3.4200   20.4040   20.1670 C.ar   94  TYR94       0.1957
     83  OH        -3.6680   19.0930   20.5570 O.3    94  TYR94      -0.2866
     84  N          0.3390   19.1040    8.0720 N.3   140  ASP140     -0.1225
     85  CA         0.6110   18.4860    9.3690 C.3   140  ASP140      0.1805
     86  C         -0.6240   18.6030   10.2820 C.2   140  ASP140      0.2598
     87  O         -0.4420   18.5720   11.4860 O.2   140  ASP140     -0.2718
     88  CB         1.8500   19.1010   10.0320 C.3   140  ASP140      0.1424
     89  CG         2.3930   18.2750   11.1350 C.2   140  ASP140      0.3668
     90  OD1        2.1960   17.0490   11.1410 O.co2 140  ASP140     -0.2456
     91  OD2        3.0880   18.8310   12.0260 O.co2 140  ASP140     -0.2456
     92  N         -1.8090   18.7110    9.7080 N.am  141  HIS141     -0.1961
     93  CA        -3.0400   18.8790   10.4650 C.3   141  HIS141      0.1787
     94  C         -3.7100   17.5100   10.5420 C.2   141  HIS141      0.2620
     95  O         -3.0510   16.4670   10.4570 O.2   141  HIS141     -0.2715
     96  CB        -3.8580   20.0460    9.9160 C.3   141  HIS141      0.0785
     97  CG        -4.2490   19.9380    8.4780 C.ar  141  HIS141      0.0821
     98  ND1       -3.4730   19.3220    7.5120 N.ar  141  HIS141     -0.2267
     99  CD2       -5.3200   20.4560    7.8320 C.ar  141  HIS141      0.1154
    100  CE1       -4.0930   19.4220    6.3430 C.ar  141  HIS141      0.1986
    101  NE2       -5.2300   20.0960    6.5260 N.ar  141  HIS141     -0.2212
    102  N         -5.0180   17.4430   10.6930 N.am  142  TRP142     -0.1960
    103  CA        -5.7090   16.2170   10.7250 C.3   142  TRP142      0.1771
    104  C         -5.4800   15.4540    9.4450 C.2   142  TRP142      0.2619
    105  O         -5.5690   15.9870    8.3660 O.2   142  TRP142     -0.2715
    106  CB        -7.2170   16.4510   10.9800 C.3   142  TRP142      0.0590
    107  CG        -7.6120   16.6960   12.4240 C.ar  142  TRP142      0.0006
    108  CD1       -7.0510   16.1530   13.5030 C.ar  142  TRP142      0.0946
    109  CD2       -8.7970   17.3500   12.8690 C.ar  142  TRP142      0.0152
    110  NE1       -7.7170   16.5380   14.6650 N.ar  142  TRP142     -0.2442
    111  CE2       -8.8150   17.2580   14.2810 C.ar  142  TRP142      0.0810
    112  CE3       -9.8400   18.0390   12.2230 C.ar  142  TRP142      0.0012
    113  CZ2       -9.8800   17.7840   15.0680 C.ar  142  TRP142      0.0191
    114  CZ3      -10.8910   18.5700   13.0260 C.ar  142  TRP142      0.0001
    115  CH2      -10.8710   18.4680   14.4000 C.ar  142  TRP142      0.0015
    116  N         -5.1340   14.1600    9.5980 N.am  143  LYS143     -0.1977
    117  CA        -4.6520   13.3930    8.4570 C.3   143  LYS143      0.1596
    118  C         -5.6790   13.1830    7.3840 C.2   143  LYS143      0.2287
    119  O         -5.3260   13.1010    6.1890 O.2   143  LYS143     -0.2864
    120  CB        -4.0090   12.0860    8.8860 C.3   143  LYS143      0.0298
    121  CG        -2.8970   12.2080   10.0200 C.3   143  LYS143      0.0038
    122  CD        -1.9390   13.4030    9.7440 C.3   143  LYS143      0.0206
    123  CE        -1.1940   13.8260   11.0140 C.3   143  LYS143      0.1093
    124  NZ        -0.5970   15.1970   10.8390 N.3   143  LYS143     -0.1314
    125  N          3.6740   15.5610    6.3780 N.3   168  ASP168     -0.1225
    126  CA         4.1330   14.7750    7.5750 C.3   168  ASP168      0.1805
    127  C          3.2390   13.5920    7.7430 C.2   168  ASP168      0.2597
    128  O          2.0380   13.5900    7.3360 O.2   168  ASP168     -0.2718
    129  CB         4.1200   15.5920    8.8670 C.3   168  ASP168      0.1424
    130  CG         4.9110   14.9380    9.9380 C.2   168  ASP168      0.3668
    131  OD1        5.7940   14.1170    9.6620 O.co2 168  ASP168     -0.2456
    132  OD2        4.6120   15.2450   11.1030 O.co2 168  ASP168     -0.2456
    133  N          3.7740   12.5480    8.3780 N.am  169  ASN169     -0.1974
    134  CA         2.9400   11.4550    8.8910 C.3   169  ASN169      0.1688
    135  C          2.2860   10.6080    7.8520 C.2   169  ASN169      0.2292
    136  O          1.2280   10.0470    8.0860 O.2   169  ASN169     -0.2864
    137  CB         1.8960   11.9340    9.8510 C.3   169  ASN169      0.1181
    138  CG         2.4530   12.7650   10.9860 C.2   169  ASN169      0.2629
    139  OD1        2.1030   13.9780   11.1590 O.2   169  ASN169     -0.2716
    140  ND2        3.3540   12.1900   11.7820 N.am  169  ASN169     -0.0877
    141  N          2.6030    7.0790    9.6860 N.3   172  VAL172     -0.1231
    142  CA         1.9420    7.0230   10.9850 C.3   172  VAL172      0.1678
    143  C          1.6230    8.4350   11.4380 C.2   172  VAL172      0.2434
    144  O          2.5640    9.2390   11.5900 O.2   172  VAL172     -0.2733
    145  CB         2.8620    6.3890   12.0710 C.3   172  VAL172      0.0265
    146  CG1        2.1360    6.4420   13.4460 C.3   172  VAL172      0.0020
    147  CG2        3.2850    4.9800   11.7670 C.3   172  VAL172      0.0020
    148  N          0.3350    8.7610   11.7120 N.am  173  PRO173     -0.2729
    149  CA        -0.8370    7.8860   11.6180 C.3   173  PRO173      0.1401
    150  C         -1.1690    7.4440   10.2040 C.2   173  PRO173      0.2269
    151  O         -1.9720    6.4910   10.0550 O.2   173  PRO173     -0.2865
    152  CB        -1.9660    8.7690   12.1960 C.3   173  PRO173      0.0296
    153  CG        -1.2840    9.6320   13.1160 C.3   173  PRO173      0.0237
    154  CD         0.0130   10.0080   12.4020 C.3   173  PRO173      0.0939
    155  N          8.9570    8.3560   13.2960 N.3   197  LEU197     -0.1231
    156  CA         8.0040    9.1250   14.0520 C.3   197  LEU197      0.1693
    157  C          8.7960    9.9310   15.1070 C.2   197  LEU197      0.2591
    158  O          9.7330    9.4170   15.7580 O.2   197  LEU197     -0.2718
    159  CB         7.0610    8.1780   14.7360 C.3   197  LEU197      0.0284
    160  CG         5.9920    8.7780   15.6100 C.3   197  LEU197      0.0019
    161  CD1        5.0590    9.6740   14.8170 C.3   197  LEU197      0.0001
    162  CD2        5.2300    7.6280   16.3820 C.3   197  LEU197      0.0001
    163  N          8.4050   11.1800   15.3460 N.am  198  GLU198     -0.1979
    164  CA         9.0520   12.0380   16.3310 C.3   198  GLU198      0.1602
    165  C          9.2350   11.2920   17.6600 C.2   198  GLU198      0.2287
    166  O          8.3080   10.6970   18.2030 O.2   198  GLU198     -0.2864
    167  CB         8.2910   13.3470   16.5000 C.3   198  GLU198      0.0415
    168  CG         6.7740   13.0910   16.8020 C.3   198  GLU198      0.1163
    169  CD         5.8900   13.2770   15.5990 C.2   198  GLU198      0.3649
    170  OE1        6.3140   12.8970   14.4690 O.co2 198  GLU198     -0.2457
    171  OE2        4.7510   13.8210   15.7050 O.co2 198  GLU198     -0.2457
@<TRIPOS>BOND
     1   119   118    2
     2   100   101   ar
     3   100    98   ar
     4   125   126    1
     5   101    99   ar
     6   128   127    2
     7   118   117    1
     8    98    97   ar
     9   126   127    1
    10   126   129    1
    11   127   133   am
    12    99    97   ar
    13   135   136    2
    14   135   134    1
    15    84    85    1
    16   105   104    2
    17   133   134    1
    18   117   120    1
    19   117   116    1
    20    97    96    1
    21   129   130    1
    22   120   121    1
    23   134   137    1
    24    85    88    1
    25    85    86    1
    26   104   116   am
    27   104   103    1
    28   131   130   ar
    29   141   142    1
    30    92    86   am
    31    92    93    1
    32   122   121    1
    33   122   123    1
    34   137   138    1
    35    96    93    1
    36   130   132   ar
    37    88    89    1
    38   151   150    2
    39   150   149    1
    40    31    32    1
    41    86    87    2
    42    95    94    2
    43    93    94    1
    44    94   102   am
    45   102   103    1
    46   103   106    1
    47   124   123    1
    48   106   107    1
    49   142   143    1
    50   142   145    1
    51   138   139    2
    52   138   140   am
    53    89    90   ar
    54    89    91   ar
    55   143   144    2
    56   143   148   am
    57    32    33    1
    58    34    33    2
    59   149   148    1
    60   149   152    1
    61   148   154    1
    62   147   145    1
    63   145   146    1
    64   152   153    1
    65    47    48    1
    66   112   109   ar
    67   112   114   ar
    68   154   153    1
    69   107   109   ar
    70   107   108   ar
    71    62    63    1
    72    62    61    1
    73   109   111   ar
    74   114   115   ar
    75   155   156    1
    76    60    61    1
    77    60    57    1
    78    48    49    1
    79    48    51    1
    80   108   110   ar
    81    56    49   am
    82    56    57    1
    83    49    50    2
    84   156   159    1
    85   156   157    1
    86    57    58    1
    87   111   110   ar
    88   111   113   ar
    89   115   113   ar
    90    51    52    1
    91   170   169   ar
    92   159   160    1
    93   161   160    1
    94    54    53   ar
    95   157   163   am
    96   157   158    2
    97   163   164    1
    98    53    55   ar
    99    53    52    1
   100   169   171   ar
   101   169   168    1
   102   160   162    1
   103    58    59    2
   104    58    64   am
   105    35    36    1
   106    25    26    2
   107    25    24    1
   108   164   167    1
   109   164   165    1
   110    18    17    2
   111    64    65    1
   112   167   168    1
   113    24    23    1
   114    24    27    1
   115    39    36    1
   116    39    40    1
   117    36    37    1
   118    17    23   am
   119    17    16    1
   120    21    20    1
   121    21    22    1
   122   165   166    2
   123    19    20    1
   124    19    16    1
   125    27    28    1
   126    65    68    1
   127    65    66    1
   128    37    38    2
   129    16    15    1
   130    68    69    1
   131    40    42   ar
   132    40    41   ar
   133    67    66    2
   134    79    81   ar
   135    79    77   ar
   136    12    14   ar
   137    12    10   ar
   138    42    44   ar
   139    81    82   ar
   140    14    13   ar
   141    30    28   am
   142    28    29    2
   143    76    77    1
   144    76    73    1
   145    41    43   ar
   146    75    74    2
   147    74    73    1
   148    77    78   ar
   149    69    71   am
   150    69    70    2
   151    10     9   ar
   152    10     8   ar
   153     9     7   ar
   154    44    45   ar
   155    73    72    1
   156    82    83    1
   157    82    80   ar
   158    13    11   ar
   159    43    45   ar
   160    45    46    1
   161    78    80   ar
   162     8    11   ar
   163     8     6   ar
   164     7     6   ar
   165     6     5    1
   166     5     2    1
   167     3     2    1
   168     3     4    2
   169     2     1    1
