@<TRIPOS>MOLECULE
tmp/5p9dA00.pdb
 189 185 0 0 0
SMALL
GASTEIGER

@<TRIPOS>ATOM
      1  N          6.1400   12.9240   25.5120 N.3    36  TRP36      -0.1241
      2  CA         6.0690   12.9340   24.0580 C.3    36  TRP36       0.1605
      3  C          5.0580   13.9910   23.6330 C.2    36  TRP36       0.2264
      4  O          4.0250   14.1730   24.2960 O.2    36  TRP36      -0.2867
      5  CB         5.5450   11.5680   23.5700 C.3    36  TRP36       0.0550
      6  CG         5.4850   11.4100   22.0750 C.ar   36  TRP36       0.0003
      7  CD1        6.4850   10.9660   21.2590 C.ar   36  TRP36       0.0946
      8  CD2        4.3660   11.7070   21.2170 C.ar   36  TRP36       0.0152
      9  NE1        6.0690   10.9800   19.9500 N.ar   36  TRP36      -0.2442
     10  CE2        4.7730   11.4330   19.8920 C.ar   36  TRP36       0.0810
     11  CE3        3.0690   12.2060   21.4390 C.ar   36  TRP36       0.0012
     12  CZ2        3.9190   11.6260   18.7890 C.ar   36  TRP36       0.0191
     13  CZ3        2.2130   12.3780   20.3510 C.ar   36  TRP36       0.0001
     14  CH2        2.6380   12.0820   19.0440 C.ar   36  TRP36       0.0015
     15  N          3.3480   15.7250   19.6430 N.3    38  MET38      -0.1230
     16  CA         3.2590   15.6270   18.1920 C.3    38  MET38       0.1702
     17  C          3.9750   16.7460   17.3990 C.2    38  MET38       0.2592
     18  O          3.4550   17.2350   16.4020 O.2    38  MET38      -0.2718
     19  CB         1.8010   15.4000   17.7620 C.3    38  MET38       0.0401
     20  CG         0.8980   16.5600   18.1390 C.3    38  MET38       0.0596
     21  SD        -0.7270   16.3210   17.4230 S.3    38  MET38      -0.1393
     22  CE        -1.6440   17.5850   18.2610 C.3    38  MET38       0.0692
     23  N          5.1790   17.1430   17.8390 N.am   39  ASN39      -0.1974
     24  CA         5.9880   18.0870   17.0520 C.3    39  ASN39       0.1688
     25  C          6.6210   17.2760   15.9390 C.2    39  ASN39       0.2292
     26  O          6.8090   16.0910   16.1220 O.2    39  ASN39      -0.2864
     27  CB         7.1370   18.6520   17.9010 C.3    39  ASN39       0.1181
     28  CG         6.6620   19.2690   19.2040 C.2    39  ASN39       0.2629
     29  OD1        7.0570   18.8420   20.3010 O.2    39  ASN39      -0.2716
     30  ND2        5.7640   20.2040   19.1290 N.am   39  ASN39      -0.0877
     31  N         -0.3060   23.9400    7.3800 N.3    63  LEU63      -0.1231
     32  CA        -1.6190   23.5310    7.8620 C.3    63  LEU63       0.1693
     33  C         -1.3950   22.7550    9.1560 C.2    63  LEU63       0.2592
     34  O         -0.8070   21.6740    9.1170 O.2    63  LEU63      -0.2718
     35  CB        -2.3030   22.6450    6.8020 C.3    63  LEU63       0.0284
     36  CG        -2.4910   23.3310    5.4190 C.3    63  LEU63       0.0019
     37  CD1       -3.2030   22.3980    4.4290 C.3    63  LEU63       0.0001
     38  CD2       -3.2340   24.6480    5.5430 C.3    63  LEU63       0.0001
     39  N         -1.7530   23.3810   10.2820 N.am   64  GLY64      -0.1957
     40  CA        -1.5430   22.7730   11.5890 C.3    64  GLY64       0.1869
     41  C         -0.2540   23.2860   12.1990 C.2    64  GLY64       0.2309
     42  O          0.8190   23.0130   11.6790 O.2    64  GLY64      -0.2863
     43  N          0.2080   23.4410   15.8930 N.3    66  TYR66      -0.1241
     44  CA         0.4480   22.7780   17.1800 C.3    66  TYR66       0.1605
     45  C          1.1020   23.7440   18.1780 C.2    66  TYR66       0.2264
     46  O          0.4210   24.6720   18.6240 O.2    66  TYR66      -0.2867
     47  CB         1.1330   21.3990   17.0790 C.3    66  TYR66       0.0534
     48  CG         1.1550   20.6390   18.3890 C.ar   66  TYR66      -0.0201
     49  CD1        0.0330   20.6040   19.2200 C.ar   66  TYR66      -0.0009
     50  CD2        2.3230   20.0260   18.8410 C.ar   66  TYR66      -0.0009
     51  CE1        0.0700   19.9620   20.4630 C.ar   66  TYR66       0.0417
     52  CE2        2.3600   19.3410   20.0610 C.ar   66  TYR66       0.0417
     53  CZ         1.2240   19.3000   20.8640 C.ar   66  TYR66       0.1957
     54  OH         1.2700   18.6580   22.0870 O.3    66  TYR66      -0.2866
     55  N         -2.0090   27.9520    9.6980 N.3    87  MET87      -0.1230
     56  CA        -3.4140   27.7980   10.0600 C.3    87  MET87       0.1702
     57  C         -3.5770   26.8290   11.2150 C.2    87  MET87       0.2592
     58  O         -3.1160   25.6810   11.1390 O.2    87  MET87      -0.2718
     59  CB        -4.2300   27.3510    8.8390 C.3    87  MET87       0.0401
     60  CG        -4.2200   28.3640    7.7490 C.3    87  MET87       0.0596
     61  SD        -5.1010   27.7970    6.3050 S.3    87  MET87      -0.1393
     62  CE        -4.8770   29.2020    5.2660 C.3    87  MET87       0.0692
     63  N         -4.2430   27.2850   12.2990 N.am   88  GLU88      -0.1966
     64  CA        -4.4060   26.4600   13.4770 C.3    88  GLU88       0.1733
     65  C         -5.8200   26.5740   13.9940 C.2    88  GLU88       0.2616
     66  O         -6.2300   27.6530   14.3940 O.2    88  GLU88      -0.2715
     67  CB        -3.3880   26.8970   14.5540 C.3    88  GLU88       0.0429
     68  CG        -3.4830   26.0880   15.8470 C.3    88  GLU88       0.1163
     69  CD        -3.5200   24.5810   15.6260 C.2    88  GLU88       0.3649
     70  OE1       -2.4830   24.0140   15.2070 O.co2  88  GLU88      -0.2457
     71  OE2       -4.5870   23.9710   15.8740 O.co2  88  GLU88      -0.2457
     72  N         -6.5720   25.4760   13.9770 N.am   89  MET89      -0.1977
     73  CA        -7.9620   25.4980   14.4160 C.3    89  MET89       0.1605
     74  C         -8.1400   25.5570   15.9360 C.2    89  MET89       0.2287
     75  O         -9.2030   26.0010   16.4070 O.2    89  MET89      -0.2864
     76  CB        -8.7050   24.2910   13.8050 C.3    89  MET89       0.0413
     77  CG        -8.2940   22.9550   14.3620 C.3    89  MET89       0.0598
     78  SD        -8.9920   22.4800   15.9670 S.3    89  MET89      -0.1393
     79  CE       -10.7660   22.2990   15.5430 C.3    89  MET89       0.0692
     80  N         -3.7610   26.0320   21.1520 N.3    93  TYR93      -0.1241
     81  CA        -2.4950   25.7680   20.4560 C.3    93  TYR93       0.1605
     82  C         -2.0340   27.0190   19.7200 C.2    93  TYR93       0.2264
     83  O         -0.8320   27.3120   19.6940 O.2    93  TYR93      -0.2867
     84  CB        -2.7220   24.7100   19.3940 C.3    93  TYR93       0.0534
     85  CG        -2.9630   23.2830   19.8370 C.ar   93  TYR93      -0.0201
     86  CD1       -2.9530   22.9330   21.1820 C.ar   93  TYR93      -0.0009
     87  CD2       -3.3010   22.2970   18.9080 C.ar   93  TYR93      -0.0009
     88  CE1       -3.2290   21.6200   21.5900 C.ar   93  TYR93       0.0417
     89  CE2       -3.5100   20.9800   19.2960 C.ar   93  TYR93       0.0417
     90  CZ        -3.4810   20.6450   20.6360 C.ar   93  TYR93       0.1957
     91  OH        -3.7280   19.3410   21.0020 O.3    93  TYR93      -0.2866
     92  N         -8.4960   29.2990   12.8190 N.3   115  GLY115     -0.1225
     93  CA        -9.6870   28.8230   12.1560 C.3   115  GLY115      0.1811
     94  C         -9.4320   27.5390   11.4230 C.2   115  GLY115      0.2280
     95  O         -8.3280   26.9930   11.4700 O.2   115  GLY115     -0.2866
     96  N         -8.8400   25.3050    8.1570 N.3   117  SER117     -0.1217
     97  CA        -8.1730   25.4440    6.8590 C.3   117  SER117      0.1889
     98  C         -9.1810   25.4650    5.7060 C.2   117  SER117      0.2288
     99  O         -8.9910   26.2250    4.7610 O.2   117  SER117     -0.2866
    100  CB        -7.1780   24.3140    6.6450 C.3   117  SER117      0.2089
    101  OG        -7.8590   23.0730    6.6320 O.3   117  SER117     -0.2183
    102  N          0.3360   19.2550    8.0800 N.3   139  ASP139     -0.1225
    103  CA         0.5760   18.6040    9.3570 C.3   139  ASP139      0.1805
    104  C         -0.6500   18.6990   10.2690 C.2   139  ASP139      0.2598
    105  O         -0.5160   18.7100   11.5040 O.2   139  ASP139     -0.2718
    106  CB         1.8110   19.2160   10.0460 C.3   139  ASP139      0.1424
    107  CG         2.2960   18.4170   11.2320 C.2   139  ASP139      0.3668
    108  OD1        2.1650   17.1710   11.2010 O.co2 139  ASP139     -0.2456
    109  OD2        2.9480   19.0210   12.1330 O.co2 139  ASP139     -0.2456
    110  N         -1.8330   18.7770    9.6540 N.am  140  HIS140     -0.1961
    111  CA        -3.0870   18.8770   10.3920 C.3   140  HIS140      0.1787
    112  C         -3.8250   17.5460   10.4170 C.2   140  HIS140      0.2620
    113  O         -3.1520   16.5090   10.4500 O.2   140  HIS140     -0.2715
    114  CB        -3.8920   20.0690    9.8650 C.3   140  HIS140      0.0785
    115  CG        -4.3200   19.9580    8.4240 C.ar  140  HIS140      0.0821
    116  ND1       -3.5150   19.3600    7.4620 N.ar  140  HIS140     -0.2267
    117  CD2       -5.4370   20.4410    7.8270 C.ar  140  HIS140      0.1154
    118  CE1       -4.1920   19.4640    6.3280 C.ar  140  HIS140      0.1986
    119  NE2       -5.3470   20.1160    6.5000 N.ar  140  HIS140     -0.2212
    120  N         -5.1520   17.5480   10.4290 N.am  141  TRP141     -0.1960
    121  CA        -5.9280   16.3070   10.4140 C.3   141  TRP141      0.1771
    122  C         -5.4980   15.5010    9.2060 C.2   141  TRP141      0.2619
    123  O         -5.5350   16.0190    8.0970 O.2   141  TRP141     -0.2715
    124  CB        -7.4280   16.6110   10.2720 C.3   141  TRP141      0.0590
    125  CG        -8.0880   17.1760   11.4930 C.ar  141  TRP141      0.0006
    126  CD1       -8.0130   16.6860   12.7620 C.ar  141  TRP141      0.0946
    127  CD2       -9.0060   18.2800   11.5410 C.ar  141  TRP141      0.0152
    128  NE1       -8.7740   17.4510   13.6100 N.ar  141  TRP141     -0.2442
    129  CE2       -9.4040   18.4320   12.8860 C.ar  141  TRP141      0.0810
    130  CE3       -9.5090   19.1760   10.5820 C.ar  141  TRP141      0.0012
    131  CZ2      -10.2750   19.4460   13.3010 C.ar  141  TRP141      0.0191
    132  CZ3      -10.3830   20.1720   10.9900 C.ar  141  TRP141      0.0001
    133  CH2      -10.7520   20.3060   12.3360 C.ar  141  TRP141      0.0015
    134  N         -5.0910   14.2630    9.4120 N.am  142  LYS142     -0.1977
    135  CA        -4.6310   13.4150    8.3340 C.3   142  LYS142      0.1596
    136  C         -5.6780   13.1700    7.2540 C.2   142  LYS142      0.2287
    137  O         -5.3340   13.0860    6.0750 O.2   142  LYS142     -0.2864
    138  CB        -4.0240   12.1130    8.8840 C.3   142  LYS142      0.0298
    139  CG        -2.9520   12.3080   10.0010 C.3   142  LYS142      0.0038
    140  CD        -1.9350   13.4420    9.6910 C.3   142  LYS142      0.0206
    141  CE        -1.2530   13.9310   10.9530 C.3   142  LYS142      0.1093
    142  NZ        -0.6400   15.2880   10.7890 N.3   142  LYS142     -0.1314
    143  N          3.7090   15.7260    6.4340 N.3   167  ASP167     -0.1225
    144  CA         4.1670   14.9130    7.5510 C.3   167  ASP167      0.1805
    145  C          3.2600   13.6940    7.7360 C.2   167  ASP167      0.2597
    146  O          2.0930   13.6860    7.3320 O.2   167  ASP167     -0.2718
    147  CB         4.1440   15.7550    8.8540 C.3   167  ASP167      0.1424
    148  CG         4.8900   15.0980   10.0090 C.2   167  ASP167      0.3668
    149  OD1        5.7880   14.2830    9.7400 O.co2 167  ASP167     -0.2456
    150  OD2        4.5460   15.3940   11.2020 O.co2 167  ASP167     -0.2456
    151  N          3.7910   12.6670    8.4430 N.am  168  ASN168     -0.1974
    152  CA         2.9920   11.5480    8.9320 C.3   168  ASN168      0.1688
    153  C          2.3320   10.7380    7.8480 C.2   168  ASN168      0.2292
    154  O          1.2410   10.2050    8.0710 O.2   168  ASN168     -0.2864
    155  CB         1.8990   12.0340    9.9130 C.3   168  ASN168      0.1181
    156  CG         2.4250   12.8830   11.0230 C.2   168  ASN168      0.2629
    157  OD1        2.0410   14.0630   11.1670 O.2   168  ASN168     -0.2716
    158  ND2        3.3690   12.3130   11.7890 N.am  168  ASN168     -0.0877
    159  N          2.7470    7.1430    9.6650 N.3   171  VAL171     -0.1231
    160  CA         2.0590    7.1160   10.9560 C.3   171  VAL171      0.1678
    161  C          1.6770    8.5300   11.3900 C.2   171  VAL171      0.2434
    162  O          2.5790    9.3600   11.5770 O.2   171  VAL171     -0.2733
    163  CB         2.9050    6.4310   12.0760 C.3   171  VAL171      0.0265
    164  CG1        2.1470    6.4350   13.4210 C.3   171  VAL171      0.0020
    165  CG2        3.3080    5.0020   11.6940 C.3   171  VAL171      0.0020
    166  N          0.3820    8.7980   11.6680 N.am  172  PRO172     -0.2729
    167  CA        -0.7910    7.9090   11.5760 C.3   172  PRO172      0.1401
    168  C         -1.1180    7.4230   10.1620 C.2   172  PRO172      0.2269
    169  O         -1.8460    6.4390    9.9970 O.2   172  PRO172     -0.2865
    170  CB        -1.9180    8.7630   12.1830 C.3   172  PRO172      0.0296
    171  CG        -1.2140    9.7050   13.0960 C.3   172  PRO172      0.0237
    172  CD         0.0090   10.0730   12.2840 C.3   172  PRO172      0.0939
    173  N          9.0270    8.5480   13.3720 N.3   196  LEU196     -0.1231
    174  CA         8.0470    9.2980   14.1270 C.3   196  LEU196      0.1693
    175  C          8.8120   10.0760   15.1720 C.2   196  LEU196      0.2591
    176  O          9.7640    9.5700   15.7640 O.2   196  LEU196     -0.2718
    177  CB         7.0880    8.3050   14.7830 C.3   196  LEU196      0.0284
    178  CG         5.9920    8.8690   15.6960 C.3   196  LEU196      0.0019
    179  CD1        4.9920    9.7540   14.9110 C.3   196  LEU196      0.0001
    180  CD2        5.2800    7.7270   16.4190 C.3   196  LEU196      0.0001
    181  N          8.4270   11.3270   15.3830 N.am  197  GLU197     -0.1979
    182  CA         9.0580   12.1870   16.3730 C.3   197  GLU197      0.1602
    183  C          9.2280   11.4520   17.6930 C.2   197  GLU197      0.2287
    184  O          8.2820   10.8530   18.2330 O.2   197  GLU197     -0.2864
    185  CB         8.2220   13.4640   16.6000 C.3   197  GLU197      0.0415
    186  CG         6.7200   13.2620   16.8630 C.3   197  GLU197      0.1163
    187  CD         5.8360   13.4050   15.6320 C.2   197  GLU197      0.3649
    188  OE1        6.2430   12.9600   14.5340 O.co2 197  GLU197     -0.2457
    189  OE2        4.7070   13.9170   15.7840 O.co2 197  GLU197     -0.2457
@<TRIPOS>BOND
     1    37    36    1
     2    99    98    2
     3    62    61    1
     4    36    38    1
     5    36    35    1
     6    98    97    1
     7   137   136    2
     8    61    60    1
     9   118   119   ar
    10   118   116   ar
    11   143   144    1
    12   119   117   ar
    13   101   100    1
    14   100    97    1
    15    35    32    1
    16    97    96    1
    17   136   135    1
    18   146   145    2
    19    31    32    1
    20   116   115   ar
    21   144   145    1
    22   144   147    1
    23   145   151   am
    24    60    59    1
    25   117   115   ar
    26   153   154    2
    27   153   152    1
    28    32    33    1
    29   102   103    1
    30   123   122    2
    31   135   138    1
    32   135   134    1
    33   115   114    1
    34   151   152    1
    35    59    56    1
    36   147   148    1
    37   138   139    1
    38   152   155    1
    39    34    33    2
    40    33    39   am
    41   122   134   am
    42   122   121    1
    43   103   106    1
    44   103   104    1
    45   110   104   am
    46   110   111    1
    47   159   160    1
    48   140   139    1
    49   140   141    1
    50    55    56    1
    51   149   148   ar
    52   114   111    1
    53   155   156    1
    54   169   168    2
    55   148   150   ar
    56   106   107    1
    57    56    57    1
    58   168   167    1
    59   104   105    2
    60   124   121    1
    61   124   125    1
    62    39    40    1
    63   111   112    1
    64   121   120    1
    65   112   120   am
    66   112   113    2
    67   130   132   ar
    68   130   127   ar
    69   142   141    1
    70   160   161    1
    71   160   163    1
    72   132   133   ar
    73   156   157    2
    74   156   158   am
    75    58    57    2
    76   108   107   ar
    77    57    63   am
    78   107   109   ar
    79   161   162    2
    80   161   166   am
    81    94    95    2
    82    94    93    1
    83   125   127   ar
    84   125   126   ar
    85   127   129   ar
    86   167   166    1
    87   167   170    1
    88    40    41    1
    89   166   172    1
    90    42    41    2
    91   165   163    1
    92   163   164    1
    93    93    92    1
    94   170   171    1
    95   172   171    1
    96    63    64    1
    97   133   131   ar
    98   126   128   ar
    99   129   131   ar
   100   129   128   ar
   101   173   174    1
   102    64    65    1
   103    64    67    1
   104    76    77    1
   105    76    73    1
   106    72    65   am
   107    72    73    1
   108    65    66    2
   109   174   177    1
   110   174   175    1
   111    77    78    1
   112    73    74    1
   113   188   187   ar
   114    67    68    1
   115   177   178    1
   116   179   178    1
   117   175   181   am
   118   175   176    2
   119    70    69   ar
   120   181   182    1
   121    79    78    1
   122    69    68    1
   123    69    71   ar
   124   187   189   ar
   125   187   186    1
   126   178   180    1
   127    43    44    1
   128    74    75    2
   129    25    26    2
   130    25    24    1
   131   182   185    1
   132   182   183    1
   133    18    17    2
   134   185   186    1
   135    24    23    1
   136    24    27    1
   137    47    44    1
   138    47    48    1
   139    44    45    1
   140    17    23   am
   141    17    16    1
   142    21    20    1
   143    21    22    1
   144   183   184    2
   145    19    20    1
   146    19    16    1
   147    27    28    1
   148    45    46    2
   149    16    15    1
   150    48    50   ar
   151    48    49   ar
   152    12    14   ar
   153    12    10   ar
   154    50    52   ar
   155    87    89   ar
   156    87    85   ar
   157    14    13   ar
   158    30    28   am
   159    28    29    2
   160    49    51   ar
   161    89    90   ar
   162    84    85    1
   163    84    81    1
   164    83    82    2
   165    82    81    1
   166    85    86   ar
   167    10     9   ar
   168    10     8   ar
   169     9     7   ar
   170    52    53   ar
   171    13    11   ar
   172    81    80    1
   173    51    53   ar
   174    90    91    1
   175    90    88   ar
   176    53    54    1
   177    86    88   ar
   178     8    11   ar
   179     8     6   ar
   180     7     6   ar
   181     6     5    1
   182     5     2    1
   183     3     2    1
   184     3     4    2
   185     2     1    1
