@<TRIPOS>MOLECULE
tmp/5p9eA00.pdb
 222 218 0 0 0
SMALL
GASTEIGER

@<TRIPOS>ATOM
      1  N          6.1220   12.7520   25.5020 N.3    37  TRP37      -0.1241
      2  CA         5.9810   12.7360   24.0490 C.3    37  TRP37       0.1605
      3  C          4.9720   13.7860   23.6040 C.2    37  TRP37       0.2264
      4  O          3.9540   13.9950   24.2610 O.2    37  TRP37      -0.2867
      5  CB         5.5100   11.3650   23.5620 C.3    37  TRP37       0.0550
      6  CG         5.4830   11.2420   22.0650 C.ar   37  TRP37       0.0003
      7  CD1        6.4990   10.8100   21.2680 C.ar   37  TRP37       0.0946
      8  CD2        4.3950   11.5680   21.1870 C.ar   37  TRP37       0.0152
      9  NE1        6.1140   10.8360   19.9520 N.ar   37  TRP37      -0.2442
     10  CE2        4.8270   11.2990   19.8720 C.ar   37  TRP37       0.0810
     11  CE3        3.0970   12.0590   21.3850 C.ar   37  TRP37       0.0012
     12  CZ2        4.0070   11.5000   18.7580 C.ar   37  TRP37       0.0191
     13  CZ3        2.2820   12.2570   20.2760 C.ar   37  TRP37       0.0001
     14  CH2        2.7430   11.9780   18.9790 C.ar   37  TRP37       0.0015
     15  N          3.3870   15.6570   19.6400 N.3    39  MET39      -0.1230
     16  CA         3.3130   15.4990   18.1830 C.3    39  MET39       0.1702
     17  C          3.9850   16.6360   17.3980 C.2    39  MET39       0.2592
     18  O          3.4430   17.1240   16.4070 O.2    39  MET39      -0.2718
     19  CB         1.8540   15.3120   17.7370 C.3    39  MET39       0.0401
     20  CG         0.9120   16.4650   18.0710 C.3    39  MET39       0.0596
     21  SD        -0.7850   16.0720   17.6330 S.3    39  MET39      -0.1393
     22  CE        -1.6610   17.4040   18.4490 C.3    39  MET39       0.0692
     23  N          5.1750   17.0410   17.8360 N.am   40  ASN40      -0.1974
     24  CA         6.0130   17.9580   17.0630 C.3    40  ASN40       0.1688
     25  C          6.6800   17.1420   15.9710 C.2    40  ASN40       0.2292
     26  O          6.8890   15.9520   16.1530 O.2    40  ASN40      -0.2864
     27  CB         7.0950   18.5890   17.9380 C.3    40  ASN40       0.1181
     28  CG         6.5450   19.1950   19.2080 C.2    40  ASN40       0.2629
     29  OD1        6.9130   18.7900   20.3140 O.2    40  ASN40      -0.2716
     30  ND2        5.6630   20.1660   19.0620 N.am   40  ASN40      -0.0877
     31  N         -0.2290   23.9370    7.3270 N.3    64  LEU64      -0.1231
     32  CA        -1.5220   23.4880    7.8240 C.3    64  LEU64       0.1693
     33  C         -1.2900   22.7180    9.1180 C.2    64  LEU64       0.2592
     34  O         -0.7250   21.6220    9.1040 O.2    64  LEU64      -0.2718
     35  CB        -2.2230   22.6140    6.7820 C.3    64  LEU64       0.0284
     36  CG        -2.4060   23.2690    5.4090 C.3    64  LEU64       0.0019
     37  CD1       -3.0190   22.2920    4.4160 C.3    64  LEU64       0.0001
     38  CD2       -3.2490   24.5340    5.5120 C.3    64  LEU64       0.0001
     39  N         -1.7130   23.3110   10.2330 N.am   65  GLY65      -0.1957
     40  CA        -1.5070   22.7410   11.5610 C.3    65  GLY65       0.1869
     41  C         -0.2300   23.2690   12.1860 C.2    65  GLY65       0.2309
     42  O          0.8620   22.9920   11.6950 O.2    65  GLY65      -0.2863
     43  N          0.1430   23.3920   15.9650 N.3    67  TYR67      -0.1241
     44  CA         0.3070   22.7480   17.2710 C.3    67  TYR67       0.1605
     45  C          1.0280   23.6720   18.2730 C.2    67  TYR67       0.2264
     46  O          0.4170   24.6300   18.7360 O.2    67  TYR67      -0.2867
     47  CB         0.9500   21.3520   17.1400 C.3    67  TYR67       0.0534
     48  CG         1.0210   20.5820   18.4470 C.ar   67  TYR67      -0.0201
     49  CD1       -0.0840   20.5020   19.2920 C.ar   67  TYR67      -0.0009
     50  CD2        2.1950   19.9430   18.8430 C.ar   67  TYR67      -0.0009
     51  CE1       -0.0230   19.8100   20.4950 C.ar   67  TYR67       0.0417
     52  CE2        2.2670   19.2440   20.0470 C.ar   67  TYR67       0.0417
     53  CZ         1.1520   19.1810   20.8660 C.ar   67  TYR67       0.1957
     54  OH         1.2150   18.4920   22.0580 O.3    67  TYR67      -0.2866
     55  N         -1.9290   27.8620    9.6290 N.3    88  MET88      -0.1230
     56  CA        -3.3430   27.7480    9.9560 C.3    88  MET88       0.1702
     57  C         -3.5310   26.7970   11.1250 C.2    88  MET88       0.2592
     58  O         -3.0650   25.6560   11.0900 O.2    88  MET88      -0.2718
     59  CB        -4.1300   27.2520    8.7490 C.3    88  MET88       0.0401
     60  CG        -4.1610   28.2410    7.6090 C.3    88  MET88       0.0596
     61  SD        -5.0670   27.6120    6.1960 S.3    88  MET88      -0.1393
     62  CE        -4.9600   29.0230    5.0990 C.3    88  MET88       0.0692
     63  N         -4.2200   27.2780   12.1550 N.am   89  GLU89      -0.1966
     64  CA        -4.4530   26.5020   13.3630 C.3    89  GLU89       0.1733
     65  C         -5.8960   26.6710   13.8350 C.2    89  GLU89       0.2616
     66  O         -6.3360   27.7760   14.1510 O.2    89  GLU89      -0.2715
     67  CB        -3.4730   26.9320   14.4570 C.3    89  GLU89       0.0429
     68  CG        -3.6050   26.1580   15.7580 C.3    89  GLU89       0.1163
     69  CD        -3.6210   24.6590   15.5450 C.2    89  GLU89       0.3649
     70  OE1       -2.5750   24.0990   15.1520 O.co2  89  GLU89      -0.2457
     71  OE2       -4.6850   24.0430   15.7610 O.co2  89  GLU89      -0.2457
     72  N         -6.6210   25.5600   13.8770 N.am   90  MET90      -0.1963
     73  CA        -8.0330   25.5480   14.2360 C.3    90  MET90       0.1736
     74  C         -8.2390   25.5660   15.7510 C.2    90  MET90       0.2616
     75  O         -9.2480   26.0740   16.2370 O.2    90  MET90      -0.2715
     76  CB        -8.6820   24.2980   13.6390 C.3    90  MET90       0.0427
     77  CG       -10.1770   24.1980   13.8330 C.3    90  MET90       0.0599
     78  SD       -10.8290   22.8160   12.8890 S.3    90  MET90      -0.1393
     79  CE       -12.5350   22.8090   13.4360 C.3    90  MET90       0.0692
     80  N         -7.2850   25.0040   16.4870 N.am   91  ASN91      -0.1972
     81  CA        -7.3710   24.9070   17.9390 C.3    91  ASN91       0.1688
     82  C         -6.8390   26.1960   18.5750 C.2    91  ASN91       0.2292
     83  O         -5.6470   26.4740   18.4890 O.2    91  ASN91      -0.2864
     84  CB        -6.5720   23.6870   18.4100 C.3    91  ASN91       0.1181
     85  CG        -6.7030   23.4280   19.8970 C.2    91  ASN91       0.2629
     86  OD1       -6.6410   24.3460   20.7100 O.2    91  ASN91      -0.2716
     87  ND2       -6.8640   22.1620   20.2610 N.am   91  ASN91      -0.0877
     88  N         -3.8650   25.8110   20.9610 N.3    94  TYR94      -0.1241
     89  CA        -2.6370   25.5780   20.1960 C.3    94  TYR94       0.1605
     90  C         -2.1300   26.8780   19.5770 C.2    94  TYR94       0.2264
     91  O         -0.9330   27.1570   19.6010 O.2    94  TYR94      -0.2867
     92  CB        -2.8550   24.5580   19.0750 C.3    94  TYR94       0.0534
     93  CG        -3.1410   23.1260   19.4920 C.ar   94  TYR94      -0.0201
     94  CD1       -3.0110   22.6960   20.8140 C.ar   94  TYR94      -0.0009
     95  CD2       -3.5090   22.1870   18.5370 C.ar   94  TYR94      -0.0009
     96  CE1       -3.2730   21.3760   21.1660 C.ar   94  TYR94       0.0417
     97  CE2       -3.7670   20.8710   18.8770 C.ar   94  TYR94       0.0417
     98  CZ        -3.6480   20.4700   20.1890 C.ar   94  TYR94       0.1957
     99  OH        -3.9050   19.1560   20.5160 O.3    94  TYR94      -0.2866
    100  N         -8.6570   29.3340   12.5430 N.3   116  GLY116     -0.1210
    101  CA        -9.8560   28.7330   11.9760 C.3   116  GLY116      0.1956
    102  C         -9.5690   27.4240   11.2770 C.2   116  GLY116      0.2612
    103  O         -8.4370   26.9330   11.2830 O.2   116  GLY116     -0.2717
    104  N        -10.6120   26.8610   10.6770 N.am  117  ALA117     -0.1965
    105  CA       -10.4940   25.6360    9.9010 C.3   117  ALA117      0.1728
    106  C         -9.8200   25.9470    8.5730 C.2   117  ALA117      0.2617
    107  O        -10.1030   26.9730    7.9550 O.2   117  ALA117     -0.2715
    108  CB       -11.8660   25.0280    9.6680 C.3   117  ALA117      0.0334
    109  N         -8.9290   25.0590    8.1420 N.am  118  SER118     -0.1936
    110  CA        -8.2100   25.2400    6.8800 C.3   118  SER118      0.2055
    111  C         -9.1560   25.3470    5.6800 C.2   118  SER118      0.2642
    112  O         -8.8990   26.1180    4.7590 O.2   118  SER118     -0.2714
    113  CB        -7.2060   24.1040    6.6640 C.3   118  SER118      0.2130
    114  OG        -7.8150   22.8420    6.8560 O.3   118  SER118     -0.2179
    115  N        -10.2530   24.5910    5.6990 N.am  119  GLN119     -0.1976
    116  CA       -11.2230   24.6290    4.5960 C.3   119  GLN119      0.1601
    117  C        -11.9470   25.9790    4.4890 C.2   119  GLN119      0.2287
    118  O        -12.4100   26.3550    3.4110 O.2   119  GLN119     -0.2864
    119  CB       -12.2360   23.4750    4.6870 C.3   119  GLN119      0.0394
    120  CG       -13.1730   23.4970    5.8960 C.3   119  GLN119      0.0908
    121  CD       -12.6560   22.6880    7.0730 C.2   119  GLN119      0.2608
    122  OE1      -11.4520   22.6370    7.3320 O.2   119  GLN119     -0.2717
    123  NE2      -13.5710   22.0570    7.8000 N.am  119  GLN119     -0.0878
    124  N          0.4610   19.1920    8.0900 N.3   140  ASP140     -0.1225
    125  CA         0.7030   18.5630    9.3890 C.3   140  ASP140      0.1805
    126  C         -0.4890   18.6990   10.3370 C.2   140  ASP140      0.2598
    127  O         -0.3250   18.7480   11.5580 O.2   140  ASP140     -0.2718
    128  CB         1.9570   19.1720   10.0250 C.3   140  ASP140      0.1424
    129  CG         2.5030   18.3380   11.1710 C.2   140  ASP140      0.3668
    130  OD1        2.2910   17.1030   11.1830 O.co2 140  ASP140     -0.2456
    131  OD2        3.1550   18.9170   12.0660 O.co2 140  ASP140     -0.2456
    132  N         -1.6880   18.7290    9.7650 N.am  141  HIS141     -0.1961
    133  CA        -2.9210   18.8950   10.5380 C.3   141  HIS141      0.1787
    134  C         -3.6630   17.5550   10.5840 C.2   141  HIS141      0.2620
    135  O         -3.0180   16.5040   10.6040 O.2   141  HIS141     -0.2715
    136  CB        -3.7660   20.0610    9.9880 C.3   141  HIS141      0.0785
    137  CG        -4.1690   19.9200    8.5510 C.ar  141  HIS141      0.0821
    138  ND1       -3.3850   19.2900    7.6090 N.ar  141  HIS141     -0.2267
    139  CD2       -5.2560   20.3790    7.8850 C.ar  141  HIS141      0.1154
    140  CE1       -3.9850   19.3400    6.4330 C.ar  141  HIS141      0.1986
    141  NE2       -5.1190   20.0000    6.5730 N.ar  141  HIS141     -0.2212
    142  N         -4.9910   17.5690   10.6360 N.am  142  TRP142     -0.1960
    143  CA        -5.7520   16.3240   10.6340 C.3   142  TRP142      0.1771
    144  C         -5.4120   15.5350    9.3740 C.2   142  TRP142      0.2619
    145  O         -5.4560   16.0690    8.2700 O.2   142  TRP142     -0.2715
    146  CB        -7.2590   16.5960   10.7040 C.3   142  TRP142      0.0590
    147  CG        -7.7420   17.1180   12.0360 C.ar  142  TRP142      0.0006
    148  CD1       -7.1710   16.9110   13.2580 C.ar  142  TRP142      0.0946
    149  CD2       -8.9190   17.8990   12.2730 C.ar  142  TRP142      0.0152
    150  NE1       -7.9080   17.5290   14.2390 N.ar  142  TRP142     -0.2442
    151  CE2       -8.9880   18.1420   13.6610 C.ar  142  TRP142      0.0810
    152  CE3       -9.9190   18.4240   11.4440 C.ar  142  TRP142      0.0012
    153  CZ2      -10.0200   18.8850   14.2430 C.ar  142  TRP142      0.0191
    154  CZ3      -10.9450   19.1650   12.0230 C.ar  142  TRP142      0.0001
    155  CH2      -10.9850   19.3860   13.4090 C.ar  142  TRP142      0.0015
    156  N         -5.0600   14.2650    9.5460 N.am  143  LYS143     -0.1977
    157  CA        -4.5350   13.4620    8.4390 C.3   143  LYS143      0.1596
    158  C         -5.5800   13.2150    7.3510 C.2   143  LYS143      0.2287
    159  O         -5.2340   13.1020    6.1730 O.2   143  LYS143     -0.2864
    160  CB        -3.9450   12.1450    8.9590 C.3   143  LYS143      0.0298
    161  CG        -2.9050   12.3150   10.0860 C.3   143  LYS143      0.0038
    162  CD        -1.8940   13.4400    9.8080 C.3   143  LYS143      0.0206
    163  CE        -1.1400   13.8430   11.0600 C.3   143  LYS143      0.1093
    164  NZ        -0.4890   15.1780   10.9020 N.3   143  LYS143     -0.1314
    165  N         -7.5590   15.4110    6.3420 N.3   145  ARG145     -0.1245
    166  CA        -7.7320   16.6830    5.6380 C.3   145  ARG145      0.1563
    167  C         -6.6450   16.9690    4.5940 C.2   145  ARG145      0.2260
    168  O         -6.7580   17.9350    3.8420 O.2   145  ARG145     -0.2867
    169  CB        -7.7910   17.8420    6.6380 C.3   145  ARG145      0.0307
    170  CG        -9.0340   17.8540    7.5260 C.3   145  ARG145      0.0489
    171  CD       -10.3380   17.9310    6.7300 C.3   145  ARG145      0.2205
    172  NE       -10.3170   18.9590    5.6880 N.pl3 145  ARG145     -0.0865
    173  CZ       -11.3140   19.1880    4.8340 C.cat 145  ARG145      0.5346
    174  NH1      -12.4330   18.4740    4.8910 N.pl3 145  ARG145      0.1354
    175  NH2      -11.1920   20.1430    3.9190 N.pl3 145  ARG145      0.1354
    176  N          3.8060   15.6420    6.4440 N.3   168  ASP168     -0.1225
    177  CA         4.2590   14.8400    7.5810 C.3   168  ASP168      0.1805
    178  C          3.3280   13.6490    7.7840 C.2   168  ASP168      0.2597
    179  O          2.1710   13.6830    7.3690 O.2   168  ASP168     -0.2718
    180  CB         4.2940   15.6940    8.8580 C.3   168  ASP168      0.1424
    181  CG         5.0220   15.0120   10.0090 C.2   168  ASP168      0.3668
    182  OD1        5.8910   14.1610    9.7480 O.co2 168  ASP168     -0.2456
    183  OD2        4.7210   15.3250   11.1850 O.co2 168  ASP168     -0.2456
    184  N          3.8440   12.6000    8.4210 N.am  169  ASN169     -0.1974
    185  CA         3.0210   11.4870    8.9150 C.3   169  ASN169      0.1688
    186  C          2.3280   10.6650    7.8420 C.2   169  ASN169      0.2292
    187  O          1.2370   10.1410    8.0680 O.2   169  ASN169     -0.2864
    188  CB         1.9610   11.9990    9.8930 C.3   169  ASN169      0.1181
    189  CG         2.5460   12.8320   10.9920 C.2   169  ASN169      0.2629
    190  OD1        2.2050   14.0080   11.1450 O.2   169  ASN169     -0.2716
    191  ND2        3.4490   12.2400   11.7630 N.am  169  ASN169     -0.0877
    192  N          2.7100    7.0810    9.6550 N.3   172  VAL172     -0.1231
    193  CA         2.0500    7.0410   10.9660 C.3   172  VAL172      0.1678
    194  C          1.7130    8.4610   11.4310 C.2   172  VAL172      0.2434
    195  O          2.6100    9.2920   11.5510 O.2   172  VAL172     -0.2733
    196  CB         2.9490    6.3850   12.0350 C.3   172  VAL172      0.0265
    197  CG1        2.2280    6.3350   13.3790 C.3   172  VAL172      0.0020
    198  CG2        3.3680    4.9880   11.6020 C.3   172  VAL172      0.0020
    199  N          0.4180    8.7490   11.7020 N.am  173  PRO173     -0.2729
    200  CA        -0.7720    7.8900   11.5920 C.3   173  PRO173      0.1401
    201  C         -1.1340    7.4550   10.1700 C.2   173  PRO173      0.2269
    202  O         -1.9220    6.5260    9.9960 O.2   173  PRO173     -0.2865
    203  CB        -1.8870    8.7680   12.1680 C.3   173  PRO173      0.0296
    204  CG        -1.1950    9.6940   13.0820 C.3   173  PRO173      0.0237
    205  CD         0.0820   10.0150   12.3780 C.3   173  PRO173      0.0939
    206  N          9.0790    8.3810   13.3830 N.3   197  LEU197     -0.1231
    207  CA         8.1110    9.1220   14.1720 C.3   197  LEU197      0.1693
    208  C          8.8630    9.9190   15.2230 C.2   197  LEU197      0.2591
    209  O          9.7910    9.4070   15.8480 O.2   197  LEU197     -0.2718
    210  CB         7.1380    8.1530   14.8460 C.3   197  LEU197      0.0284
    211  CG         6.0240    8.7370   15.7180 C.3   197  LEU197      0.0019
    212  CD1        5.0640    9.5930   14.8990 C.3   197  LEU197      0.0001
    213  CD2        5.2810    7.6130   16.4210 C.3   197  LEU197      0.0001
    214  N          8.4730   11.1750   15.4040 N.am  198  GLU198     -0.1979
    215  CA         9.1150   12.0410   16.3860 C.3   198  GLU198      0.1602
    216  C          9.3220   11.3370   17.7290 C.2   198  GLU198      0.2287
    217  O          8.3860   10.7630   18.2960 O.2   198  GLU198     -0.2864
    218  CB         8.3130   13.3320   16.5840 C.3   198  GLU198      0.0415
    219  CG         6.8170   13.1290   16.8600 C.3   198  GLU198      0.1163
    220  CD         5.9490   13.2810   15.6220 C.2   198  GLU198      0.3649
    221  OE1        6.3690   12.8580   14.5250 O.co2 198  GLU198     -0.2457
    222  OE2        4.8370   13.8280   15.7510 O.co2 198  GLU198     -0.2457
@<TRIPOS>BOND
     1   118   117    2
     2   168   167    2
     3   175   173    1
     4    37    36    1
     5   117   116    1
     6   167   166    1
     7   116   119    1
     8   116   115    1
     9   119   120    1
    10   112   111    2
    11   173   174    1
    12   173   172    2
    13    62    61    1
    14    36    38    1
    15    36    35    1
    16   166   165    1
    17   166   169    1
    18   111   115   am
    19   111   110    1
    20   172   171    1
    21   120   121    1
    22   159   158    2
    23    61    60    1
    24   140   141   ar
    25   140   138   ar
    26   176   177    1
    27   141   139   ar
    28   169   170    1
    29   113   114    1
    30   113   110    1
    31   171   170    1
    32    35    32    1
    33   110   109    1
    34   121   122    2
    35   121   123   am
    36    31    32    1
    37   158   157    1
    38   179   178    2
    39   177   178    1
    40   177   180    1
    41    60    59    1
    42   138   137   ar
    43   178   184   am
    44    32    33    1
    45   186   187    2
    46   186   185    1
    47   139   137   ar
    48   107   106    2
    49   124   125    1
    50   109   106   am
    51   145   144    2
    52   184   185    1
    53   157   160    1
    54   157   156    1
    55   137   136    1
    56   106   105    1
    57    59    56    1
    58   180   181    1
    59   185   188    1
    60   160   161    1
    61    34    33    2
    62    33    39   am
    63   144   156   am
    64   144   143    1
    65   125   128    1
    66   125   126    1
    67    55    56    1
    68   192   193    1
    69   108   105    1
    70   182   181   ar
    71   132   126   am
    72   132   133    1
    73   162   161    1
    74   162   163    1
    75   188   189    1
    76   105   104    1
    77    56    57    1
    78   136   133    1
    79   202   201    2
    80   181   183   ar
    81   128   129    1
    82   201   200    1
    83    39    40    1
    84   126   127    2
    85   133   134    1
    86   134   135    2
    87   134   142   am
    88   143   142    1
    89   143   146    1
    90   104   102   am
    91   146   147    1
    92   164   163    1
    93   193   194    1
    94   193   196    1
    95   189   190    2
    96   189   191   am
    97    58    57    2
    98    57    63   am
    99   129   130   ar
   100   129   131   ar
   101   102   103    2
   102   102   101    1
   103   194   195    2
   104   194   199   am
   105   152   154   ar
   106   152   149   ar
   107    40    41    1
   108   200   199    1
   109   200   203    1
   110   198   196    1
   111    42    41    2
   112   199   205    1
   113   101   100    1
   114   154   155   ar
   115   196   197    1
   116   147   149   ar
   117   147   148   ar
   118    63    64    1
   119   203   204    1
   120   149   151   ar
   121   205   204    1
   122    78    79    1
   123    78    77    1
   124   148   150   ar
   125    64    65    1
   126    64    67    1
   127   206   207    1
   128   155   153   ar
   129    76    77    1
   130    76    73    1
   131   151   150   ar
   132   151   153   ar
   133    65    72   am
   134    65    66    2
   135    72    73    1
   136   207   210    1
   137   207   208    1
   138    73    74    1
   139    67    68    1
   140   221   220   ar
   141   210   211    1
   142   212   211    1
   143    70    69   ar
   144   208   214   am
   145   208   209    2
   146   214   215    1
   147    69    68    1
   148    69    71   ar
   149   220   222   ar
   150   220   219    1
   151   211   213    1
   152    74    75    2
   153    74    80   am
   154    43    44    1
   155    25    26    2
   156    25    24    1
   157   215   218    1
   158   215   216    1
   159    18    17    2
   160    80    81    1
   161   218   219    1
   162    24    23    1
   163    24    27    1
   164    47    44    1
   165    47    48    1
   166    44    45    1
   167    17    23   am
   168    17    16    1
   169    21    20    1
   170    21    22    1
   171   216   217    2
   172    19    20    1
   173    19    16    1
   174    27    28    1
   175    81    84    1
   176    81    82    1
   177    16    15    1
   178    45    46    2
   179    84    85    1
   180    48    50   ar
   181    48    49   ar
   182    83    82    2
   183    95    97   ar
   184    95    93   ar
   185    12    14   ar
   186    12    10   ar
   187    50    52   ar
   188    97    98   ar
   189    14    13   ar
   190    30    28   am
   191    92    93    1
   192    92    89    1
   193    28    29    2
   194    49    51   ar
   195    93    94   ar
   196    90    91    2
   197    90    89    1
   198    10     9   ar
   199    10     8   ar
   200    85    87   am
   201    85    86    2
   202     9     7   ar
   203    52    53   ar
   204    98    99    1
   205    98    96   ar
   206    89    88    1
   207    13    11   ar
   208    51    53   ar
   209    94    96   ar
   210    53    54    1
   211     8    11   ar
   212     8     6   ar
   213     7     6   ar
   214     6     5    1
   215     5     2    1
   216     3     2    1
   217     3     4    2
   218     2     1    1
