@<TRIPOS>MOLECULE
tmp/5p9jA00.pdb
 192 179 0 0 0
SMALL
GASTEIGER

@<TRIPOS>ATOM
      1  N         25.8220    1.6480   -0.5930 N.3    15  LEU15      -0.1231
      2  CA        25.2690    2.9190   -1.0080 C.3    15  LEU15       0.1693
      3  C         26.1500    4.0470   -0.5730 C.2    15  LEU15       0.2593
      4  O         26.0060    5.1410   -1.0930 O.2    15  LEU15      -0.2718
      5  CB        23.8750    3.1080   -0.4830 C.3    15  LEU15       0.0284
      6  CG        22.8510    2.1440   -1.0040 C.3    15  LEU15       0.0019
      7  CD1       21.4850    2.3330   -0.4060 C.3    15  LEU15       0.0001
      8  CD2       22.8210    2.1720   -2.4920 C.3    15  LEU15       0.0001
      9  N         27.0530    3.8520    0.3430 N.am   16  GLY16      -0.1942
     10  CA        27.8430    4.9860    0.8480 C.3    16  GLY16       0.2014
     11  C         27.8540    4.9960    2.3430 C.2    16  GLY16       0.2640
     12  O         27.1620    4.2230    2.9700 O.2    16  GLY16      -0.2714
     13  N         28.6170    5.9310    2.9040 N.am   17  THR17      -0.1936
     14  CA        28.9300    5.9670    4.3510 C.3    17  THR17       0.2028
     15  C         28.7800    7.3750    4.9030 C.2    17  THR17       0.2642
     16  O         29.3990    8.3120    4.3760 O.2    17  THR17      -0.2714
     17  CB        30.3800    5.5230    4.6390 C.3    17  THR17       0.1808
     18  OG1       31.2600    6.4050    3.9590 O.3    17  THR17      -0.2208
     19  CG2       30.6300    4.0880    4.2180 C.3    17  THR17       0.0379
     20  N         27.9460    7.5030    5.9450 N.am   18  GLY18      -0.1954
     21  CA        27.7480    8.7620    6.7420 C.3    18  GLY18       0.1869
     22  C         28.3510    8.7150    8.1560 C.2    18  GLY18       0.2309
     23  O         29.2960    7.9510    8.4290 O.2    18  GLY18      -0.2863
     24  N         25.6310    2.4480    4.6370 N.3    23  VAL23      -0.1245
     25  CA        24.2530    2.1570    4.2760 C.3    23  VAL23       0.1561
     26  C         24.3220    1.2330    3.0860 C.2    23  VAL23       0.2260
     27  O         25.1010    1.4480    2.1420 O.2    23  VAL23      -0.2867
     28  CB        23.4690    3.4260    3.8430 C.3    23  VAL23       0.0252
     29  CG1       22.0240    3.0590    3.4900 C.3    23  VAL23       0.0019
     30  CG2       23.4840    4.4440    4.9650 C.3    23  VAL23       0.0019
     31  N         16.6060   -0.1630    2.3640 N.3    35  ALA35      -0.1245
     32  CA        17.9020    0.3180    2.7730 C.3    35  ALA35       0.1562
     33  C         18.2510   -0.0980    4.1940 C.2    35  ALA35       0.2260
     34  O         17.3670   -0.1150    5.0400 O.2    35  ALA35      -0.2867
     35  CB        18.0150    1.8390    2.6100 C.3    35  ALA35       0.0290
     36  N         20.7920    0.8810    7.2000 N.3    37  LYS37      -0.1245
     37  CA        21.7700    1.8180    7.7650 C.3    37  LYS37       0.1561
     38  C         22.3920    1.1060    8.9930 C.2    37  LYS37       0.2260
     39  O         21.6450    0.7360    9.8960 O.2    37  LYS37      -0.2867
     40  CB        21.0950    3.1400    8.1330 C.3    37  LYS37       0.0271
     41  CG        21.9950    4.2210    8.7920 C.3    37  LYS37       0.0035
     42  CD        21.2140    5.5360    8.9400 C.3    37  LYS37       0.0206
     43  CE        22.0840    6.7870    8.9370 C.3    37  LYS37       0.1093
     44  NZ        21.3960    7.9460    8.2570 N.3    37  LYS37      -0.1314
     45  N         17.7950    5.8960   21.3590 N.3    49  PHE49      -0.1241
     46  CA        17.3470    5.7460   19.9960 C.3    49  PHE49       0.1605
     47  C         16.3570    4.5950   19.8370 C.2    49  PHE49       0.2264
     48  O         15.3250    4.7810   19.2230 O.2    49  PHE49      -0.2867
     49  CB        18.4820    5.4840   19.0330 C.3    49  PHE49       0.0534
     50  CG        17.9810    5.0740   17.6950 C.ar   49  PHE49      -0.0203
     51  CD1       17.3020    5.9960   16.8920 C.ar   49  PHE49      -0.0042
     52  CD2       18.0940    3.7410   17.2680 C.ar   49  PHE49      -0.0042
     53  CE1       16.7930    5.5600   15.6350 C.ar   49  PHE49      -0.0003
     54  CE2       17.6040    3.3650   16.0430 C.ar   49  PHE49      -0.0003
     55  CZ        16.9540    4.2650   15.2560 C.ar   49  PHE49      -0.0000
     56  N          8.8700    6.5620   16.0300 N.3    56  MET56      -0.1245
     57  CA         9.1800    6.8600   14.5980 C.3    56  MET56       0.1570
     58  C          8.4580    5.8730   13.7090 C.2    56  MET56       0.2261
     59  O          8.0520    6.2240   12.6090 O.2    56  MET56      -0.2867
     60  CB        10.6650    6.9260   14.3000 C.3    56  MET56       0.0387
     61  CG        11.3930    7.9970   15.0670 C.3    56  MET56       0.0595
     62  SD        13.1100    7.7470   15.0970 S.3    56  MET56      -0.1393
     63  CE        13.5990    8.1740   13.4370 C.3    56  MET56       0.0692
     64  N         10.3730    9.4270    4.5490 N.3    65  VAL65      -0.1245
     65  CA        11.0190    8.0820    4.4010 C.3    65  VAL65       0.1561
     66  C         10.4950    7.1710    5.5980 C.2    65  VAL65       0.2260
     67  O         10.5540    7.5000    6.7520 O.2    65  VAL65      -0.2867
     68  CB        12.5280    8.2010    4.4450 C.3    65  VAL65       0.0252
     69  CG1       13.2060    6.8300    4.5420 C.3    65  VAL65       0.0019
     70  CG2       13.0260    9.0440    3.2570 C.3    65  VAL65       0.0019
     71  N         10.4230    4.2040    8.2340 N.3    67  LEU67      -0.1245
     72  CA        11.2710    3.3530    9.0920 C.3    67  LEU67       0.1561
     73  C         10.4940    2.0350    9.2290 C.2    67  LEU67       0.2260
     74  O          9.3990    2.0330    9.7360 O.2    67  LEU67      -0.2867
     75  CB        11.5070    3.9980   10.4630 C.3    67  LEU67       0.0270
     76  CG        12.1590    3.0590   11.5040 C.3    67  LEU67       0.0019
     77  CD1       13.5910    2.7940   11.1050 C.3    67  LEU67       0.0001
     78  CD2       12.0900    3.7230   12.8740 C.3    67  LEU67       0.0001
     79  N         19.2110    0.0980   11.0470 N.3    79  ILE79      -0.1245
     80  CA        17.9220    0.7760   10.7760 C.3    79  ILE79       0.1561
     81  C         17.4320    0.4070    9.3800 C.2    79  ILE79       0.2260
     82  O         18.1730    0.6130    8.4140 O.2    79  ILE79      -0.2867
     83  CB        18.0150    2.3440   10.9060 C.3    79  ILE79       0.0252
     84  CG1       18.7060    2.7640   12.2130 C.3    79  ILE79       0.0019
     85  CG2       16.6070    2.8910   10.7900 C.3    79  ILE79       0.0019
     86  CD1       18.9350    4.2520   12.3110 C.3    79  ILE79       0.0001
     87  N         14.8700    0.8070    6.2850 N.3    81  THR81      -0.1203
     88  CA        13.9820    1.8830    5.7290 C.3    81  THR81       0.1994
     89  C         13.6300    1.5860    4.3560 C.2    81  THR81       0.2618
     90  O         14.1880    0.7510    3.5930 O.2    81  THR81      -0.2717
     91  CB        14.5840    3.3320    5.8830 C.3    81  THR81       0.1784
     92  OG1       15.5180    3.4990    4.8370 O.3    81  THR81      -0.2211
     93  CG2       15.1630    3.5360    7.2060 C.3    81  THR81       0.0376
     94  N         12.6810    2.4030    3.8840 N.am   82  GLU82      -0.1965
     95  CA        12.3770    2.5690    2.4960 C.3    82  GLU82       0.1733
     96  C         13.6700    2.8680    1.7110 C.2    82  GLU82       0.2616
     97  O         14.5290    3.6410    2.1360 O.2    82  GLU82      -0.2715
     98  CB        11.4530    3.8330    2.4340 C.3    82  GLU82       0.0429
     99  CG        10.9910    4.2830    1.1010 C.3    82  GLU82       0.1163
    100  CD         9.8700    5.3110    1.1890 C.2    82  GLU82       0.3649
    101  OE1        9.4870    5.7900    2.2840 O.co2  82  GLU82      -0.2457
    102  OE2        9.3820    5.4740    0.1090 O.co2  82  GLU82      -0.2457
    103  N         13.7820    2.2630    0.5570 N.am   83  TYR83      -0.1960
    104  CA        14.9160    2.4570   -0.3780 C.3    83  TYR83       0.1771
    105  C         14.5960    3.6140   -1.3680 C.2    83  TYR83       0.2619
    106  O         13.5370    3.6050   -1.9780 O.2    83  TYR83      -0.2715
    107  CB        15.1900    1.1960   -1.1540 C.3    83  TYR83       0.0574
    108  CG        16.2350    1.3170   -2.2070 C.ar   83  TYR83      -0.0198
    109  CD1       17.5200    1.8080   -1.9280 C.ar   83  TYR83      -0.0009
    110  CD2       15.9780    1.0300   -3.5210 C.ar   83  TYR83      -0.0009
    111  CE1       18.4770    1.9060   -2.9120 C.ar   83  TYR83       0.0417
    112  CE2       16.9230    1.1750   -4.5120 C.ar   83  TYR83       0.0417
    113  CZ        18.1990    1.5750   -4.1990 C.ar   83  TYR83       0.1957
    114  OH        19.1960    1.7460   -5.1710 O.3    83  TYR83      -0.2866
    115  N         15.5320    4.5370   -1.4310 N.am   84  MET84      -0.1977
    116  CA        15.3730    5.7750   -2.2420 C.3    84  MET84       0.1605
    117  C         16.4110    5.7910   -3.3230 C.2    84  MET84       0.2287
    118  O         17.5560    6.1350   -3.1010 O.2    84  MET84      -0.2864
    119  CB        15.4820    6.9450   -1.2860 C.3    84  MET84       0.0413
    120  CG        14.3940    6.9780   -0.2470 C.3    84  MET84       0.0598
    121  SD        12.7330    7.2340   -0.7590 S.3    84  MET84      -0.1393
    122  CE        12.7780    9.0000   -1.1590 C.3    84  MET84       0.0692
    123  N         18.9520    8.5340   -4.2360 N.3    87  GLY87      -0.1210
    124  CA        19.9270    9.0070   -3.2560 C.3    87  GLY87       0.1956
    125  C         19.6410   10.3980   -2.6960 C.2    87  GLY87       0.2612
    126  O         18.4970   10.8360   -2.6760 O.2    87  GLY87      -0.2717
    127  N         20.6450   10.9310   -2.0800 N.am   88  CYS88      -0.1970
    128  CA        20.4910   12.1870   -1.3460 C.3    88  CYS88       0.1712
    129  C         20.1550   13.3930   -2.2830 C.2    88  CYS88       0.2296
    130  O         20.7080   13.4840   -3.3780 O.2    88  CYS88      -0.2864
    131  CB        21.7380   12.5310   -0.6040 C.3    88  CYS88       0.0983
    132  SG        23.1840   12.8430   -1.4670 S.3    88  CYS88      -0.0798
    133  N         23.1550   15.7500   -3.7260 N.3    91  ASN91      -0.1240
    134  CA        23.9010   15.2960   -4.8580 C.3    91  ASN91       0.1653
    135  C         23.0600   15.2620   -6.1280 C.2    91  ASN91       0.2266
    136  O         23.5570   15.5840   -7.2400 O.2    91  ASN91      -0.2867
    137  CB        24.4860   13.9110   -4.6750 C.3    91  ASN91       0.1155
    138  CG        25.6970   13.9020   -3.8180 C.2    91  ASN91       0.2627
    139  OD1       26.0480   14.8600   -3.1870 O.2    91  ASN91      -0.2716
    140  ND2       26.2920   12.7400   -3.7060 N.am   91  ASN91      -0.0877
    141  N         21.0520   17.7080    2.4130 N.3   132  ARG132     -0.1245
    142  CA        21.8920   16.5310    2.6510 C.3   132  ARG132      0.1563
    143  C         21.1040   15.4270    3.3330 C.2   132  ARG132      0.2260
    144  O         21.5240   14.2600    3.1580 O.2   132  ARG132     -0.2867
    145  CB        23.1620   16.8750    3.3830 C.3   132  ARG132      0.0307
    146  CG        22.8380   17.4030    4.7420 C.3   132  ARG132      0.0489
    147  CD        24.0050   17.6940    5.7110 C.3   132  ARG132      0.2205
    148  NE        23.4870   18.2650    7.0230 N.pl3 132  ARG132     -0.0865
    149  CZ        23.3010   19.5600    7.1180 C.cat 132  ARG132      0.5346
    150  NH1       23.5610   20.2800    6.0570 N.pl3 132  ARG132      0.1354
    151  NH2       22.8440   20.2120    8.1470 N.pl3 132  ARG132      0.1354
    152  N         15.9970   12.5890    0.6720 N.3   135  LEU135     -0.1245
    153  CA        16.2620   11.5390   -0.3060 C.3   135  LEU135      0.1561
    154  C         15.3420   11.6420   -1.4510 C.2   135  LEU135      0.2260
    155  O         14.2470   12.1640   -1.3500 O.2   135  LEU135     -0.2867
    156  CB        16.2090   10.1700    0.4060 C.3   135  LEU135      0.0270
    157  CG        17.2330    9.8640    1.5150 C.3   135  LEU135      0.0019
    158  CD1       16.8900    8.6560    2.3570 C.3   135  LEU135      0.0001
    159  CD2       18.5690    9.6670    0.8930 C.3   135  LEU135      0.0001
    160  N         14.1490   12.6830    5.5440 N.3   145  SER145     -0.1202
    161  CA        14.8510   11.5950    6.2290 C.3   145  SER145      0.2020
    162  C         15.6290   12.0790    7.4250 C.2   145  SER145      0.2619
    163  O         15.8000   13.2600    7.6280 O.2   145  SER145     -0.2717
    164  CB        15.7530   10.9590    5.1700 C.3   145  SER145      0.2103
    165  OG        16.2780    9.7480    5.6510 O.3   145  SER145     -0.2182
    166  N         16.0930   11.1250    8.2080 N.am  146  ASP146     -0.1959
    167  CA        16.9310   11.3490    9.4040 C.3   146  ASP146      0.1840
    168  C         16.2520   12.2760   10.4080 C.2   146  ASP146      0.2622
    169  O         16.9060   12.9120   11.2610 O.2   146  ASP146     -0.2715
    170  CB        18.3170   11.8560    9.0350 C.3   146  ASP146      0.1450
    171  CG        19.2620   10.7510    8.5020 C.2   146  ASP146      0.3671
    172  OD1       18.9880    9.5600    8.6380 O.co2 146  ASP146     -0.2456
    173  OD2       20.3160   11.1620    8.0250 O.co2 146  ASP146     -0.2456
    174  N         14.9300   12.2500   10.4180 N.am  147  PHE147     -0.1974
    175  CA        14.1600   13.1820   11.2290 C.3   147  PHE147      0.1639
    176  C         14.3940   12.8460   12.7020 C.2   147  PHE147      0.2290
    177  O         14.2200   11.6960   13.1690 O.2   147  PHE147     -0.2864
    178  CB        12.6870   13.1620   10.8890 C.3   147  PHE147      0.0560
    179  CG        12.1260   11.8450   10.4540 C.ar  147  PHE147     -0.0200
    180  CD1       12.1520   11.4590    9.1340 C.ar  147  PHE147     -0.0042
    181  CD2       11.5080   11.0020   11.3410 C.ar  147  PHE147     -0.0042
    182  CE1       11.6460   10.2560    8.7430 C.ar  147  PHE147     -0.0003
    183  CE2       10.9600    9.8330   10.9170 C.ar  147  PHE147     -0.0003
    184  CZ        11.0400    9.4370    9.6090 C.ar  147  PHE147     -0.0000
    185  N         17.0740   12.4950   14.3460 N.3   149  LEU149     -0.1245
    186  CA        18.1890   11.6310   14.6870 C.3   149  LEU149      0.1561
    187  C         19.3770   12.2940   15.3390 C.2   149  LEU149      0.2260
    188  O         20.1360   11.6310   16.0930 O.2   149  LEU149     -0.2867
    189  CB        18.6040   10.7860   13.4280 C.3   149  LEU149      0.0270
    190  CG        19.2550    9.4240   13.4980 C.3   149  LEU149      0.0019
    191  CD1       18.2420    8.5770   14.2430 C.3   149  LEU149      0.0001
    192  CD2       19.4410    8.9950   12.0530 C.3   149  LEU149      0.0001
@<TRIPOS>BOND
     1   136   135    2
     2   135   134    1
     3   114   113    1
     4   134   137    1
     5   134   133    1
     6   137   138    1
     7   112   113   ar
     8   112   110   ar
     9   123   124    1
    10   113   111   ar
    11   138   140   am
    12   138   139    2
    13   110   108   ar
    14   130   129    2
    15   117   118    2
    16   117   116    1
    17   124   125    1
    18   111   109   ar
    19   125   126    2
    20   125   127   am
    21     8     6    1
    22   129   128    1
    23   116   115    1
    24   116   119    1
    25   108   109   ar
    26   108   107    1
    27   127   128    1
    28   106   105    2
    29   132   131    1
    30   154   155    2
    31   154   153    1
    32   115   105   am
    33   105   104    1
    34   128   131    1
    35   119   120    1
    36   122   121    1
    37   107   104    1
    38     4     3    2
    39     2     1    1
    40     2     3    1
    41     2     5    1
    42     6     5    1
    43     6     7    1
    44   121   120    1
    45     3     9   am
    46   104   103    1
    47   153   156    1
    48   153   152    1
    49   102   100   ar
    50     9    10    1
    51   156   157    1
    52   103    96   am
    53    10    11    1
    54   159   157    1
    55    99   100    1
    56    99    98    1
    57   100   101   ar
    58   157   158    1
    59    96    97    2
    60    96    95    1
    61    27    26    2
    62    11    13   am
    63    11    12    2
    64    31    32    1
    65   141   142    1
    66    98    95    1
    67    95    94    1
    68    35    32    1
    69   142   143    1
    70   142   145    1
    71    32    33    1
    72    13    14    1
    73    26    25    1
    74   144   143    2
    75    70    68    1
    76   145   146    1
    77    29    28    1
    78    90    89    2
    79    28    25    1
    80    28    30    1
    81    94    89   am
    82    18    17    1
    83    33    34    2
    84    19    17    1
    85    25    24    1
    86    14    17    1
    87    14    15    1
    88    89    88    1
    89    16    15    2
    90    65    68    1
    91    65    64    1
    92    65    66    1
    93    68    69    1
    94   146   147    1
    95    92    91    1
    96    15    20   am
    97   164   165    1
    98   164   161    1
    99   160   161    1
   100    66    67    2
   101   147   148    1
   102    88    91    1
   103    88    87    1
   104    91    93    1
   105    20    21    1
   106   150   149    1
   107   161   162    1
   108    21    22    1
   109   148   149    2
   110   149   151    1
   111    36    37    1
   112   162   163    2
   113   162   166   am
   114    37    40    1
   115    37    38    1
   116   173   171   ar
   117    40    41    1
   118    22    23    2
   119   166   167    1
   120    71    72    1
   121    44    43    1
   122    82    81    2
   123   171   172   ar
   124   171   170    1
   125   182   180   ar
   126   182   184   ar
   127    41    42    1
   128    43    42    1
   129    38    39    2
   130   170   167    1
   131    72    73    1
   132    72    75    1
   133   180   179   ar
   134    73    74    2
   135    81    80    1
   136   167   168    1
   137   184   183   ar
   138   168   174   am
   139   168   169    2
   140   174   175    1
   141   179   178    1
   142   179   181   ar
   143    75    76    1
   144    80    83    1
   145    80    79    1
   146    85    83    1
   147   178   175    1
   148    83    84    1
   149   183   181   ar
   150    77    76    1
   151   175   176    1
   152    76    78    1
   153   192   190    1
   154    84    86    1
   155    59    58    2
   156   176   177    2
   157   189   190    1
   158   189   186    1
   159    63    62    1
   160   190   191    1
   161    58    57    1
   162    60    57    1
   163    60    61    1
   164   185   186    1
   165    57    56    1
   166   186   187    1
   167    61    62    1
   168    55    53   ar
   169    55    54   ar
   170   187   188    2
   171    53    51   ar
   172    54    52   ar
   173    51    50   ar
   174    52    50   ar
   175    50    49    1
   176    49    46    1
   177    48    47    2
   178    47    46    1
   179    46    45    1
