@<TRIPOS>MOLECULE
tmp/5p9kA00.pdb
 165 156 0 0 0
SMALL
GASTEIGER

@<TRIPOS>ATOM
      1  N         24.1860   -4.2750   -2.2810 N.3    18  LYS18      -0.1231
      2  CA        25.0840   -3.2250   -2.7690 C.3    18  LYS18       0.1693
      3  C         25.4040   -2.2240   -1.6620 C.2    18  LYS18       0.2592
      4  O         24.5470   -1.9170   -0.8360 O.2    18  LYS18      -0.2718
      5  CB        24.4090   -2.4790   -3.9210 C.3    18  LYS18       0.0285
      6  CG        25.3420   -1.7410   -4.8610 C.3    18  LYS18       0.0035
      7  CD        24.5490   -0.6860   -5.6120 C.3    18  LYS18       0.0206
      8  CE        23.0770   -1.0900   -5.6960 C.3    18  LYS18       0.1093
      9  NZ        22.1300    0.0330   -5.4040 N.3    18  LYS18      -0.1314
     10  N         26.6300   -1.7090   -1.6310 N.am   19  GLU19      -0.1966
     11  CA        26.9570   -0.6340   -0.6960 C.3    19  GLU19       0.1733
     12  C         26.5480    0.7110   -1.2950 C.2    19  GLU19       0.2616
     13  O         26.8220    1.0020   -2.4590 O.2    19  GLU19      -0.2715
     14  CB        28.4410   -0.6270   -0.3210 C.3    19  GLU19       0.0429
     15  CG        28.8060    0.4370    0.7150 C.3    19  GLU19       0.1163
     16  CD        30.0780    0.1180    1.4860 C.2    19  GLU19       0.3649
     17  OE1       30.2120   -1.0210    1.9800 O.co2  19  GLU19      -0.2457
     18  OE2       30.9360    1.0180    1.6100 O.co2  19  GLU19      -0.2457
     19  N         25.8610    1.5170   -0.4940 N.am   20  LEU20      -0.1963
     20  CA        25.3650    2.8100   -0.9510 C.3    20  LEU20       0.1728
     21  C         26.2420    3.9800   -0.5260 C.2    20  LEU20       0.2617
     22  O         26.2560    5.0220   -1.1810 O.2    20  LEU20      -0.2715
     23  CB        23.9570    3.0300   -0.4130 C.3    20  LEU20       0.0311
     24  CG        22.9170    2.0530   -0.9400 C.3    20  LEU20       0.0022
     25  CD1       21.5850    2.2920   -0.2650 C.3    20  LEU20       0.0001
     26  CD2       22.7910    2.1610   -2.4480 C.3    20  LEU20       0.0001
     27  N         26.9550    3.8330    0.5780 N.am   21  GLY21      -0.1940
     28  CA        27.7610    4.9370    1.0770 C.3    21  GLY21       0.2014
     29  C         28.0810    4.8160    2.5450 C.2    21  GLY21       0.2639
     30  O         27.6910    3.8540    3.1960 O.2    21  GLY21      -0.2714
     31  N         28.7950    5.8110    3.0570 N.am   22  THR22      -0.1950
     32  CA        29.2160    5.8490    4.4460 C.3    22  THR22       0.1897
     33  C         28.9560    7.2460    4.9820 C.2    22  THR22       0.2313
     34  O         29.4440    8.2280    4.4190 O.2    22  THR22      -0.2863
     35  CB        30.7190    5.5610    4.5890 C.3    22  THR22       0.1794
     36  OG1       30.9960    4.2090    4.2160 O.3    22  THR22      -0.2208
     37  CG2       31.1750    5.7790    6.0230 C.3    22  THR22       0.0378
     38  N         25.9120    2.3660    4.8010 N.3    28  VAL28      -0.1245
     39  CA        24.5370    2.0950    4.4240 C.3    28  VAL28       0.1561
     40  C         24.5530    1.1870    3.2050 C.2    28  VAL28       0.2260
     41  O         25.3340    1.3950    2.2720 O.2    28  VAL28      -0.2867
     42  CB        23.7590    3.3800    4.1090 C.3    28  VAL28       0.0252
     43  CG1       22.3390    3.0440    3.7140 C.3    28  VAL28       0.0019
     44  CG2       23.7730    4.3160    5.3010 C.3    28  VAL28       0.0019
     45  N         16.8350   -0.1040    2.6360 N.3    40  ALA40      -0.1245
     46  CA        18.1540    0.4030    2.9870 C.3    40  ALA40       0.1562
     47  C         18.4860   -0.0610    4.4020 C.2    40  ALA40       0.2260
     48  O         17.6350   -0.0590    5.2950 O.2    40  ALA40      -0.2867
     49  CB        18.1990    1.9290    2.8830 C.3    40  ALA40       0.0290
     50  N         21.0690    0.5630    7.4060 N.3    42  LYS42      -0.1245
     51  CA        22.0760    1.4200    8.0200 C.3    42  LYS42       0.1561
     52  C         22.7520    0.6910    9.1670 C.2    42  LYS42       0.2260
     53  O         22.1040    0.3340   10.1470 O.2    42  LYS42      -0.2867
     54  CB        21.4290    2.7080    8.5140 C.3    42  LYS42       0.0271
     55  CG        20.5400    3.3410    7.4760 C.3    42  LYS42       0.0035
     56  CD        19.9880    4.6740    7.9190 C.3    42  LYS42       0.0206
     57  CE        18.8560    5.1100    7.0220 C.3    42  LYS42       0.1093
     58  NZ        18.5200    6.5340    7.2560 N.3    42  LYS42      -0.1314
     59  N         10.5640    9.2630    4.4820 N.3    70  VAL70      -0.1245
     60  CA        11.2170    7.9730    4.2900 C.3    70  VAL70       0.1561
     61  C         10.8550    7.0670    5.4590 C.2    70  VAL70       0.2260
     62  O         11.1530    7.3740    6.6150 O.2    70  VAL70      -0.2867
     63  CB        12.7450    8.1180    4.2080 C.3    70  VAL70       0.0252
     64  CG1       13.4380    6.7490    4.0900 C.3    70  VAL70       0.0019
     65  CG2       13.1240    9.0130    3.0390 C.3    70  VAL70       0.0019
     66  N         15.2330    1.0090    6.6120 N.3    86  THR86      -0.1203
     67  CA        14.3050    2.0030    6.0820 C.3    86  THR86       0.1994
     68  C         13.9540    1.7730    4.6280 C.2    86  THR86       0.2618
     69  O         14.5310    0.9320    3.9270 O.2    86  THR86      -0.2717
     70  CB        14.8410    3.4570    6.2050 C.3    86  THR86       0.1784
     71  OG1       15.8140    3.7100    5.1820 O.3    86  THR86      -0.2211
     72  CG2       15.4610    3.7110    7.5540 C.3    86  THR86       0.0376
     73  N         12.9930    2.5550    4.1630 N.am   87  GLU87      -0.1965
     74  CA        12.6550    2.6490    2.7760 C.3    87  GLU87       0.1733
     75  C         13.8940    2.9440    1.9300 C.2    87  GLU87       0.2616
     76  O         14.7360    3.7630    2.3070 O.2    87  GLU87      -0.2715
     77  CB        11.6240    3.7770    2.6390 C.3    87  GLU87       0.0429
     78  CG        11.0780    4.0000    1.2530 C.3    87  GLU87       0.1163
     79  CD         9.9440    5.0150    1.2240 C.2    87  GLU87       0.3649
     80  OE1        9.5750    5.5530    2.2960 O.co2  87  GLU87      -0.2457
     81  OE2        9.4100    5.2520    0.1230 O.co2  87  GLU87      -0.2457
     82  N         13.9830    2.2710    0.7880 N.am   88  TYR88      -0.1960
     83  CA        15.0640    2.4470   -0.1560 C.3    88  TYR88       0.1771
     84  C         14.6630    3.4890   -1.1860 C.2    88  TYR88       0.2619
     85  O         13.5480    3.4830   -1.6800 O.2    88  TYR88      -0.2715
     86  CB        15.3700    1.1330   -0.8500 C.3    88  TYR88       0.0574
     87  CG        16.3550    1.2700   -1.9830 C.ar   88  TYR88      -0.0198
     88  CD1       17.6640    1.6690   -1.7480 C.ar   88  TYR88      -0.0009
     89  CD2       15.9940    0.9690   -3.2830 C.ar   88  TYR88      -0.0009
     90  CE1       18.5720    1.7920   -2.7870 C.ar   88  TYR88       0.0417
     91  CE2       16.9010    1.0880   -4.3230 C.ar   88  TYR88       0.0417
     92  CZ        18.1840    1.4850   -4.0660 C.ar   88  TYR88       0.1957
     93  OH        19.0910    1.5940   -5.0950 O.3    88  TYR88      -0.2866
     94  N         15.5940    4.3760   -1.5010 N.am   89  MET89      -0.1963
     95  CA        15.3280    5.5170   -2.3690 C.3    89  MET89       0.1736
     96  C         16.3490    5.4810   -3.4950 C.2    89  MET89       0.2616
     97  O         17.5030    5.8190   -3.2980 O.2    89  MET89      -0.2715
     98  CB        15.4380    6.8080   -1.5520 C.3    89  MET89       0.0427
     99  CG        14.4330    6.8690   -0.4210 C.3    89  MET89       0.0599
    100  SD        12.7200    7.1130   -0.9380 S.3    89  MET89      -0.1393
    101  CE        12.8180    8.8130   -1.4040 C.3    89  MET89       0.0692
    102  N         15.9310    5.0090   -4.6620 N.am   90  ALA90      -0.1963
    103  CA        16.8750    4.6030   -5.6920 C.3    90  ALA90       0.1728
    104  C         17.7480    5.7220   -6.2310 C.2    90  ALA90       0.2616
    105  O         18.8470    5.4710   -6.7210 O.2    90  ALA90      -0.2715
    106  CB        16.1400    3.9130   -6.8490 C.3    90  ALA90       0.0334
    107  N         17.2710    6.9600   -6.1760 N.am   91  ASN91      -0.1958
    108  CA        18.0190    8.0500   -6.7770 C.3    91  ASN91       0.1819
    109  C         18.8370    8.8390   -5.7790 C.2    91  ASN91       0.2622
    110  O         19.4170    9.8690   -6.1240 O.2    91  ASN91      -0.2715
    111  CB        17.1090    8.9420   -7.6250 C.3    91  ASN91       0.1195
    112  CG        16.9450    8.4000   -9.0110 C.2    91  ASN91       0.2630
    113  OD1       17.9040    7.8600   -9.5710 O.2    91  ASN91      -0.2716
    114  ND2       15.7600    8.5240   -9.5850 N.am   91  ASN91      -0.0877
    115  N         18.9220    8.3410   -4.5550 N.am   92  GLY92      -0.1940
    116  CA        19.9290    8.8200   -3.6260 C.3    92  GLY92       0.2014
    117  C         19.6560   10.1380   -2.9510 C.2    92  GLY92       0.2639
    118  O         18.5260   10.5620   -2.7940 O.2    92  GLY92      -0.2714
    119  N         20.7310   10.7340   -2.4820 N.am   93  CYS93      -0.1967
    120  CA        20.6600   11.9400   -1.6830 C.3    93  CYS93       0.1712
    121  C         20.2770   13.1640   -2.5170 C.2    93  CYS93       0.2296
    122  O         20.8560   13.4070   -3.5730 O.2    93  CYS93      -0.2864
    123  CB        22.0260   12.1740   -1.0340 C.3    93  CYS93       0.0983
    124  SG        22.0400   13.6110    0.0080 S.3    93  CYS93      -0.0798
    125  N         20.9130   16.2830   -2.1740 N.3    95  LEU95      -0.1231
    126  CA        21.9920   17.2290   -2.4310 C.3    95  LEU95       0.1693
    127  C         22.7680   16.8320   -3.6800 C.2    95  LEU95       0.2592
    128  O         23.1120   17.6730   -4.5170 O.2    95  LEU95      -0.2718
    129  CB        22.9220   17.3000   -1.2260 C.3    95  LEU95       0.0284
    130  CG        24.0270   18.3530   -1.3420 C.3    95  LEU95       0.0019
    131  CD1       23.4900   19.7500   -1.5610 C.3    95  LEU95       0.0001
    132  CD2       24.8980   18.3180   -0.0840 C.3    95  LEU95       0.0001
    133  N         23.0520   15.5420   -3.8090 N.am   96  ASN96      -0.1974
    134  CA        23.8090   15.0610   -4.9620 C.3    96  ASN96       0.1688
    135  C         22.9930   15.1330   -6.2420 C.2    96  ASN96       0.2292
    136  O         23.5030   15.4840   -7.3080 O.2    96  ASN96      -0.2864
    137  CB        24.3020   13.6400   -4.7290 C.3    96  ASN96       0.1181
    138  CG        25.2730   13.5600   -3.5900 C.2    96  ASN96       0.2629
    139  OD1       25.9880   14.5240   -3.3020 O.2    96  ASN96      -0.2716
    140  ND2       25.3000   12.4230   -2.9150 N.am   96  ASN96      -0.0877
    141  N         20.8570   17.4690    2.3740 N.3   137  ARG137     -0.1245
    142  CA        21.6440   16.2770    2.6600 C.3   137  ARG137      0.1563
    143  C         20.8710   15.2410    3.4630 C.2   137  ARG137      0.2260
    144  O         21.3200   14.1070    3.5850 O.2   137  ARG137     -0.2867
    145  CB        22.9210   16.6500    3.4240 C.3   137  ARG137      0.0307
    146  CG        22.6470   17.0820    4.8390 C.3   137  ARG137      0.0489
    147  CD        23.8880   17.4920    5.6370 C.3   137  ARG137      0.2205
    148  NE        23.4350   18.1980    6.8290 N.pl3 137  ARG137     -0.0865
    149  CZ        23.2280   19.5110    6.8860 C.cat 137  ARG137      0.5346
    150  NH1       23.5100   20.2830    5.8440 N.pl3 137  ARG137      0.1354
    151  NH2       22.7650   20.0520    7.9990 N.pl3 137  ARG137      0.1354
    152  N         16.0240   12.3890    0.4070 N.3   140  LEU140     -0.1245
    153  CA        16.3550   11.3370   -0.5460 C.3   140  LEU140      0.1561
    154  C         15.3680   11.4010   -1.7030 C.2   140  LEU140      0.2260
    155  O         14.2910   11.9840   -1.5860 O.2   140  LEU140     -0.2867
    156  CB        16.2850    9.9580    0.1330 C.3   140  LEU140      0.0270
    157  CG        17.3560    9.7030    1.1910 C.3   140  LEU140      0.0019
    158  CD1       17.0150    8.5050    2.0360 C.3   140  LEU140      0.0001
    159  CD2       18.6950    9.4650    0.5010 C.3   140  LEU140      0.0001
    160  N         14.2490   12.4040    5.3680 N.3   150  SER150     -0.1217
    161  CA        14.9010   11.2830    6.0120 C.3   150  SER150      0.1889
    162  C         15.5170   11.7010    7.3520 C.2   150  SER150      0.2288
    163  O         15.7850   12.8810    7.5800 O.2   150  SER150     -0.2866
    164  CB        15.9860   10.7710    5.0700 C.3   150  SER150      0.2089
    165  OG        16.5780    9.5990    5.5440 O.3   150  SER150     -0.2183
@<TRIPOS>BOND
     1   114   112   am
     2   113   112    2
     3   112   111    1
     4   111   108    1
     5   136   135    2
     6   106   103    1
     7   108   107    1
     8   108   109    1
     9   105   104    2
    10   135   134    1
    11   104   107   am
    12   104   103    1
    13   110   109    2
    14   109   115   am
    15     8     7    1
    16     8     9    1
    17   103   102    1
    18     7     6    1
    19    93    92    1
    20   134   137    1
    21   134   133    1
    22     6     5    1
    23   137   138    1
    24   102    96   am
    25   115   116    1
    26   128   127    2
    27    91    92   ar
    28    91    89   ar
    29    92    90   ar
    30     5     2    1
    31   133   127   am
    32   127   126    1
    33   116   117    1
    34   138   139    2
    35   138   140   am
    36   122   121    2
    37    96    97    2
    38    96    95    1
    39    89    87   ar
    40   117   118    2
    41   117   119   am
    42    90    88   ar
    43     2     1    1
    44     2     3    1
    45   121   120    1
    46   119   120    1
    47    13    12    2
    48    26    24    1
    49   126   125    1
    50   126   129    1
    51    95    98    1
    52    95    94    1
    53    87    88   ar
    54    87    86    1
    55   154   155    2
    56   154   153    1
    57   120   123    1
    58    85    84    2
    59     3    10   am
    60     3     4    2
    61    10    11    1
    62   131   130    1
    63    98    99    1
    64    94    84   am
    65   101   100    1
    66   130   129    1
    67   130   132    1
    68    12    11    1
    69    12    19   am
    70    84    83    1
    71    22    21    2
    72   123   124    1
    73    20    21    1
    74    20    19    1
    75    20    23    1
    76    24    23    1
    77    24    25    1
    78   100    99    1
    79    86    83    1
    80    11    14    1
    81   153   156    1
    82   153   152    1
    83    21    27   am
    84    14    15    1
    85    83    82    1
    86    81    79   ar
    87   156   157    1
    88   159   157    1
    89    27    28    1
    90    15    16    1
    91    82    75   am
    92    28    29    1
    93   157   158    1
    94    79    78    1
    95    79    80   ar
    96    78    77    1
    97    16    18   ar
    98    16    17   ar
    99    75    76    2
   100    75    74    1
   101    41    40    2
   102   141   142    1
   103    29    31   am
   104    29    30    2
   105    45    46    1
   106    77    74    1
   107   142   145    1
   108   142   143    1
   109    74    73    1
   110    49    46    1
   111    46    47    1
   112    65    63    1
   113    31    32    1
   114    40    39    1
   115   145   146    1
   116   143   144    2
   117    43    42    1
   118    69    68    2
   119    64    63    1
   120    42    39    1
   121    42    44    1
   122    73    68   am
   123    63    60    1
   124    36    35    1
   125    60    59    1
   126    60    61    1
   127    47    48    2
   128    34    33    2
   129    39    38    1
   130    32    35    1
   131    32    33    1
   132    35    37    1
   133    68    67    1
   134   146   147    1
   135   164   165    1
   136   164   161    1
   137    71    70    1
   138   160   161    1
   139    61    62    2
   140   147   148    1
   141   150   149    1
   142   161   162    1
   143    67    70    1
   144    67    66    1
   145    70    72    1
   146   148   149    2
   147   149   151    1
   148    57    58    1
   149    57    56    1
   150   162   163    2
   151    50    51    1
   152    55    56    1
   153    55    54    1
   154    51    54    1
   155    51    52    1
   156    52    53    2
