@<TRIPOS>MOLECULE
tmp/5p9lA00.pdb
 152 144 0 0 0
SMALL
GASTEIGER

@<TRIPOS>ATOM
      1  N        -24.1920   -4.2570    2.2000 N.3    15  LYS15      -0.1231
      2  CA       -25.1630   -3.2530    2.6430 C.3    15  LYS15       0.1693
      3  C        -25.4430   -2.1670    1.5940 C.2    15  LYS15       0.2592
      4  O        -24.6010   -1.8470    0.7590 O.2    15  LYS15      -0.2718
      5  CB       -24.6540   -2.6310    3.9570 C.3    15  LYS15       0.0285
      6  CG       -25.5240   -1.6130    4.6180 C.3    15  LYS15       0.0035
      7  CD       -24.7050   -0.9360    5.6860 C.3    15  LYS15       0.0206
      8  CE       -23.2680   -0.7490    5.1590 C.3    15  LYS15       0.1093
      9  NZ       -22.5970    0.5110    5.6430 N.3    15  LYS15      -0.1314
     10  N        -26.6500   -1.6220    1.5990 N.am   16  GLU16      -0.1966
     11  CA       -26.9860   -0.5250    0.7020 C.3    16  GLU16       0.1733
     12  C        -26.4740    0.7660    1.3090 C.2    16  GLU16       0.2616
     13  O        -26.5640    0.9820    2.5170 O.2    16  GLU16      -0.2715
     14  CB       -28.4890   -0.4260    0.4330 C.3    16  GLU16       0.0429
     15  CG       -28.8410    0.4360   -0.7840 C.3    16  GLU16       0.1163
     16  CD       -30.1360   -0.0170   -1.4340 C.2    16  GLU16       0.3649
     17  OE1      -30.0850   -1.0000   -2.2130 O.co2  16  GLU16      -0.2457
     18  OE2      -31.1960    0.5980   -1.1440 O.co2  16  GLU16      -0.2457
     19  N        -25.9130    1.6100    0.4570 N.am   17  LEU17      -0.1963
     20  CA       -25.3740    2.9190    0.8850 C.3    17  LEU17       0.1728
     21  C        -26.2480    4.0860    0.4590 C.2    17  LEU17       0.2616
     22  O        -26.1800    5.1570    1.0410 O.2    17  LEU17      -0.2715
     23  CB       -23.9490    3.1380    0.3500 C.3    17  LEU17       0.0311
     24  CG       -22.9610    2.1100    0.8910 C.3    17  LEU17       0.0022
     25  CD1      -21.5960    2.3150    0.2720 C.3    17  LEU17       0.0001
     26  CD2      -22.8950    2.1000    2.4440 C.3    17  LEU17       0.0001
     27  N        -27.0530    3.9070   -0.5660 N.am   18  GLY18      -0.1955
     28  CA       -27.8740    4.9950   -1.0610 C.3    18  GLY18       0.1869
     29  C        -28.0520    4.8650   -2.5530 C.2    18  GLY18       0.2309
     30  O        -27.6620    3.8570   -3.1290 O.2    18  GLY18      -0.2863
     31  N        -25.8740    2.3340   -4.8820 N.3    21  VAL21      -0.1245
     32  CA       -24.5220    2.0740   -4.4540 C.3    21  VAL21       0.1561
     33  C        -24.5520    1.1700   -3.2030 C.2    21  VAL21       0.2260
     34  O        -25.2950    1.4170   -2.2310 O.2    21  VAL21      -0.2867
     35  CB       -23.7260    3.3780   -4.1430 C.3    21  VAL21       0.0252
     36  CG1      -22.2740    3.0210   -3.7060 C.3    21  VAL21       0.0019
     37  CG2      -23.7200    4.3270   -5.3420 C.3    21  VAL21       0.0019
     38  N        -16.7800   -0.0650   -2.6700 N.3    33  ALA33      -0.1245
     39  CA       -18.0830    0.4420   -3.0230 C.3    33  ALA33       0.1562
     40  C        -18.4130    0.0390   -4.4280 C.2    33  ALA33       0.2260
     41  O        -17.5630    0.0590   -5.3400 O.2    33  ALA33      -0.2867
     42  CB       -18.1330    1.9800   -2.8800 C.3    33  ALA33       0.0290
     43  N        -21.0400    0.6700   -7.4490 N.3    35  LYS35      -0.1245
     44  CA       -22.0230    1.5630   -8.0490 C.3    35  LYS35       0.1561
     45  C        -22.7140    0.8300   -9.1670 C.2    35  LYS35       0.2260
     46  O        -22.0680    0.4790  -10.1420 O.2    35  LYS35      -0.2867
     47  CB       -21.3430    2.8280   -8.6030 C.3    35  LYS35       0.0271
     48  CG       -20.7210    3.7080   -7.5080 C.3    35  LYS35       0.0035
     49  CD       -19.9950    4.9170   -8.1360 C.3    35  LYS35       0.0206
     50  CE       -19.0000    5.3040   -7.0720 C.3    35  LYS35       0.1093
     51  NZ       -18.1940    6.4920   -7.3920 N.3    35  LYS35      -0.1314
     52  N        -10.5520    9.3580   -4.4720 N.3    63  VAL63      -0.1245
     53  CA       -11.1830    8.0530   -4.3320 C.3    63  VAL63       0.1561
     54  C        -10.7070    7.1400   -5.5100 C.2    63  VAL63       0.2260
     55  O        -10.7850    7.4820   -6.7240 O.2    63  VAL63      -0.2867
     56  CB       -12.7020    8.1940   -4.2720 C.3    63  VAL63       0.0252
     57  CG1      -13.3920    6.8180   -4.1860 C.3    63  VAL63       0.0019
     58  CG2      -13.1300    9.0460   -3.0890 C.3    63  VAL63       0.0019
     59  N        -15.1500    1.0420   -6.6800 N.3    79  THR79      -0.1203
     60  CA       -14.2400    2.0560   -6.1290 C.3    79  THR79       0.1994
     61  C        -13.9160    1.8430   -4.6720 C.2    79  THR79       0.2618
     62  O        -14.5010    0.9700   -3.9720 O.2    79  THR79      -0.2717
     63  CB       -14.7510    3.5190   -6.2700 C.3    79  THR79       0.1784
     64  OG1      -15.8510    3.7580   -5.3740 O.3    79  THR79      -0.2211
     65  CG2      -15.1600    3.8070   -7.6540 C.3    79  THR79       0.0376
     66  N        -12.9510    2.6190   -4.1890 N.am   80  GLU80      -0.1965
     67  CA       -12.6100    2.6890   -2.7760 C.3    80  GLU80       0.1733
     68  C        -13.8580    2.9870   -1.9450 C.2    80  GLU80       0.2616
     69  O        -14.6930    3.8530   -2.3150 O.2    80  GLU80      -0.2715
     70  CB       -11.5500    3.8130   -2.6410 C.3    80  GLU80       0.0429
     71  CG       -11.0690    4.0930   -1.2690 C.3    80  GLU80       0.1163
     72  CD        -9.9100    5.1100   -1.2390 C.2    80  GLU80       0.3649
     73  OE1       -9.5210    5.6080   -2.3220 O.co2  80  GLU80      -0.2457
     74  OE2       -9.4170    5.3800   -0.1020 O.co2  80  GLU80      -0.2457
     75  N        -13.9590    2.3050   -0.8240 N.am   81  TYR81      -0.1960
     76  CA       -15.0210    2.4700    0.1390 C.3    81  TYR81       0.1771
     77  C        -14.6390    3.5490    1.1790 C.2    81  TYR81       0.2619
     78  O        -13.5320    3.5230    1.6730 O.2    81  TYR81      -0.2715
     79  CB       -15.2690    1.1780    0.9030 C.3    81  TYR81       0.0574
     80  CG       -16.3270    1.2880    1.9780 C.ar   81  TYR81      -0.0198
     81  CD1      -17.6360    1.6660    1.7080 C.ar   81  TYR81      -0.0009
     82  CD2      -16.0130    0.9500    3.2840 C.ar   81  TYR81      -0.0009
     83  CE1      -18.5760    1.8020    2.7510 C.ar   81  TYR81       0.0417
     84  CE2      -16.9580    1.0260    4.2970 C.ar   81  TYR81       0.0417
     85  CZ       -18.2180    1.4630    4.0140 C.ar   81  TYR81       0.1957
     86  OH       -19.1780    1.5080    5.0190 O.3    81  TYR81      -0.2866
     87  N        -15.5800    4.4410    1.4710 N.am   82  MET82      -0.1963
     88  CA       -15.3350    5.5970    2.3380 C.3    82  MET82       0.1736
     89  C        -16.3760    5.5300    3.4650 C.2    82  MET82       0.2616
     90  O        -17.5480    5.8570    3.2810 O.2    82  MET82      -0.2715
     91  CB       -15.4300    6.8910    1.5530 C.3    82  MET82       0.0427
     92  CG       -14.4270    6.9810    0.4220 C.3    82  MET82       0.0599
     93  SD       -12.7440    7.2110    0.8990 S.3    82  MET82      -0.1393
     94  CE       -12.7990    8.8790    1.4440 C.3    82  MET82       0.0692
     95  N        -15.9700    5.0130    4.6050 N.am   83  ALA83      -0.1963
     96  CA       -16.9130    4.6060    5.6280 C.3    83  ALA83       0.1728
     97  C        -17.7650    5.7140    6.1750 C.2    83  ALA83       0.2616
     98  O        -18.8510    5.4480    6.6630 O.2    83  ALA83      -0.2715
     99  CB       -16.1880    3.8700    6.8210 C.3    83  ALA83       0.0334
    100  N        -17.2880    6.9660    6.1690 N.am   84  ASN84      -0.1958
    101  CA       -18.0510    8.0570    6.8030 C.3    84  ASN84       0.1819
    102  C        -18.9150    8.8080    5.8290 C.2    84  ASN84       0.2622
    103  O        -19.4780    9.8540    6.2390 O.2    84  ASN84      -0.2715
    104  CB       -17.1490    8.9490    7.6670 C.3    84  ASN84       0.1195
    105  CG       -16.7840    8.2490    8.9500 C.2    84  ASN84       0.2630
    106  OD1      -17.4720    7.2950    9.3070 O.2    84  ASN84      -0.2716
    107  ND2      -15.7460    8.6540    9.6330 N.am   84  ASN84      -0.0877
    108  N        -19.0150    8.3520    4.5930 N.am   85  GLY85      -0.1940
    109  CA       -20.0120    8.8400    3.6720 C.3    85  GLY85       0.2014
    110  C        -19.7260   10.1840    3.0580 C.2    85  GLY85       0.2639
    111  O        -18.5670   10.6430    2.9510 O.2    85  GLY85      -0.2714
    112  N        -20.7120   10.8410    2.5180 N.am   86  CYS86      -0.1967
    113  CA       -20.5870   12.0520    1.7600 C.3    86  CYS86       0.1712
    114  C        -20.2700   13.2780    2.6340 C.2    86  CYS86       0.2296
    115  O        -20.7820   13.4630    3.7340 O.2    86  CYS86      -0.2864
    116  CB       -21.7720   12.2520    0.8350 C.3    86  CYS86       0.0983
    117  SG       -22.9990   13.3240    1.3770 S.3    86  CYS86      -0.0798
    118  N        -20.9680   16.4100    2.3930 N.3    88  LEU88      -0.1231
    119  CA       -22.0490   17.3810    2.6510 C.3    88  LEU88       0.1693
    120  C        -22.8360   16.9730    3.8610 C.2    88  LEU88       0.2592
    121  O        -23.1050   17.7920    4.7180 O.2    88  LEU88      -0.2718
    122  CB       -22.8920   17.5690    1.3620 C.3    88  LEU88       0.0284
    123  CG       -24.0430   18.5420    1.4440 C.3    88  LEU88       0.0019
    124  CD1      -23.5810   19.9690    1.7130 C.3    88  LEU88       0.0001
    125  CD2      -24.8580   18.4670    0.1310 C.3    88  LEU88       0.0001
    126  N        -23.1580   15.6890    3.9480 N.am   89  ASN89      -0.1974
    127  CA       -23.8810   15.2200    5.0530 C.3    89  ASN89       0.1688
    128  C        -23.0590   15.2580    6.3640 C.2    89  ASN89       0.2292
    129  O        -23.5360   15.5570    7.4690 O.2    89  ASN89      -0.2864
    130  CB       -24.3490   13.7640    4.8360 C.3    89  ASN89       0.1181
    131  CG       -25.3190   13.6160    3.6880 C.2    89  ASN89       0.2629
    132  OD1      -26.0050   14.5450    3.2990 O.2    89  ASN89      -0.2716
    133  ND2      -25.3780   12.4300    3.1540 N.am   89  ASN89      -0.0877
    134  N        -20.9250   17.6370   -2.2930 N.3   130  ARG130     -0.1245
    135  CA       -21.6690   16.4380   -2.5650 C.3   130  ARG130      0.1563
    136  C        -20.9020   15.3640   -3.3150 C.2   130  ARG130      0.2260
    137  O        -21.3610   14.2470   -3.3380 O.2   130  ARG130     -0.2867
    138  CB       -22.9560   16.7440   -3.3300 C.3   130  ARG130      0.0307
    139  CG       -22.6730   17.2900   -4.6980 C.3   130  ARG130      0.0489
    140  CD       -23.8940   17.5730   -5.5690 C.3   130  ARG130      0.2205
    141  NE       -23.4640   18.2510   -6.8180 N.pl3 130  ARG130     -0.0865
    142  CZ       -23.2010   19.5560   -6.9290 C.cat 130  ARG130      0.5346
    143  NH1      -23.4110   20.3810   -5.9020 N.pl3 130  ARG130      0.1354
    144  NH2      -22.8050   20.0750   -8.0770 N.pl3 130  ARG130      0.1354
    145  N        -16.0660   12.5180   -0.3270 N.3   133  LEU133     -0.1245
    146  CA       -16.3740   11.4480    0.6150 C.3   133  LEU133      0.1561
    147  C        -15.3880   11.5260    1.7710 C.2   133  LEU133      0.2260
    148  O        -14.2880   12.0950    1.6370 O.2   133  LEU133     -0.2867
    149  CB       -16.3250   10.0820   -0.1080 C.3   133  LEU133      0.0270
    150  CG       -17.4270    9.8660   -1.1730 C.3   133  LEU133      0.0019
    151  CD1      -17.1220    8.6800   -2.0760 C.3   133  LEU133      0.0001
    152  CD2      -18.8010    9.5230   -0.5110 C.3   133  LEU133      0.0001
@<TRIPOS>BOND
     1    46    45    2
     2    45    44    1
     3    47    44    1
     4    47    48    1
     5    49    48    1
     6    49    50    1
     7   144   142    1
     8    44    43    1
     9    65    63    1
    10    51    50    1
    11   142   141    2
    12   142   143    1
    13   141   140    1
    14    55    54    2
    15    59    60    1
    16    63    60    1
    17    63    64    1
    18    60    61    1
    19   140   139    1
    20    54    53    1
    21    37    35    1
    22    41    40    2
    23    31    32    1
    24   139   138    1
    25    61    66   am
    26    61    62    2
    27    52    53    1
    28    32    35    1
    29    32    33    1
    30    40    39    1
    31    53    56    1
    32    56    57    1
    33    56    58    1
    34    66    67    1
    35    35    36    1
    36   137   136    2
    37   138   135    1
    38   136   135    1
    39    33    34    2
    40    30    29    2
    41    39    42    1
    42    39    38    1
    43    67    70    1
    44    67    68    1
    45    70    71    1
    46   135   134    1
    47    29    28    1
    48    73    72   ar
    49    69    68    2
    50    17    16   ar
    51   151   150    1
    52    68    75   am
    53    16    18   ar
    54    16    15    1
    55    71    72    1
    56    72    74   ar
    57   150   152    1
    58   150   149    1
    59    28    27    1
    60    75    76    1
    61    15    14    1
    62    27    21   am
    63   145   146    1
    64   149   146    1
    65   125   123    1
    66    76    79    1
    67    76    77    1
    68    25    24    1
    69    23    20    1
    70    23    24    1
    71    92    93    1
    72    92    91    1
    73    14    11    1
    74    19    20    1
    75    19    12   am
    76    21    20    1
    77    21    22    2
    78   146   147    1
    79    11    12    1
    80    11    10    1
    81     4     3    2
    82   116   117    1
    83   116   113    1
    84    24    26    1
    85    93    94    1
    86    79    80    1
    87    77    87   am
    88    77    78    2
    89    12    13    2
    90   122   123    1
    91   122   119    1
    92   123   124    1
    93    87    88    1
    94    91    88    1
    95     3    10   am
    96     3     2    1
    97   148   147    2
    98    81    80   ar
    99    81    83   ar
   100   113   112    1
   101   113   114    1
   102    80    82   ar
   103     1     2    1
   104    88    89    1
   105   118   119    1
   106   112   110   am
   107   114   115    2
   108     2     5    1
   109   119   120    1
   110    83    85   ar
   111   111   110    2
   112   110   109    1
   113   133   131   am
   114    90    89    2
   115    82    84   ar
   116   132   131    2
   117    89    95   am
   118   109   108    1
   119   131   130    1
   120   120   126   am
   121   120   121    2
   122   126   127    1
   123     5     6    1
   124    85    84   ar
   125    85    86    1
   126   108   102   am
   127    95    96    1
   128     6     7    1
   129   130   127    1
   130   127   128    1
   131     8     9    1
   132     8     7    1
   133    96    97    1
   134    96    99    1
   135   102   103    2
   136   102   101    1
   137   100    97   am
   138   100   101    1
   139    97    98    2
   140   128   129    2
   141   101   104    1
   142   104   105    1
   143   105   106    2
   144   105   107   am
