@<TRIPOS>MOLECULE
tmp/5p9mA00.pdb
 215 204 0 0 0
SMALL
GASTEIGER

@<TRIPOS>ATOM
      1  N        -25.9540    1.3100    0.6960 N.3    20  LEU20      -0.1231
      2  CA       -25.5460    2.6720    1.1010 C.3    20  LEU20       0.1693
      3  C        -26.4880    3.7530    0.5880 C.2    20  LEU20       0.2593
      4  O        -26.3500    4.9010    1.0090 O.2    20  LEU20      -0.2718
      5  CB       -24.1380    2.9650    0.6330 C.3    20  LEU20       0.0284
      6  CG       -23.0700    2.0140    1.1840 C.3    20  LEU20       0.0019
      7  CD1      -21.6940    2.2630    0.6110 C.3    20  LEU20       0.0001
      8  CD2      -23.0530    2.0430    2.7170 C.3    20  LEU20       0.0001
      9  N        -27.4660    3.3380   -0.2140 N.am   21  GLY21      -0.1942
     10  CA       -28.5370    4.1880   -0.7250 C.3    21  GLY21       0.2014
     11  C        -28.3130    4.5500   -2.1780 C.2    21  GLY21       0.2640
     12  O        -27.5120    3.9130   -2.8890 O.2    21  GLY21      -0.2714
     13  N        -29.0340    5.5740   -2.6310 N.am   22  THR22      -0.1936
     14  CA       -28.8900    6.0550   -4.0090 C.3    22  THR22       0.2028
     15  C        -27.8490    7.1840   -4.0080 C.2    22  THR22       0.2643
     16  O        -27.9750    8.1710   -3.2810 O.2    22  THR22      -0.2714
     17  CB       -30.2450    6.4710   -4.6340 C.3    22  THR22       0.1808
     18  OG1      -30.8660    7.4730   -3.8250 O.3    22  THR22      -0.2208
     19  CG2      -31.1870    5.2610   -4.7240 C.3    22  THR22       0.0379
     20  N        -26.7930    6.9930   -4.7950 N.am   23  GLY23      -0.1939
     21  CA       -25.7030    7.9560   -4.8860 C.3    23  GLY23       0.2014
     22  C        -25.8150    8.7950   -6.1400 C.2    23  GLY23       0.2638
     23  O        -26.8690    8.8180   -6.7780 O.2    23  GLY23      -0.2714
     24  N        -24.7390    9.4980   -6.4930 N.am   24  GLN24      -0.1977
     25  CA       -24.7010   10.2470   -7.7580 C.3    24  GLN24       0.1601
     26  C        -24.7320    9.2790   -8.9720 C.2    24  GLN24       0.2287
     27  O        -23.8000    8.5090   -9.2250 O.2    24  GLN24      -0.2864
     28  CB       -23.4880   11.1920   -7.8200 C.3    24  GLN24       0.0394
     29  CG       -23.5090   12.2270   -6.7110 C.3    24  GLN24       0.0908
     30  CD       -24.5490   13.3040   -6.8980 C.2    24  GLN24       0.2608
     31  OE1      -25.2450   13.4020   -7.9070 O.2    24  GLN24      -0.2717
     32  NE2      -24.6520   14.1500   -5.8700 N.am   24  GLN24      -0.0878
     33  N        -25.6530    2.4510   -4.5790 N.3    28  VAL28      -0.1245
     34  CA       -24.3070    2.1340   -4.1480 C.3    28  VAL28       0.1561
     35  C        -24.3580    1.1440   -2.9990 C.2    28  VAL28       0.2260
     36  O        -25.2030    1.2790   -2.0930 O.2    28  VAL28      -0.2867
     37  CB       -23.5420    3.3950   -3.6870 C.3    28  VAL28       0.0252
     38  CG1      -22.0970    3.0610   -3.3140 C.3    28  VAL28       0.0019
     39  CG2      -23.5160    4.4290   -4.7910 C.3    28  VAL28       0.0019
     40  N        -16.5340   -0.1030   -2.4560 N.3    40  ALA40      -0.1245
     41  CA       -17.8570    0.3640   -2.7920 C.3    40  ALA40       0.1562
     42  C        -18.2070   -0.0590   -4.2120 C.2    40  ALA40       0.2260
     43  O        -17.3140   -0.1360   -5.0740 O.2    40  ALA40      -0.2867
     44  CB       -17.8920    1.8930   -2.6990 C.3    40  ALA40       0.0290
     45  N        -20.8620    0.8790   -7.2230 N.3    42  LYS42      -0.1245
     46  CA       -21.8620    1.7940   -7.7420 C.3    42  LYS42       0.1561
     47  C        -22.4600    1.1310   -8.9610 C.2    42  LYS42       0.2260
     48  O        -21.7390    0.8010   -9.8990 O.2    42  LYS42      -0.2867
     49  CB       -21.2530    3.1660   -8.0620 C.3    42  LYS42       0.0271
     50  CG       -22.2580    4.2060   -8.6310 C.3    42  LYS42       0.0035
     51  CD       -21.6560    5.5850   -8.9100 C.3    42  LYS42       0.0206
     52  CE       -21.8250    6.5530   -7.7680 C.3    42  LYS42       0.1093
     53  NZ       -21.4570    7.9670   -8.1590 N.3    42  LYS42      -0.1314
     54  N        -17.8860    5.8590  -21.3850 N.3    54  PHE54      -0.1241
     55  CA       -17.4380    5.7160  -20.0370 C.3    54  PHE54       0.1605
     56  C        -16.4110    4.6180  -19.8660 C.2    54  PHE54       0.2264
     57  O        -15.4140    4.7880  -19.1850 O.2    54  PHE54      -0.2867
     58  CB       -18.6050    5.4820  -19.0450 C.3    54  PHE54       0.0534
     59  CG       -18.1140    5.0580  -17.6860 C.ar   54  PHE54      -0.0203
     60  CD1      -17.4140    5.9310  -16.8970 C.ar   54  PHE54      -0.0042
     61  CD2      -18.2970    3.7690  -17.2570 C.ar   54  PHE54      -0.0042
     62  CE1      -16.9020    5.5300  -15.6600 C.ar   54  PHE54      -0.0003
     63  CE2      -17.8100    3.3570  -16.0340 C.ar   54  PHE54      -0.0003
     64  CZ       -17.0660    4.2320  -15.2650 C.ar   54  PHE54      -0.0000
     65  N         -8.9350    6.4910  -16.0070 N.3    61  MET61      -0.1245
     66  CA        -9.1970    6.7550  -14.5990 C.3    61  MET61       0.1570
     67  C         -8.5190    5.7680  -13.6590 C.2    61  MET61       0.2261
     68  O         -8.1040    6.1460  -12.5830 O.2    61  MET61      -0.2867
     69  CB       -10.6690    6.8070  -14.2940 C.3    61  MET61       0.0387
     70  CG       -11.4400    7.8940  -15.0500 C.3    61  MET61       0.0595
     71  SD       -13.1610    7.6760  -15.0540 S.3    61  MET61      -0.1393
     72  CE       -13.6810    8.1380  -13.4300 C.3    61  MET61       0.0692
     73  N        -10.5020    9.3580   -4.5190 N.3    70  VAL70      -0.1245
     74  CA       -11.1640    8.0540   -4.4020 C.3    70  VAL70       0.1561
     75  C        -10.6900    7.1540   -5.5760 C.2    70  VAL70       0.2260
     76  O        -10.9080    7.4560   -6.7540 O.2    70  VAL70      -0.2867
     77  CB       -12.7040    8.1990   -4.3690 C.3    70  VAL70       0.0252
     78  CG1      -13.4210    6.8130   -4.4510 C.3    70  VAL70       0.0019
     79  CG2      -13.1530    9.0010   -3.1620 C.3    70  VAL70       0.0019
     80  N        -10.4650    4.3560   -8.3330 N.3    72  LEU72      -0.1245
     81  CA       -11.3040    3.4850   -9.1550 C.3    72  LEU72       0.1561
     82  C        -10.5020    2.2090   -9.2990 C.2    72  LEU72       0.2260
     83  O         -9.3890    2.2230   -9.7800 O.2    72  LEU72      -0.2867
     84  CB       -11.5490    4.1150  -10.5380 C.3    72  LEU72       0.0270
     85  CG       -12.1580    3.0670  -11.5060 C.3    72  LEU72       0.0019
     86  CD1      -13.6120    2.9730  -11.2230 C.3    72  LEU72       0.0001
     87  CD2      -11.9410    3.4560  -12.9610 C.3    72  LEU72       0.0001
     88  N        -19.3020    0.1080  -11.0520 N.3    84  ILE84      -0.1245
     89  CA       -18.0400    0.8030  -10.8460 C.3    84  ILE84       0.1561
     90  C        -17.5480    0.3820   -9.4600 C.2    84  ILE84       0.2260
     91  O        -18.2780    0.5820   -8.4950 O.2    84  ILE84      -0.2867
     92  CB       -18.1930    2.3490  -10.8850 C.3    84  ILE84       0.0252
     93  CG1      -18.9410    2.7690  -12.1490 C.3    84  ILE84       0.0019
     94  CG2      -16.8150    2.9820  -10.7840 C.3    84  ILE84       0.0019
     95  CD1      -19.2040    4.2680  -12.1610 C.3    84  ILE84       0.0001
     96  N        -14.8920    0.8310   -6.4070 N.3    86  THR86      -0.1203
     97  CA       -14.0350    1.8960   -5.9370 C.3    86  THR86       0.1994
     98  C        -13.6130    1.7130   -4.4950 C.2    86  THR86       0.2618
     99  O        -14.1400    0.8400   -3.7580 O.2    86  THR86      -0.2717
    100  CB       -14.6850    3.3060   -6.0290 C.3    86  THR86       0.1784
    101  OG1      -15.6380    3.4910   -4.9730 O.3    86  THR86      -0.2211
    102  CG2      -15.3290    3.5190   -7.3640 C.3    86  THR86       0.0376
    103  N        -12.6610    2.5410   -4.0780 N.am   87  GLU87      -0.1965
    104  CA       -12.3000    2.6800   -2.6680 C.3    87  GLU87       0.1733
    105  C        -13.5550    2.9210   -1.8180 C.2    87  GLU87       0.2616
    106  O        -14.4510    3.7180   -2.2020 O.2    87  GLU87      -0.2715
    107  CB       -11.3320    3.8830   -2.5750 C.3    87  GLU87       0.0429
    108  CG       -10.8390    4.1860   -1.2050 C.3    87  GLU87       0.1163
    109  CD        -9.7070    5.1970   -1.2300 C.2    87  GLU87       0.3649
    110  OE1       -9.3220    5.7300   -2.3340 O.co2  87  GLU87      -0.2457
    111  OE2       -9.2220    5.4750   -0.1130 O.co2  87  GLU87      -0.2457
    112  N        -13.6250    2.3090   -0.6340 N.am   88  TYR88      -0.1960
    113  CA       -14.7180    2.4750    0.2850 C.3    88  TYR88       0.1771
    114  C        -14.4560    3.6170    1.2410 C.2    88  TYR88       0.2619
    115  O        -13.4160    3.6430    1.8950 O.2    88  TYR88      -0.2715
    116  CB       -14.9070    1.1920    1.0740 C.3    88  TYR88       0.0574
    117  CG       -16.0100    1.2660    2.0950 C.ar   88  TYR88      -0.0198
    118  CD1      -17.3240    1.6080    1.7400 C.ar   88  TYR88      -0.0009
    119  CD2      -15.7460    1.0060    3.4250 C.ar   88  TYR88      -0.0009
    120  CE1      -18.3220    1.7110    2.6950 C.ar   88  TYR88       0.0417
    121  CE2      -16.7580    1.0760    4.3660 C.ar   88  TYR88       0.0417
    122  CZ       -18.0360    1.4330    3.9870 C.ar   88  TYR88       0.1957
    123  OH       -19.0530    1.4990    4.9630 O.3    88  TYR88      -0.2866
    124  N        -15.4170    4.5160    1.3660 N.am   89  MET89      -0.1977
    125  CA       -15.2970    5.7700    2.1980 C.3    89  MET89       0.1605
    126  C        -16.3840    5.7070    3.2670 C.2    89  MET89       0.2287
    127  O        -17.5270    6.0650    3.0650 O.2    89  MET89      -0.2864
    128  CB       -15.4520    6.9650    1.2370 C.3    89  MET89       0.0413
    129  CG       -14.4690    7.0280    0.1240 C.3    89  MET89       0.0598
    130  SD       -12.7920    7.3540    0.6680 S.3    89  MET89      -0.1393
    131  CE       -12.9210    9.0820    1.1510 C.3    89  MET89       0.0692
    132  N        -19.0440    8.4190    4.2990 N.3    92  GLY92      -0.1210
    133  CA       -20.0680    8.9140    3.3780 C.3    92  GLY92       0.1956
    134  C        -19.7650   10.2880    2.7970 C.2    92  GLY92       0.2612
    135  O        -18.6280   10.6650    2.6430 O.2    92  GLY92      -0.2717
    136  N        -20.8350   10.9990    2.4310 N.am   93  CYS93      -0.1956
    137  CA       -20.8120   12.2800    1.7230 C.3    93  CYS93       0.1843
    138  C        -20.2590   13.3940    2.6110 C.2    93  CYS93       0.2625
    139  O        -20.7100   13.5440    3.7040 O.2    93  CYS93      -0.2714
    140  CB       -22.2880   12.7130    1.2520 C.3    93  CYS93       0.0997
    141  SG       -23.0410   11.4120    0.2920 S.3    93  CYS93      -0.0797
    142  N        -19.3670   14.1980    2.0530 N.am   94  LEU94      -0.1977
    143  CA       -18.8630   15.3960    2.7810 C.3    94  LEU94       0.1596
    144  C        -19.9730   16.3190    3.2670 C.2    94  LEU94       0.2287
    145  O        -19.9190   16.7890    4.4120 O.2    94  LEU94      -0.2864
    146  CB       -17.8990   16.1750    1.9300 C.3    94  LEU94       0.0297
    147  CG       -17.3400   17.4580    2.5800 C.3    94  LEU94       0.0022
    148  CD1      -16.6070   17.1390    3.8470 C.3    94  LEU94       0.0001
    149  CD2      -16.4400   18.1530    1.5680 C.3    94  LEU94       0.0001
    150  N        -20.8830   17.7810   -2.7010 N.3   137  ARG137     -0.1231
    151  CA       -21.7500   16.6220   -2.9590 C.3   137  ARG137      0.1694
    152  C        -21.0290   15.5040   -3.6440 C.2   137  ARG137      0.2592
    153  O        -21.5520   14.3830   -3.6530 O.2   137  ARG137     -0.2718
    154  CB       -23.0010   17.0180   -3.7290 C.3   137  ARG137      0.0321
    155  CG       -22.7500   17.4910   -5.1200 C.3   137  ARG137      0.0489
    156  CD       -23.9940   18.2310   -5.7060 C.3   137  ARG137      0.2205
    157  NE       -23.5960   19.3500   -6.5750 N.pl3 137  ARG137     -0.0865
    158  CZ       -22.9920   19.2190   -7.7470 C.cat 137  ARG137      0.5346
    159  NH1      -22.7310   18.0130   -8.2450 N.pl3 137  ARG137      0.1354
    160  NH2      -22.6270   20.2930   -8.4110 N.pl3 137  ARG137      0.1354
    161  N        -19.8410   15.7120   -4.1870 N.am  138  ASN138     -0.1960
    162  CA       -19.0560   14.5250   -4.6070 C.3   138  ASN138      0.1819
    163  C        -17.6580   14.5050   -4.0540 C.2   138  ASN138      0.2621
    164  O        -16.6480   14.1990   -4.7240 O.2   138  ASN138     -0.2715
    165  CB       -19.0900   14.3720   -6.0890 C.3   138  ASN138      0.1195
    166  CG       -18.6700   15.6030   -6.7660 C.2   138  ASN138      0.2630
    167  OD1      -17.6790   16.1720   -6.3450 O.2   138  ASN138     -0.2716
    168  ND2      -19.4080   16.0330   -7.8850 N.am  138  ASN138     -0.0877
    169  N        -17.5730   14.8660   -2.8130 N.am  139  CYS139     -0.1954
    170  CA       -16.4530   14.5070   -1.9840 C.3   139  CYS139      0.1843
    171  C        -16.9830   13.5520   -0.9020 C.2   139  CYS139      0.2625
    172  O        -18.1350   13.6430   -0.4390 O.2   139  CYS139     -0.2714
    173  CB       -15.8730   15.7500   -1.2940 C.3   139  CYS139      0.0997
    174  SG       -15.1880   16.9840   -2.4270 S.3   139  CYS139     -0.0797
    175  N        -16.1190   12.5980   -0.5640 N.am  140  LEU140     -0.1977
    176  CA       -16.4270   11.5670    0.4180 C.3   140  LEU140      0.1596
    177  C        -15.4420   11.6260    1.5670 C.2   140  LEU140      0.2287
    178  O        -14.3320   12.1720    1.4640 O.2   140  LEU140     -0.2864
    179  CB       -16.3840   10.1840   -0.2530 C.3   140  LEU140      0.0297
    180  CG       -17.3680   10.0030   -1.4200 C.3   140  LEU140      0.0022
    181  CD1      -17.0410    8.7350   -2.2220 C.3   140  LEU140      0.0001
    182  CD2      -18.7070    9.8350   -0.7790 C.3   140  LEU140      0.0001
    183  N        -14.1330   12.5690   -5.5470 N.3   150  SER150     -0.1202
    184  CA       -14.8060   11.4810   -6.2300 C.3   150  SER150      0.2020
    185  C        -15.5630   11.9650   -7.4690 C.2   150  SER150      0.2619
    186  O        -15.7270   13.1350   -7.6740 O.2   150  SER150     -0.2717
    187  CB       -15.7320   10.8690   -5.2090 C.3   150  SER150      0.2103
    188  OG       -16.3400    9.7670   -5.7010 O.3   150  SER150     -0.2182
    189  N        -16.0150   11.0220   -8.3080 N.am  151  ASP151     -0.1959
    190  CA       -16.8430   11.3170   -9.5030 C.3   151  ASP151      0.1840
    191  C        -16.1380   12.2320  -10.4630 C.2   151  ASP151      0.2622
    192  O        -16.7710   12.9380  -11.2990 O.2   151  ASP151     -0.2715
    193  CB       -18.1990   11.8840   -9.1260 C.3   151  ASP151      0.1450
    194  CG       -19.1420   10.8420   -8.6140 C.2   151  ASP151      0.3671
    195  OD1      -18.8840    9.6230   -8.7700 O.co2 151  ASP151     -0.2456
    196  OD2      -20.2010   11.2590   -8.0830 O.co2 151  ASP151     -0.2456
    197  N        -14.8160   12.1670  -10.4550 N.am  152  PHE152     -0.1974
    198  CA       -13.9880   13.0740  -11.2820 C.3   152  PHE152      0.1639
    199  C        -14.2340   12.7870  -12.7530 C.2   152  PHE152      0.2290
    200  O        -14.0720   11.6850  -13.2410 O.2   152  PHE152     -0.2864
    201  CB       -12.5120   13.0310  -10.9030 C.3   152  PHE152      0.0560
    202  CG       -11.9920   11.6710  -10.4760 C.ar  152  PHE152     -0.0200
    203  CD1      -12.0440   11.3150   -9.1450 C.ar  152  PHE152     -0.0042
    204  CD2      -11.3920   10.8240  -11.3520 C.ar  152  PHE152     -0.0042
    205  CE1      -11.5430   10.0960   -8.7140 C.ar  152  PHE152     -0.0003
    206  CE2      -10.8750    9.6170  -10.9190 C.ar  152  PHE152     -0.0003
    207  CZ       -10.9750    9.2530   -9.6150 C.ar  152  PHE152     -0.0000
    208  N        -16.8440   12.4750  -14.3670 N.3   154  LEU154     -0.1245
    209  CA       -17.9040   11.5450  -14.7360 C.3   154  LEU154      0.1561
    210  C        -19.0970   12.2060  -15.4100 C.2   154  LEU154      0.2260
    211  O        -19.8350   11.5470  -16.1480 O.2   154  LEU154     -0.2867
    212  CB       -18.3640   10.7980  -13.4770 C.3   154  LEU154      0.0270
    213  CG       -19.1820    9.5420  -13.6290 C.3   154  LEU154      0.0019
    214  CD1      -18.3500    8.4960  -14.3690 C.3   154  LEU154      0.0001
    215  CD2      -19.6060    9.0880  -12.2280 C.3   154  LEU154      0.0001
@<TRIPOS>BOND
     1    54    55    1
     2    55    56    1
     3    55    58    1
     4    56    57    2
     5    58    59    1
     6    59    61   ar
     7    59    60   ar
     8    61    63   ar
     9    60    62   ar
    10   211   210    2
    11    63    64   ar
    12    65    66    1
    13    62    64   ar
    14   210   209    1
    15    71    70    1
    16    71    72    1
    17    70    69    1
    18   209   208    1
    19   209   212    1
    20    66    69    1
    21    66    67    1
    22   214   213    1
    23    67    68    2
    24   213   212    1
    25   213   215    1
    26   200   199    2
    27    87    85    1
    28   199   198    1
    29    95    93    1
    30    93    92    1
    31    85    86    1
    32    85    84    1
    33   204   206   ar
    34   204   202   ar
    35   192   191    2
    36   198   201    1
    37   198   197    1
    38    88    89    1
    39   206   207   ar
    40   201   202    1
    41    92    89    1
    42    92    94    1
    43    89    90    1
    44    84    81    1
    45   202   203   ar
    46   191   197   am
    47   191   190    1
    48    48    47    2
    49    83    82    2
    50   207   205   ar
    51   190   193    1
    52   190   189    1
    53    90    91    2
    54    82    81    1
    55    27    26    2
    56    81    80    1
    57   203   205   ar
    58   193   194    1
    59    26    25    1
    60    47    46    1
    61    51    50    1
    62    51    52    1
    63   195   194   ar
    64    50    49    1
    65   194   196   ar
    66   160   158    1
    67   189   185   am
    68   159   158    1
    69    53    52    1
    70    49    46    1
    71    31    30    2
    72   168   166   am
    73    28    25    1
    74    28    29    1
    75    25    24    1
    76   158   157    2
    77    46    45    1
    78   186   185    2
    79   185   184    1
    80   102   100    1
    81    30    29    1
    82    30    32   am
    83    23    22    2
    84   166   167    2
    85   166   165    1
    86    76    75    2
    87   157   156    1
    88    24    22   am
    89    96    97    1
    90   184   183    1
    91   184   187    1
    92    22    21    1
    93   165   162    1
    94   100    97    1
    95   100   101    1
    96    97    98    1
    97   156   155    1
    98   188   187    1
    99    75    74    1
   100   155   154    1
   101    43    42    2
   102    21    20    1
   103    20    15   am
   104    39    37    1
   105   164   163    2
   106    19    17    1
   107    17    14    1
   108    17    18    1
   109   162   161    1
   110   162   163    1
   111    33    34    1
   112    73    74    1
   113    98   103   am
   114    98    99    2
   115    78    77    1
   116    74    77    1
   117    77    79    1
   118    42    41    1
   119   161   152   am
   120    34    37    1
   121    34    35    1
   122   103   104    1
   123   163   169   am
   124    14    15    1
   125    14    13    1
   126    15    16    2
   127   154   151    1
   128    37    38    1
   129   153   152    2
   130   152   151    1
   131    35    36    2
   132   151   150    1
   133    12    11    2
   134   169   170    1
   135    41    44    1
   136    41    40    1
   137   104   107    1
   138   104   105    1
   139    13    11   am
   140   107   108    1
   141   174   173    1
   142   110   109   ar
   143   181   180    1
   144   106   105    2
   145    11    10    1
   146   170   173    1
   147   170   171    1
   148   105   112   am
   149   180   182    1
   150   180   179    1
   151   109   108    1
   152   109   111   ar
   153   171   175   am
   154   171   172    2
   155    10     9    1
   156   112   113    1
   157   175   176    1
   158   179   176    1
   159     9     3   am
   160   129   130    1
   161   129   128    1
   162   113   116    1
   163   113   114    1
   164   141   140    1
   165   176   177    1
   166     3     4    2
   167     3     2    1
   168     7     6    1
   169     5     2    1
   170     5     6    1
   171   130   131    1
   172     1     2    1
   173   116   117    1
   174     6     8    1
   175   128   125    1
   176   114   124   am
   177   114   115    2
   178   140   137    1
   179   124   125    1
   180   178   177    2
   181   149   147    1
   182   137   136    1
   183   137   138    1
   184   118   117   ar
   185   118   120   ar
   186   146   147    1
   187   146   143    1
   188   142   138   am
   189   142   143    1
   190   117   119   ar
   191   125   126    1
   192   136   134   am
   193   147   148    1
   194   138   139    2
   195   135   134    2
   196   120   122   ar
   197   143   144    1
   198   134   133    1
   199   127   126    2
   200   144   145    2
   201   133   132    1
   202   119   121   ar
   203   122   121   ar
   204   122   123    1
