@<TRIPOS>MOLECULE
tmp/5p9nA01.pdb
 200 195 0 0 0
SMALL
GASTEIGER

@<TRIPOS>ATOM
      1  N          6.0760   13.8750   14.8130 N.3    36  TRP36      -0.1241
      2  CA         5.9800   13.8980   16.2640 C.3    36  TRP36       0.1605
      3  C          4.9650   12.8980   16.7530 C.2    36  TRP36       0.2264
      4  O          3.9390   12.6890   16.1280 O.2    36  TRP36      -0.2867
      5  CB         5.5260   15.2890   16.7240 C.3    36  TRP36       0.0550
      6  CG         5.4980   15.5350   18.1930 C.ar   36  TRP36       0.0003
      7  CD1        6.5470   15.9590   18.9600 C.ar   36  TRP36       0.0946
      8  CD2        4.4370   15.2390   19.1310 C.ar   36  TRP36       0.0152
      9  NE1        6.1710   16.0020   20.2670 N.ar   36  TRP36      -0.2442
     10  CE2        4.8830   15.5860   20.4100 C.ar   36  TRP36       0.0810
     11  CE3        3.1310   14.8140   18.9890 C.ar   36  TRP36       0.0012
     12  CZ2        4.0720   15.4480   21.5440 C.ar   36  TRP36       0.0191
     13  CZ3        2.3120   14.6970   20.0620 C.ar   36  TRP36       0.0001
     14  CH2        2.7900   15.0160   21.3590 C.ar   36  TRP36       0.0015
     15  N          3.3620   11.2440   20.8160 N.3    38  MET38      -0.1245
     16  CA         3.3040   11.4190   22.2470 C.3    38  MET38       0.1570
     17  C          4.0010   10.3240   23.0780 C.2    38  MET38       0.2261
     18  O          3.5120    9.8860   24.1090 O.2    38  MET38      -0.2867
     19  CB         1.8770   11.5940   22.7380 C.3    38  MET38       0.0387
     20  CG         1.0230   10.4220   22.5310 C.3    38  MET38       0.0595
     21  SD        -0.5800   10.6720   23.2660 S.3    38  MET38      -0.1393
     22  CE        -0.9810   12.1550   22.3600 C.3    38  MET38       0.0692
     23  N         -1.5690    3.7650   30.0830 N.3    64  GLY64      -0.1225
     24  CA        -1.4350    4.4670   28.8120 C.3    64  GLY64       0.1811
     25  C         -0.2790    4.0520   27.9080 C.2    64  GLY64       0.2280
     26  O          0.6110    4.8390   27.6390 O.2    64  GLY64      -0.2866
     27  N          0.1530    3.5200   24.6020 N.3    66  TYR66      -0.1241
     28  CA         0.3380    4.1580   23.2720 C.3    66  TYR66       0.1605
     29  C          0.9810    3.2050   22.2710 C.2    66  TYR66       0.2264
     30  O          0.3310    2.2320   21.8740 O.2    66  TYR66      -0.2867
     31  CB         0.9620    5.5520   23.3930 C.3    66  TYR66       0.0534
     32  CG         1.0060    6.2970   22.0720 C.ar   66  TYR66      -0.0201
     33  CD1       -0.1060    6.3210   21.2190 C.ar   66  TYR66      -0.0009
     34  CD2        2.1310    6.9870   21.6840 C.ar   66  TYR66      -0.0009
     35  CE1       -0.0950    6.9780   20.0010 C.ar   66  TYR66       0.0417
     36  CE2        2.1670    7.6670   20.4640 C.ar   66  TYR66       0.0417
     37  CZ         1.0500    7.6100   19.6350 C.ar   66  TYR66       0.1957
     38  OH         1.1060    8.2920   18.4600 O.3    66  TYR66      -0.2866
     39  N         -1.8300   -0.8610   30.5110 N.3    87  MET87      -0.1230
     40  CA        -3.2400   -0.7610   30.1550 C.3    87  MET87       0.1702
     41  C         -3.3960    0.2180   29.0030 C.2    87  MET87       0.2592
     42  O         -2.9040    1.3650   29.0660 O.2    87  MET87      -0.2718
     43  CB        -4.0330   -0.3470   31.3670 C.3    87  MET87       0.0401
     44  CG        -3.9870   -1.3400   32.4760 C.3    87  MET87       0.0596
     45  SD        -4.9350   -0.8900   33.9140 S.3    87  MET87      -0.1393
     46  CE        -4.8080   -2.3320   34.9560 C.3    87  MET87       0.0692
     47  N         -4.1260   -0.1750   27.9670 N.am   88  GLU88      -0.1966
     48  CA        -4.3310    0.6710   26.8010 C.3    88  GLU88       0.1733
     49  C         -5.7670    0.5050   26.3090 C.2    88  GLU88       0.2616
     50  O         -6.1630   -0.6020   26.0040 O.2    88  GLU88      -0.2715
     51  CB        -3.3310    0.2840   25.6880 C.3    88  GLU88       0.0429
     52  CG        -3.5010    1.0720   24.3820 C.3    88  GLU88       0.1163
     53  CD        -3.5360    2.5270   24.5800 C.2    88  GLU88       0.3649
     54  OE1       -2.6210    3.0700   25.2530 O.co2  88  GLU88      -0.2457
     55  OE2       -4.5890    3.1420   24.2150 O.co2  88  GLU88      -0.2457
     56  N         -6.5060    1.5860   26.2730 N.am   89  ILE89      -0.1963
     57  CA        -7.9050    1.5240   25.8820 C.3    89  ILE89       0.1727
     58  C         -8.1030    1.3920   24.3720 C.2    89  ILE89       0.2616
     59  O         -9.1530    0.9010   23.9620 O.2    89  ILE89      -0.2715
     60  CB        -8.6240    2.7770   26.4490 C.3    89  ILE89       0.0290
     61  CG1      -10.1330    2.5920   26.5330 C.3    89  ILE89       0.0022
     62  CG2       -8.2460    4.0250   25.6440 C.3    89  ILE89       0.0023
     63  CD1      -10.8630    3.7030   27.2810 C.3    89  ILE89       0.0001
     64  N         -7.1530    1.8880   23.5730 N.am   90  ASN90      -0.1972
     65  CA        -7.3150    1.9370   22.1260 C.3    90  ASN90       0.1688
     66  C         -6.8070    0.6200   21.5420 C.2    90  ASN90       0.2292
     67  O         -5.6270    0.2740   21.6970 O.2    90  ASN90      -0.2864
     68  CB        -6.5900    3.1190   21.5360 C.3    90  ASN90       0.1181
     69  CG        -6.7250    3.1830   20.0530 C.2    90  ASN90       0.2629
     70  OD1       -6.1600    2.4080   19.3180 O.2    90  ASN90      -0.2716
     71  ND2       -7.5160    4.0900   19.5870 N.am   90  ASN90      -0.0877
     72  N         -3.7430    0.7280   19.1710 N.3    93  CYS93      -0.1235
     73  CA        -2.5340    0.9980   19.9100 C.3    93  CYS93       0.1677
     74  C         -2.0990   -0.2070   20.7710 C.2    93  CYS93       0.2270
     75  O         -0.9030   -0.4580   20.8580 O.2    93  CYS93      -0.2867
     76  CB        -2.6800    2.2540   20.6960 C.3    93  CYS93       0.0956
     77  SG        -2.7280    3.7720   19.7090 S.3    93  CYS93      -0.0801
     78  N         -8.0040   -2.3620   27.4680 N.3   115  GLY115     -0.1210
     79  CA        -9.2030   -1.9700   28.1610 C.3   115  GLY115      0.1956
     80  C         -8.9770   -0.6250   28.8960 C.2   115  GLY115      0.2612
     81  O         -7.8850   -0.0930   28.8740 O.2   115  GLY115     -0.2717
     82  N        -10.0230   -0.0980   29.5420 N.am  116  ALA116     -0.1965
     83  CA        -9.9580    1.1550   30.3110 C.3   116  ALA116      0.1728
     84  C         -9.3930    0.8620   31.6930 C.2   116  ALA116      0.2617
     85  O         -9.8260   -0.0640   32.3710 O.2   116  ALA116     -0.2715
     86  CB       -11.3330    1.8000   30.4180 C.3   116  ALA116      0.0334
     87  N         -8.4860    1.7280   32.1530 N.am  117  SER117     -0.1936
     88  CA        -7.8490    1.5750   33.4480 C.3   117  SER117      0.2055
     89  C         -8.8770    1.4400   34.5780 C.2   117  SER117      0.2642
     90  O         -8.7230    0.6480   35.4810 O.2   117  SER117     -0.2714
     91  CB        -6.9550    2.7830   33.6670 C.3   117  SER117      0.2130
     92  OG        -7.6490    3.9820   33.5590 O.3   117  SER117     -0.2179
     93  N         -9.9620    2.1980   34.5240 N.am  118  GLN118     -0.1976
     94  CA       -10.9040    2.2010   35.6580 C.3   118  GLN118      0.1601
     95  C        -11.6710    0.8780   35.6980 C.2   118  GLN118      0.2287
     96  O        -12.1660    0.4940   36.7450 O.2   118  GLN118     -0.2864
     97  CB       -11.8210    3.4140   35.7080 C.3   118  GLN118      0.0394
     98  CG       -12.8780    3.4600   34.6350 C.3   118  GLN118      0.0908
     99  CD       -12.4240    3.9000   33.2580 C.2   118  GLN118      0.2608
    100  OE1      -11.2460    4.1980   32.9910 O.2   118  GLN118     -0.2717
    101  NE2      -13.3970    3.8730   32.3130 N.am  118  GLN118     -0.0878
    102  N          0.3750    7.8630   32.3880 N.3   139  ASP139     -0.1225
    103  CA         0.5880    8.4990   31.0980 C.3   139  ASP139      0.1805
    104  C         -0.6240    8.4320   30.1860 C.2   139  ASP139      0.2598
    105  O         -0.4880    8.4830   28.9600 O.2   139  ASP139     -0.2718
    106  CB         1.8450    7.9400   30.4000 C.3   139  ASP139      0.1424
    107  CG         2.3410    8.7680   29.2760 C.2   139  ASP139      0.3668
    108  OD1        2.1850   10.0100   29.2690 O.co2 139  ASP139     -0.2456
    109  OD2        3.0370    8.1870   28.3890 O.co2 139  ASP139     -0.2456
    110  N         -1.8110    8.2740   30.7780 N.am  140  HIS140     -0.1961
    111  CA        -3.0580    8.1640   29.9990 C.3   140  HIS140      0.1787
    112  C         -3.7310    9.5390   29.9860 C.2   140  HIS140      0.2620
    113  O         -3.0510   10.5660   30.1290 O.2   140  HIS140     -0.2715
    114  CB        -3.8940    6.9850   30.4560 C.3   140  HIS140      0.0785
    115  CG        -4.3300    7.0260   31.8640 C.ar  140  HIS140      0.0821
    116  ND1       -3.6140    7.7040   32.8220 N.ar  140  HIS140     -0.2267
    117  CD2       -5.4040    6.4580   32.4790 C.ar  140  HIS140      0.1154
    118  CE1       -4.2420    7.5330   33.9840 C.ar  140  HIS140      0.1986
    119  NE2       -5.3030    6.7570   33.7990 N.ar  140  HIS140     -0.2212
    120  N         -5.0240    9.5950   29.8090 N.am  141  TRP141     -0.1960
    121  CA        -5.6760   10.8700   29.7740 C.3   141  TRP141      0.1771
    122  C         -5.4420   11.6340   31.0690 C.2   141  TRP141      0.2619
    123  O         -5.5320   11.0850   32.1680 O.2   141  TRP141     -0.2715
    124  CB        -7.2190   10.7200   29.5810 C.3   141  TRP141      0.0590
    125  CG        -7.6140   10.2040   28.2190 C.ar  141  TRP141      0.0006
    126  CD1       -7.0040   10.4780   27.0320 C.ar  141  TRP141      0.0946
    127  CD2       -8.7120    9.3580   27.9230 C.ar  141  TRP141      0.0152
    128  NE1       -7.6430    9.8200   26.0230 N.ar  141  TRP141     -0.2442
    129  CE2       -8.6870    9.1180   26.5490 C.ar  141  TRP141      0.0810
    130  CE3       -9.6780    8.7320   28.7030 C.ar  141  TRP141      0.0012
    131  CZ2       -9.5870    8.2750   25.9300 C.ar  141  TRP141      0.0191
    132  CZ3      -10.5990    7.9520   28.0880 C.ar  141  TRP141      0.0001
    133  CH2      -10.5550    7.7450   26.7120 C.ar  141  TRP141      0.0015
    134  N         -5.1010   12.9070   30.9510 N.am  142  LYS142     -0.1977
    135  CA        -4.5770   13.6700   32.0910 C.3   142  LYS142      0.1596
    136  C         -5.6010   13.8590   33.1770 C.2   142  LYS142      0.2287
    137  O         -5.2400   13.9050   34.3620 O.2   142  LYS142     -0.2864
    138  CB        -3.9260   14.9710   31.6620 C.3   142  LYS142      0.0298
    139  CG        -2.8870   14.7570   30.5130 C.3   142  LYS142      0.0038
    140  CD        -1.8920   13.6510   30.7280 C.3   142  LYS142      0.0206
    141  CE        -1.1690   13.2410   29.4540 C.3   142  LYS142      0.1093
    142  NZ        -0.5450   11.8900   29.6260 N.3   142  LYS142     -0.1314
    143  N         -7.5360   11.6270   34.1430 N.3   144  ARG144     -0.1245
    144  CA        -7.7430   10.3700   34.8030 C.3   144  ARG144      0.1563
    145  C         -6.6490   10.0630   35.8550 C.2   144  ARG144      0.2260
    146  O         -6.7310    9.0900   36.5870 O.2   144  ARG144     -0.2867
    147  CB        -7.8370    9.2620   33.8210 C.3   144  ARG144      0.0307
    148  CG        -8.9460    9.3740   32.7940 C.3   144  ARG144      0.0489
    149  CD       -10.3400    9.4920   33.3950 C.3   144  ARG144      0.2205
    150  NE       -11.3600    9.6020   32.3330 N.pl3 144  ARG144     -0.0865
    151  CZ       -11.8500    8.5650   31.6350 C.cat 144  ARG144      0.5346
    152  NH1      -12.7790    8.7710   30.7140 N.pl3 144  ARG144      0.1354
    153  NH2      -11.4530    7.3130   31.8920 N.pl3 144  ARG144      0.1354
    154  N          3.7510   11.4180   33.9930 N.3   167  ASP167     -0.1225
    155  CA         4.2260   12.1760   32.8660 C.3   167  ASP167      0.1805
    156  C          3.3390   13.4330   32.6900 C.2   167  ASP167      0.2597
    157  O          2.1770   13.4380   33.0680 O.2   167  ASP167     -0.2718
    158  CB         4.1810   11.3460   31.5630 C.3   167  ASP167      0.1424
    159  CG         4.9320   12.0000   30.3920 C.2   167  ASP167      0.3668
    160  OD1        5.8510   12.7720   30.6880 O.co2 167  ASP167     -0.2456
    161  OD2        4.6040   11.7030   29.1800 O.co2 167  ASP167     -0.2456
    162  N          3.8700   14.4520   32.0270 N.am  168  ASN168     -0.1974
    163  CA         3.0790   15.5390   31.5020 C.3   168  ASN168      0.1688
    164  C          2.4360   16.3720   32.5450 C.2   168  ASN168      0.2292
    165  O          1.3600   16.9420   32.3320 O.2   168  ASN168     -0.2864
    166  CB         1.9940   15.0460   30.5350 C.3   168  ASN168      0.1181
    167  CG         2.5430   14.2230   29.4210 C.2   168  ASN168      0.2629
    168  OD1        2.1820   13.0570   29.2870 O.2   168  ASN168     -0.2716
    169  ND2        3.4000   14.7950   28.6110 N.am  168  ASN168     -0.0877
    170  N          2.7860   19.9530   30.6610 N.3   171  VAL171     -0.1231
    171  CA         2.1350   20.0020   29.3350 C.3   171  VAL171      0.1678
    172  C          1.7910   18.5510   28.9640 C.2   171  VAL171      0.2434
    173  O          2.6830   17.7490   28.8160 O.2   171  VAL171     -0.2733
    174  CB         3.0390   20.6390   28.2280 C.3   171  VAL171      0.0265
    175  CG1        2.2800   20.6300   26.8770 C.3   171  VAL171      0.0020
    176  CG2        3.5350   22.0520   28.5890 C.3   171  VAL171      0.0020
    177  N          0.5010   18.2410   28.7050 N.am  172  PRO172     -0.2729
    178  CA        -0.6680   19.1400   28.8400 C.3   172  PRO172      0.1401
    179  C         -0.9670   19.6210   30.2270 C.2   172  PRO172      0.2269
    180  O         -1.7240   20.5770   30.4030 O.2   172  PRO172     -0.2865
    181  CB        -1.8050   18.2940   28.2910 C.3   172  PRO172      0.0296
    182  CG        -1.1310   17.3440   27.3210 C.3   172  PRO172      0.0237
    183  CD         0.1510   16.9840   28.0380 C.3   172  PRO172      0.0939
    184  N          9.1090   18.4860   27.0120 N.3   196  LEU196     -0.1231
    185  CA         8.1770   17.7260   26.2170 C.3   196  LEU196      0.1693
    186  C          8.9270   16.9430   25.1850 C.2   196  LEU196      0.2591
    187  O          9.8650   17.4350   24.5390 O.2   196  LEU196     -0.2718
    188  CB         7.2120   18.7340   25.5330 C.3   196  LEU196      0.0284
    189  CG         6.1140   18.1560   24.6830 C.3   196  LEU196      0.0019
    190  CD1        5.1510   17.3140   25.5460 C.3   196  LEU196      0.0001
    191  CD2        5.3480   19.2840   23.9950 C.3   196  LEU196      0.0001
    192  N          8.5040   15.7100   24.9540 N.am  197  GLU197     -0.1979
    193  CA         9.1340   14.8570   23.9950 C.3   197  GLU197      0.1602
    194  C          9.3020   15.5790   22.6420 C.2   197  GLU197      0.2287
    195  O          8.3570   16.1290   22.0710 O.2   197  GLU197     -0.2864
    196  CB         8.3080   13.5610   23.8070 C.3   197  GLU197      0.0415
    197  CG         6.8090   13.7490   23.5480 C.3   197  GLU197      0.1163
    198  CD         5.9470   13.6320   24.7770 C.2   197  GLU197      0.3649
    199  OE1        6.3330   14.0960   25.8720 O.co2 197  GLU197     -0.2457
    200  OE2        4.7870   13.1500   24.6290 O.co2 197  GLU197     -0.2457
@<TRIPOS>BOND
     1     1     2    1
     2     4     3    2
     3     2     5    1
     4     2     3    1
     5     5     6    1
     6     6     7   ar
     7     6     8   ar
     8    38    37    1
     9     7     9   ar
    10    11     8   ar
    11    11    13   ar
    12     8    10   ar
    13    72    73    1
    14    70    69    2
    15    71    69   am
    16    37    35   ar
    17    37    36   ar
    18    77    76    1
    19    73    76    1
    20    73    74    1
    21    35    33   ar
    22    69    68    1
    23    13    14   ar
    24     9    10   ar
    25    10    12   ar
    26    36    34   ar
    27    74    75    2
    28    15    16    1
    29    33    32   ar
    30    14    12   ar
    31    68    65    1
    32    66    67    2
    33    66    65    1
    34    34    32   ar
    35    30    29    2
    36   195   194    2
    37    32    31    1
    38    65    64    1
    39    16    19    1
    40    16    17    1
    41    29    28    1
    42    22    21    1
    43    20    19    1
    44    20    21    1
    45   194   193    1
    46    17    18    2
    47    28    31    1
    48    28    27    1
    49   197   196    1
    50   197   198    1
    51    64    58   am
    52   196   193    1
    53    59    58    2
    54   191   189    1
    55   193   192    1
    56    55    53   ar
    57    58    57    1
    58    52    53    1
    59    52    51    1
    60   187   186    2
    61    53    54   ar
    62   200   198   ar
    63   189   188    1
    64   189   190    1
    65   198   199   ar
    66   192   186   am
    67   186   185    1
    68   188   185    1
    69    62    60    1
    70    51    48    1
    71    57    56    1
    72    57    60    1
    73   131   129   ar
    74   131   133   ar
    75    50    49    2
    76   128   129   ar
    77   128   126   ar
    78   185   184    1
    79    56    49   am
    80    49    48    1
    81    60    61    1
    82    61    63    1
    83   129   127   ar
    84   133   132   ar
    85    48    47    1
    86   175   174    1
    87   126   125   ar
    88   182   183    1
    89   182   181    1
    90    78    79    1
    91    26    25    2
    92    25    24    1
    93   127   125   ar
    94   127   130   ar
    95    47    41   am
    96   183   177    1
    97   132   130   ar
    98    79    80    1
    99   125   124    1
   100   174   176    1
   101   174   171    1
   102   181   178    1
   103   109   107   ar
   104   169   167   am
   105   177   178    1
   106   177   172   am
   107    24    23    1
   108   173   172    2
   109   178   179    1
   110    81    80    2
   111    80    82   am
   112   105   104    2
   113   172   171    1
   114    41    42    2
   115    41    40    1
   116   161   159   ar
   117   108   107   ar
   118   107   106    1
   119   168   167    2
   120   171   170    1
   121   167   166    1
   122   141   142    1
   123   141   140    1
   124    82    83    1
   125   124   121    1
   126   121   120    1
   127   121   122    1
   128   120   112   am
   129   112   111    1
   130   112   113    2
   131   111   114    1
   132   111   110    1
   133    40    39    1
   134    40    43    1
   135   104   110   am
   136   104   103    1
   137   179   180    2
   138    83    86    1
   139    83    84    1
   140   159   160   ar
   141   159   158    1
   142   106   103    1
   143   114   115    1
   144   139   140    1
   145   139   138    1
   146   166   163    1
   147   152   151    1
   148   134   122   am
   149   134   135    1
   150   122   123    2
   151   103   102    1
   152    43    44    1
   153   163   162    1
   154   163   164    1
   155   158   155    1
   156   151   153    1
   157   151   150    2
   158   138   135    1
   159    84    87   am
   160    84    85    2
   161   115   117   ar
   162   115   116   ar
   163   162   156   am
   164   135   136    1
   165    87    88    1
   166   101    99   am
   167   165   164    2
   168   150   149    1
   169    44    45    1
   170   117   119   ar
   171   156   155    1
   172   156   157    2
   173   148   149    1
   174   148   147    1
   175   116   118   ar
   176   155   154    1
   177   100    99    2
   178   136   137    2
   179    99    98    1
   180    88    91    1
   181    88    89    1
   182    92    91    1
   183   119   118   ar
   184   147   144    1
   185    45    46    1
   186   143   144    1
   187    93    89   am
   188    93    94    1
   189    89    90    2
   190    98    97    1
   191   144   145    1
   192    94    95    1
   193    94    97    1
   194    95    96    2
   195   145   146    2
