@<TRIPOS>MOLECULE
tmp/5p9oA00.pdb
 122 122 0 0 0
SMALL
GASTEIGER

@<TRIPOS>ATOM
      1  N          6.0470   14.0390   15.0690 N.3    36  TRP36      -0.1241
      2  CA         5.8990   14.0850   16.5330 C.3    36  TRP36       0.1605
      3  C          4.9220   13.0540   16.9860 C.2    36  TRP36       0.2264
      4  O          3.8920   12.8640   16.3810 O.2    36  TRP36      -0.2867
      5  CB         5.4570   15.5080   16.9820 C.3    36  TRP36       0.0550
      6  CG         5.5090   15.7060   18.4340 C.ar   36  TRP36       0.0003
      7  CD1        6.5750   16.2070   19.1960 C.ar   36  TRP36       0.0946
      8  CD2        4.4680   15.4040   19.4070 C.ar   36  TRP36       0.0152
      9  NE1        6.2170   16.1950   20.5180 N.ar   36  TRP36      -0.2442
     10  CE2        4.9380   15.7220   20.6850 C.ar   36  TRP36       0.0810
     11  CE3        3.1880   14.9060   19.2870 C.ar   36  TRP36       0.0012
     12  CZ2        4.1760   15.5960   21.8200 C.ar   36  TRP36       0.0191
     13  CZ3        2.4260   14.7520   20.4500 C.ar   36  TRP36       0.0001
     14  CH2        2.9310   15.0650   21.7050 C.ar   36  TRP36       0.0015
     15  N          3.3480   11.3060   21.0540 N.3    38  MET38      -0.1245
     16  CA         3.2880   11.4890   22.5030 C.3    38  MET38       0.1570
     17  C          3.9990   10.4010   23.3130 C.2    38  MET38       0.2261
     18  O          3.5140   10.0360   24.4030 O.2    38  MET38      -0.2867
     19  CB         1.8570   11.7020   22.9420 C.3    38  MET38       0.0387
     20  CG         0.9430   10.5270   22.6980 C.3    38  MET38       0.0595
     21  SD        -0.7530   10.9530   23.2550 S.3    38  MET38      -0.1393
     22  CE        -1.6300    9.6830   22.4480 C.3    38  MET38       0.0692
     23  N          0.3650    7.9660   32.6400 N.3   139  ASP139     -0.1225
     24  CA         0.6960    8.6330   31.3700 C.3   139  ASP139      0.1805
     25  C         -0.4450    8.3540   30.3420 C.2   139  ASP139      0.2598
     26  O         -0.1710    8.1400   29.1730 O.2   139  ASP139     -0.2718
     27  CB         2.0340    8.1460   30.8340 C.3   139  ASP139      0.1424
     28  CG         2.5860    8.9890   29.6750 C.2   139  ASP139      0.3668
     29  OD1        2.2400   10.1780   29.5860 O.co2 139  ASP139     -0.2456
     30  OD2        3.4000    8.4120   28.8960 O.co2 139  ASP139     -0.2456
     31  N         -1.6790    8.3890   30.8140 N.am  140  HIS140     -0.1961
     32  CA        -2.8540    8.1010   29.9720 C.3   140  HIS140      0.1787
     33  C         -3.5500    9.3770   29.5890 C.2   140  HIS140      0.2620
     34  O         -3.4520    9.8220   28.4240 O.2   140  HIS140     -0.2715
     35  CB        -3.7570    7.0240   30.5480 C.3   140  HIS140      0.0785
     36  CG        -4.2150    7.1600   31.9500 C.ar  140  HIS140      0.0821
     37  ND1       -3.5760    7.9920   32.8320 N.ar  140  HIS140     -0.2267
     38  CD2       -5.2390    6.5570   32.6140 C.ar  140  HIS140      0.1154
     39  CE1       -4.1870    7.8170   34.0120 C.ar  140  HIS140      0.1986
     40  NE2       -5.1500    6.9490   33.9190 N.ar  140  HIS140     -0.2212
     41  N         -4.3170    9.9460   30.5220 N.am  141  TRP141     -0.1960
     42  CA        -5.0040   11.1940   30.2320 C.3   141  TRP141      0.1771
     43  C         -5.0970   12.0260   31.5080 C.2   141  TRP141      0.2619
     44  O         -5.4140   11.5130   32.5970 O.2   141  TRP141     -0.2715
     45  CB        -6.4590   10.9400   29.7570 C.3   141  TRP141      0.0590
     46  CG        -7.1990   12.1740   29.3930 C.ar  141  TRP141      0.0006
     47  CD1       -8.3110   12.6900   30.0010 C.ar  141  TRP141      0.0946
     48  CD2       -6.8190   13.1700   28.4410 C.ar  141  TRP141      0.0152
     49  NE1       -8.6680   13.8680   29.4460 N.ar  141  TRP141     -0.2442
     50  CE2       -7.7500   14.2170   28.5200 C.ar  141  TRP141      0.0810
     51  CE3       -5.7430   13.2600   27.5150 C.ar  141  TRP141      0.0012
     52  CZ2       -7.6930   15.3170   27.6770 C.ar  141  TRP141      0.0191
     53  CZ3       -5.6680   14.3600   26.7070 C.ar  141  TRP141      0.0001
     54  CH2       -6.6310   15.3690   26.7680 C.ar  141  TRP141      0.0015
     55  N         -4.7140   13.2900   31.3680 N.am  142  LYS142     -0.1977
     56  CA        -4.5290   14.2030   32.5090 C.3   142  LYS142      0.1596
     57  C         -5.6920   14.1130   33.5050 C.2   142  LYS142      0.2287
     58  O         -5.4590   14.1150   34.7220 O.2   142  LYS142     -0.2864
     59  CB        -4.3720   15.6410   31.9680 C.3   142  LYS142      0.0298
     60  CG        -5.4820   16.1670   31.0520 C.3   142  LYS142      0.0038
     61  CD        -5.2030   17.5270   30.4830 C.3   142  LYS142      0.0206
     62  CE        -6.3990   18.1020   29.7800 C.3   142  LYS142      0.1093
     63  NZ        -6.1960   19.5040   29.3890 N.3   142  LYS142     -0.1314
     64  N         -5.7030   11.2220   36.1960 N.3   145  TYR145     -0.1241
     65  CA        -4.6290   10.9470   37.1660 C.3   145  TYR145      0.1605
     66  C         -5.1310   10.8910   38.6180 C.2   145  TYR145      0.2264
     67  O         -4.8190    9.9370   39.3420 O.2   145  TYR145     -0.2867
     68  CB        -3.5070   11.9580   37.0640 C.3   145  TYR145      0.0534
     69  CG        -2.5760   11.8380   35.8790 C.ar  145  TYR145     -0.0201
     70  CD1       -2.9050   11.2560   34.6560 C.ar  145  TYR145     -0.0009
     71  CD2       -1.3340   12.4020   35.9710 C.ar  145  TYR145     -0.0009
     72  CE1       -2.0130   11.2490   33.6320 C.ar  145  TYR145      0.0417
     73  CE2       -0.4500   12.4280   34.9010 C.ar  145  TYR145      0.0417
     74  CZ        -0.7980   11.8470   33.7140 C.ar  145  TYR145      0.1957
     75  OH         0.0690   11.8580   32.6320 O.3   145  TYR145     -0.2866
     76  N          3.6950   11.5230   34.2120 N.3   167  ASP167     -0.1225
     77  CA         4.1800   12.3640   33.0920 C.3   167  ASP167      0.1805
     78  C          3.2780   13.5310   32.8910 C.2   167  ASP167      0.2597
     79  O          2.0980   13.5230   33.2660 O.2   167  ASP167     -0.2718
     80  CB         4.2040   11.5220   31.7870 C.3   167  ASP167      0.1424
     81  CG         4.9240   12.2110   30.6550 C.2   167  ASP167      0.3668
     82  OD1        5.8480   13.0130   30.9680 O.co2 167  ASP167     -0.2456
     83  OD2        4.6440   11.9150   29.4560 O.co2 167  ASP167     -0.2456
     84  N          3.8130   14.6140   32.2730 N.am  168  ASN168     -0.1974
     85  CA         2.9890   15.6990   31.7100 C.3   168  ASN168      0.1688
     86  C          2.3100   16.5320   32.7880 C.2   168  ASN168      0.2292
     87  O          1.2640   17.1560   32.5420 O.2   168  ASN168     -0.2864
     88  CB         1.9180   15.1820   30.7310 C.3   168  ASN168      0.1181
     89  CG         2.4710   14.3900   29.6210 C.2   168  ASN168      0.2629
     90  OD1        2.1290   13.1910   29.4310 O.2   168  ASN168     -0.2716
     91  ND2        3.3620   14.9770   28.8110 N.am  168  ASN168     -0.0877
     92  N          2.8220   20.1470   31.0800 N.3   171  VAL171     -0.1231
     93  CA         2.1730   20.2810   29.7570 C.3   171  VAL171      0.1678
     94  C          1.6170   18.8970   29.4410 C.2   171  VAL171      0.2434
     95  O          2.4050   17.9680   29.2290 O.2   171  VAL171     -0.2733
     96  CB         3.1530   20.7000   28.6650 C.3   171  VAL171      0.0265
     97  CG1        2.4090   20.7270   27.3260 C.3   171  VAL171      0.0020
     98  CG2        3.7460   22.0690   28.9640 C.3   171  VAL171      0.0020
     99  N          0.2780   18.7480   29.3130 N.am  172  PRO172     -0.2729
    100  CA        -0.7300   19.8090   29.4710 C.3   172  PRO172      0.1401
    101  C         -0.9510   20.3710   30.8650 C.2   172  PRO172      0.2269
    102  O         -1.5630   21.3850   31.0340 O.2   172  PRO172     -0.2865
    103  CB        -1.9920   19.1250   29.0010 C.3   172  PRO172      0.0296
    104  CG        -1.7620   17.7350   28.9510 C.3   172  PRO172      0.0237
    105  CD        -0.3150   17.4590   28.9210 C.3   172  PRO172      0.0939
    106  N          9.1410   18.6160   27.2890 N.3   196  LEU196     -0.1231
    107  CA         8.1770   17.8800   26.4590 C.3   196  LEU196      0.1693
    108  C          8.9460   17.0920   25.4300 C.2   196  LEU196      0.2591
    109  O          9.8810   17.5820   24.8250 O.2   196  LEU196     -0.2718
    110  CB         7.2500   18.9020   25.8080 C.3   196  LEU196      0.0284
    111  CG         6.0730   18.3780   25.0320 C.3   196  LEU196      0.0019
    112  CD1        5.1080   17.6560   25.9340 C.3   196  LEU196      0.0001
    113  CD2        5.3350   19.5340   24.3080 C.3   196  LEU196      0.0001
    114  N          8.4860   15.8480   25.2240 N.am  197  GLU197     -0.1979
    115  CA         9.1710   14.9880   24.2680 C.3   197  GLU197      0.1602
    116  C          9.3180   15.7020   22.9180 C.2   197  GLU197      0.2287
    117  O          8.4090   16.2920   22.3680 O.2   197  GLU197     -0.2864
    118  CB         8.3480   13.6840   24.0770 C.3   197  GLU197      0.0415
    119  CG         6.8660   13.8680   23.7860 C.3   197  GLU197      0.1163
    120  CD         5.9850   13.7420   24.9830 C.2   197  GLU197      0.3649
    121  OE1        6.3310   14.2420   26.0970 O.co2 197  GLU197     -0.2457
    122  OE2        4.8600   13.1640   24.8270 O.co2 197  GLU197     -0.2457
@<TRIPOS>BOND
     1     1     2    1
     2     4     3    2
     3     2     5    1
     4     2     3    1
     5     5     6    1
     6     6     7   ar
     7     6     8   ar
     8     7     9   ar
     9    11     8   ar
    10    11    13   ar
    11     8    10   ar
    12    13    14   ar
    13     9    10   ar
    14    10    12   ar
    15    15    16    1
    16    14    12   ar
    17   117   116    2
    18    22    21    1
    19    16    19    1
    20    16    17    1
    21    20    19    1
    22    20    21    1
    23   116   115    1
    24    17    18    2
    25   119   118    1
    26   119   120    1
    27   118   115    1
    28   115   114    1
    29   113   111    1
    30   109   108    2
    31   122   120   ar
    32   120   121   ar
    33   111   110    1
    34   111   112    1
    35   114   108   am
    36   108   107    1
    37   110   107    1
    38   107   106    1
    39    53    54   ar
    40    53    51   ar
    41    54    52   ar
    42    97    96    1
    43    51    48   ar
    44    52    50   ar
    45    34    33    2
    46    48    50   ar
    47    48    46   ar
    48    50    49   ar
    49    96    98    1
    50    96    93    1
    51    91    89   am
    52    30    28   ar
    53   105   104    1
    54   105    99    1
    55   104   103    1
    56   103   100    1
    57    26    25    2
    58    95    94    2
    59    99    94   am
    60    99   100    1
    61    63    62    1
    62    46    45    1
    63    46    47   ar
    64    90    89    2
    65    94    93    1
    66    49    47   ar
    67    83    81   ar
    68   100   101    1
    69    29    28   ar
    70    33    32    1
    71    33    41   am
    72    89    88    1
    73    28    27    1
    74    93    92    1
    75    45    42    1
    76    62    61    1
    77    32    35    1
    78    32    31    1
    79    42    41    1
    80    42    43    1
    81    25    31   am
    82    25    24    1
    83    61    60    1
    84    35    36    1
    85    81    82   ar
    86    81    80    1
    87    88    85    1
    88    27    24    1
    89   101   102    2
    90    60    59    1
    91    55    43   am
    92    55    56    1
    93    24    23    1
    94    43    44    2
    95    85    84    1
    96    85    86    1
    97    80    77    1
    98    36    38   ar
    99    36    37   ar
   100    59    56    1
   101    84    78   am
   102    56    57    1
   103    87    86    2
   104    38    40   ar
   105    75    74    1
   106    37    39   ar
   107    78    77    1
   108    78    79    2
   109    77    76    1
   110    57    58    2
   111    72    74   ar
   112    72    70   ar
   113    74    73   ar
   114    40    39   ar
   115    70    69   ar
   116    73    71   ar
   117    69    71   ar
   118    69    68    1
   119    64    65    1
   120    68    65    1
   121    65    66    1
   122    66    67    2
