@<TRIPOS>MOLECULE
tmp/5p9qA01.pdb
 122 122 0 0 0
SMALL
GASTEIGER

@<TRIPOS>ATOM
      1  N          6.1050   14.0920   15.0270 N.3    36  TRP36      -0.1241
      2  CA         5.9380   14.1260   16.4980 C.3    36  TRP36       0.1605
      3  C          4.9480   13.0520   16.9490 C.2    36  TRP36       0.2264
      4  O          3.9190   12.7930   16.2760 O.2    36  TRP36      -0.2867
      5  CB         5.4250   15.5110   16.9410 C.3    36  TRP36       0.0550
      6  CG         5.4180   15.6730   18.4450 C.ar   36  TRP36       0.0003
      7  CD1        6.4530   16.0770   19.2280 C.ar   36  TRP36       0.0946
      8  CD2        4.3480   15.3450   19.3300 C.ar   36  TRP36       0.0152
      9  NE1        6.0930   16.0440   20.5490 N.ar   36  TRP36      -0.2442
     10  CE2        4.8040   15.6030   20.6510 C.ar   36  TRP36       0.0810
     11  CE3        3.0470   14.9030   19.1500 C.ar   36  TRP36       0.0012
     12  CZ2        3.9950   15.4210   21.7610 C.ar   36  TRP36       0.0191
     13  CZ3        2.2390   14.7250   20.2610 C.ar   36  TRP36       0.0001
     14  CH2        2.7160   14.9630   21.5520 C.ar   36  TRP36       0.0015
     15  N          3.3110   11.3520   20.9710 N.3    38  MET38      -0.1245
     16  CA         3.2340   11.5120   22.4350 C.3    38  MET38       0.1570
     17  C          3.9670   10.4120   23.2570 C.2    38  MET38       0.2261
     18  O          3.5000   10.0350   24.3380 O.2    38  MET38      -0.2867
     19  CB         1.7780   11.6810   22.8770 C.3    38  MET38       0.0387
     20  CG         0.8630   10.4530   22.6870 C.3    38  MET38       0.0595
     21  SD        -0.8560   10.8860   23.1100 S.3    38  MET38      -0.1393
     22  CE        -1.7340    9.5660   22.2530 C.3    38  MET38       0.0692
     23  N          0.4000    7.9050   32.5870 N.3   139  ASP139     -0.1225
     24  CA         0.6920    8.5800   31.3330 C.3   139  ASP139      0.1805
     25  C         -0.4360    8.3430   30.3300 C.2   139  ASP139      0.2598
     26  O         -0.1990    8.1130   29.1290 O.2   139  ASP139     -0.2718
     27  CB         2.0440    8.0530   30.7820 C.3   139  ASP139      0.1424
     28  CG         2.5550    8.8640   29.6460 C.2   139  ASP139      0.3668
     29  OD1        2.2110   10.0780   29.5500 O.co2 139  ASP139     -0.2456
     30  OD2        3.3610    8.3090   28.8530 O.co2 139  ASP139     -0.2456
     31  N         -1.6860    8.4120   30.8010 N.am  140  HIS140     -0.1961
     32  CA        -2.8270    8.0920   29.9600 C.3   140  HIS140      0.1787
     33  C         -3.5890    9.3160   29.5220 C.2   140  HIS140      0.2620
     34  O         -3.4650    9.7480   28.3800 O.2   140  HIS140     -0.2715
     35  CB        -3.7360    6.9460   30.4860 C.3   140  HIS140      0.0785
     36  CG        -4.1940    7.0600   31.9160 C.ar  140  HIS140      0.0821
     37  ND1       -3.5820    7.8790   32.8360 N.ar  140  HIS140     -0.2267
     38  CD2       -5.1760    6.4010   32.5890 C.ar  140  HIS140      0.1154
     39  CE1       -4.1630    7.7210   34.0130 C.ar  140  HIS140      0.1986
     40  NE2       -5.1410    6.8420   33.8870 N.ar  140  HIS140     -0.2212
     41  N         -4.4200    9.8360   30.3990 N.am  141  TRP141     -0.1960
     42  CA        -5.1420   11.0570   30.1200 C.3   141  TRP141      0.1771
     43  C         -5.1470   11.9090   31.3970 C.2   141  TRP141      0.2619
     44  O         -5.4140   11.4090   32.4850 O.2   141  TRP141     -0.2715
     45  CB        -6.5640   10.7340   29.6920 C.3   141  TRP141      0.0590
     46  CG        -7.3720   11.9690   29.4690 C.ar  141  TRP141      0.0006
     47  CD1       -8.5550   12.2790   30.0850 C.ar  141  TRP141      0.0946
     48  CD2       -7.0600   13.0830   28.6080 C.ar  141  TRP141      0.0152
     49  NE1       -9.0020   13.4910   29.6490 N.ar  141  TRP141     -0.2442
     50  CE2       -8.1250   14.0130   28.7380 C.ar  141  TRP141      0.0810
     51  CE3       -6.0040   13.3770   27.7440 C.ar  141  TRP141      0.0012
     52  CZ2       -8.1640   15.2340   28.0170 C.ar  141  TRP141      0.0191
     53  CZ3       -6.0280   14.5910   27.0160 C.ar  141  TRP141      0.0001
     54  CH2       -7.1090   15.5050   27.1670 C.ar  141  TRP141      0.0015
     55  N         -4.7510   13.1660   31.2610 N.am  142  LYS142     -0.1977
     56  CA        -4.6280   14.0570   32.4270 C.3   142  LYS142      0.1596
     57  C         -5.7810   13.9700   33.4340 C.2   142  LYS142      0.2287
     58  O         -5.5450   13.8950   34.6890 O.2   142  LYS142     -0.2864
     59  CB        -4.4470   15.4790   31.9380 C.3   142  LYS142      0.0298
     60  CG        -5.5640   15.9420   31.0550 C.3   142  LYS142      0.0038
     61  CD        -5.3350   17.3660   30.6240 C.3   142  LYS142      0.0206
     62  CE        -6.4610   17.8600   29.7620 C.3   142  LYS142      0.1093
     63  NZ        -6.3920   19.3300   29.5350 N.3   142  LYS142     -0.1314
     64  N         -5.7390   11.0510   36.2040 N.3   145  TYR145     -0.1241
     65  CA        -4.6140   10.7750   37.1130 C.3   145  TYR145      0.1605
     66  C         -5.0630   10.7280   38.5910 C.2   145  TYR145      0.2264
     67  O         -4.7380    9.7750   39.3440 O.2   145  TYR145     -0.2867
     68  CB        -3.5520   11.8550   36.9860 C.3   145  TYR145      0.0534
     69  CG        -2.5920   11.7490   35.8060 C.ar  145  TYR145     -0.0201
     70  CD1       -2.9640   11.1990   34.5760 C.ar  145  TYR145     -0.0009
     71  CD2       -1.3040   12.2700   35.9240 C.ar  145  TYR145     -0.0009
     72  CE1       -2.0600   11.1750   33.4890 C.ar  145  TYR145      0.0417
     73  CE2       -0.4270   12.2660   34.8360 C.ar  145  TYR145      0.0417
     74  CZ        -0.8180   11.6960   33.6390 C.ar  145  TYR145      0.1957
     75  OH         0.0420   11.6980   32.5610 O.3   145  TYR145     -0.2866
     76  N          3.7220   11.4390   34.1420 N.3   167  ASP167     -0.1225
     77  CA         4.1640   12.2630   33.0230 C.3   167  ASP167      0.1805
     78  C          3.2290   13.4290   32.8050 C.2   167  ASP167      0.2597
     79  O          2.0590   13.3720   33.1980 O.2   167  ASP167     -0.2718
     80  CB         4.2020   11.4110   31.7530 C.3   167  ASP167      0.1424
     81  CG         4.9050   12.1190   30.5790 C.2   167  ASP167      0.3668
     82  OD1        5.8700   12.8650   30.8170 O.co2 167  ASP167     -0.2456
     83  OD2        4.5700   11.8690   29.3930 O.co2 167  ASP167     -0.2456
     84  N          3.7360   14.5270   32.2050 N.am  168  ASN168     -0.1974
     85  CA         2.9180   15.6090   31.6530 C.3   168  ASN168      0.1688
     86  C          2.2200   16.3990   32.7500 C.2   168  ASN168      0.2292
     87  O          1.1550   16.9400   32.5380 O.2   168  ASN168     -0.2864
     88  CB         1.8660   15.1090   30.6480 C.3   168  ASN168      0.1181
     89  CG         2.4630   14.3410   29.5200 C.2   168  ASN168      0.2629
     90  OD1        2.1460   13.1650   29.3550 O.2   168  ASN168     -0.2716
     91  ND2        3.3700   14.9710   28.7480 N.am  168  ASN168     -0.0877
     92  N          2.6150   19.9490   30.9680 N.3   171  VAL171     -0.1231
     93  CA         1.8990   19.9780   29.6860 C.3   171  VAL171      0.1678
     94  C          1.6190   18.5680   29.1990 C.2   171  VAL171      0.2434
     95  O          2.5390   17.7840   29.0730 O.2   171  VAL171     -0.2733
     96  CB         2.6920   20.7550   28.5920 C.3   171  VAL171      0.0265
     97  CG1        4.1200   20.1930   28.4210 C.3   171  VAL171      0.0020
     98  CG2        1.9480   20.7590   27.2490 C.3   171  VAL171      0.0020
     99  N          0.3480   18.2190   28.9410 N.am  172  PRO172     -0.2729
    100  CA        -0.8570   19.0390   29.0570 C.3   172  PRO172      0.1401
    101  C         -1.1840   19.5960   30.4690 C.2   172  PRO172      0.2269
    102  O         -2.0100   20.4990   30.5890 O.2   172  PRO172     -0.2865
    103  CB        -1.9570   18.0910   28.5530 C.3   172  PRO172      0.0296
    104  CG        -1.2380   17.2030   27.5540 C.3   172  PRO172      0.0237
    105  CD         0.0620   16.9290   28.2710 C.3   172  PRO172      0.0939
    106  N          9.0320   18.5400   27.2420 N.3   196  LEU196     -0.1231
    107  CA         8.1030   17.7550   26.4310 C.3   196  LEU196      0.1693
    108  C          8.8800   17.0140   25.3710 C.2   196  LEU196      0.2591
    109  O          9.8370   17.5530   24.7700 O.2   196  LEU196     -0.2718
    110  CB         7.0930   18.6910   25.7880 C.3   196  LEU196      0.0284
    111  CG         5.9340   18.1150   24.9700 C.3   196  LEU196      0.0019
    112  CD1        5.0490   17.2380   25.8680 C.3   196  LEU196      0.0001
    113  CD2        5.1220   19.2770   24.3550 C.3   196  LEU196      0.0001
    114  N          8.5010   15.7460   25.1740 N.am  197  GLU197     -0.1979
    115  CA         9.1240   14.9130   24.2050 C.3   197  GLU197      0.1602
    116  C          9.2940   15.6550   22.8680 C.2   197  GLU197      0.2287
    117  O          8.3510   16.2560   22.3090 O.2   197  GLU197     -0.2864
    118  CB         8.3340   13.6010   24.0160 C.3   197  GLU197      0.0415
    119  CG         6.8020   13.7980   23.7210 C.3   197  GLU197      0.1163
    120  CD         5.9030   13.6790   24.9390 C.2   197  GLU197      0.3649
    121  OE1        6.3200   14.0010   26.0690 O.co2 197  GLU197     -0.2457
    122  OE2        4.7160   13.2820   24.7610 O.co2 197  GLU197     -0.2457
@<TRIPOS>BOND
     1     1     2    1
     2     4     3    2
     3     2     5    1
     4     2     3    1
     5     5     6    1
     6     6     7   ar
     7     6     8   ar
     8    11     8   ar
     9    11    13   ar
    10     7     9   ar
    11     8    10   ar
    12    13    14   ar
    13     9    10   ar
    14    10    12   ar
    15    15    16    1
    16    14    12   ar
    17    22    21    1
    18   117   116    2
    19    16    19    1
    20    16    17    1
    21    20    19    1
    22    20    21    1
    23   116   115    1
    24    17    18    2
    25   119   118    1
    26   119   120    1
    27   118   115    1
    28   115   114    1
    29   113   111    1
    30   122   120   ar
    31   109   108    2
    32   120   121   ar
    33   111   110    1
    34   111   112    1
    35   114   108   am
    36   108   107    1
    37   110   107    1
    38   107   106    1
    39    53    54   ar
    40    53    51   ar
    41    54    52   ar
    42    98    96    1
    43   104   105    1
    44   104   103    1
    45    51    48   ar
    46    52    50   ar
    47   105    99    1
    48    34    33    2
    49    97    96    1
    50   103   100    1
    51    96    93    1
    52    48    50   ar
    53    48    46   ar
    54    50    49   ar
    55    91    89   am
    56    30    28   ar
    57    99   100    1
    58    99    94   am
    59   100   101    1
    60    95    94    2
    61    26    25    2
    62    94    93    1
    63    90    89    2
    64    83    81   ar
    65    46    45    1
    66    46    47   ar
    67    89    88    1
    68    33    32    1
    69    33    41   am
    70    63    62    1
    71    29    28   ar
    72    28    27    1
    73    49    47   ar
    74    93    92    1
    75    45    42    1
    76    62    61    1
    77    32    35    1
    78    32    31    1
    79    42    41    1
    80    42    43    1
    81    25    31   am
    82    25    24    1
    83   101   102    2
    84    35    36    1
    85    81    82   ar
    86    81    80    1
    87    61    60    1
    88    88    85    1
    89    27    24    1
    90    60    59    1
    91    55    43   am
    92    55    56    1
    93    24    23    1
    94    43    44    2
    95    85    84    1
    96    85    86    1
    97    80    77    1
    98    36    38   ar
    99    36    37   ar
   100    59    56    1
   101    84    78   am
   102    56    57    1
   103    87    86    2
   104    75    74    1
   105    38    40   ar
   106    78    77    1
   107    78    79    2
   108    37    39   ar
   109    77    76    1
   110    57    58    2
   111    72    74   ar
   112    72    70   ar
   113    74    73   ar
   114    40    39   ar
   115    70    69   ar
   116    73    71   ar
   117    69    71   ar
   118    69    68    1
   119    64    65    1
   120    68    65    1
   121    65    66    1
   122    66    67    2
