@<TRIPOS>MOLECULE
tmp/5p9rB02.pdb
 122 122 0 0 0
SMALL
GASTEIGER

@<TRIPOS>ATOM
      1  N         35.8420  -33.7540   -6.2980 N.3    37  TRP37      -0.1241
      2  CA        36.6500  -34.8710   -5.8080 C.3    37  TRP37       0.1605
      3  C         35.8860  -35.8410   -4.8810 C.2    37  TRP37       0.2264
      4  O         35.0210  -35.4350   -4.1050 O.2    37  TRP37      -0.2867
      5  CB        37.8830  -34.3150   -5.0950 C.3    37  TRP37       0.0550
      6  CG        38.8950  -35.3610   -4.7310 C.ar   37  TRP37       0.0003
      7  CD1       39.8890  -35.8520   -5.5300 C.ar   37  TRP37       0.0946
      8  CD2       39.0080  -36.0470   -3.4770 C.ar   37  TRP37       0.0152
      9  NE1       40.6180  -36.7980   -4.8460 N.ar   37  TRP37      -0.2442
     10  CE2       40.0950  -36.9410   -3.5860 C.ar   37  TRP37       0.0810
     11  CE3       38.2900  -35.9930   -2.2680 C.ar   37  TRP37       0.0012
     12  CZ2       40.4910  -37.7780   -2.5270 C.ar   37  TRP37       0.0191
     13  CZ3       38.6820  -36.8240   -1.2150 C.ar   37  TRP37       0.0001
     14  CH2       39.7740  -37.7040   -1.3530 C.ar   37  TRP37       0.0015
     15  N         36.8110  -39.7930   -2.6120 N.3    39  MET39      -0.1245
     16  CA        37.9010  -40.6780   -2.2140 C.3    39  MET39       0.1570
     17  C         37.7840  -42.1110   -2.7430 C.2    39  MET39       0.2261
     18  O         38.0280  -43.0620   -1.9930 O.2    39  MET39      -0.2867
     19  CB        38.0510  -40.6780   -0.6800 C.3    39  MET39       0.0387
     20  CG        36.7750  -41.0850    0.0920 C.3    39  MET39       0.0595
     21  SD        37.0090  -41.1640    1.8870 S.3    39  MET39      -0.1393
     22  CE        37.3980  -39.4400    2.2980 C.3    39  MET39       0.0692
     23  N         40.6040  -50.2100    3.0790 N.3   140  ASP140     -0.1225
     24  CA        40.4100  -48.8770    2.5100 C.3   140  ASP140      0.1805
     25  C         39.2820  -48.1250    3.2240 C.2   140  ASP140      0.2598
     26  O         38.4910  -47.4120    2.5840 O.2   140  ASP140     -0.2718
     27  CB        40.1270  -48.9860    1.0110 C.3   140  ASP140      0.1424
     28  CG        40.2320  -47.6610    0.2990 C.2   140  ASP140      0.3668
     29  OD1       41.0570  -46.8270    0.7240 O.co2 140  ASP140     -0.2456
     30  OD2       39.4890  -47.4590   -0.6860 O.co2 140  ASP140     -0.2456
     31  N         39.2010  -48.2990    4.5420 N.am  141  HIS141     -0.1961
     32  CA        38.1460  -47.6590    5.3300 C.3   141  HIS141      0.1787
     33  C         38.5990  -46.4250    6.1100 C.2   141  HIS141      0.2620
     34  O         38.2960  -45.2910    5.7160 O.2   141  HIS141     -0.2715
     35  CB        37.3840  -48.6660    6.2300 C.3   141  HIS141      0.0785
     36  CG        38.2590  -49.5760    7.0430 C.ar  141  HIS141      0.0821
     37  ND1       39.6230  -49.6690    6.8620 N.ar  141  HIS141     -0.2267
     38  CD2       37.9530  -50.4520    8.0290 C.ar  141  HIS141      0.1154
     39  CE1       40.1190  -50.5590    7.7060 C.ar  141  HIS141      0.1986
     40  NE2       39.1260  -51.0540    8.4230 N.ar  141  HIS141     -0.2212
     41  N         39.2850  -46.6360    7.2270 N.am  142  TRP142     -0.1960
     42  CA        39.7890  -45.5160    8.0350 C.3   142  TRP142      0.1771
     43  C         41.1310  -45.8980    8.6380 C.2   142  TRP142      0.2619
     44  O         41.3070  -47.0030    9.1430 O.2   142  TRP142     -0.2715
     45  CB        38.7750  -45.0970    9.1030 C.3   142  TRP142      0.0590
     46  CG        39.2330  -43.9490   10.0010 C.ar  142  TRP142      0.0006
     47  CD1       39.5750  -44.0300   11.3210 C.ar  142  TRP142      0.0946
     48  CD2       39.3790  -42.5660    9.6340 C.ar  142  TRP142      0.0152
     49  NE1       39.9340  -42.7890   11.7950 N.ar  142  TRP142     -0.2442
     50  CE2       39.8120  -41.8710   10.7860 C.ar  142  TRP142      0.0810
     51  CE3       39.1850  -41.8500    8.4510 C.ar  142  TRP142      0.0012
     52  CZ2       40.0700  -40.5010   10.7830 C.ar  142  TRP142      0.0191
     53  CZ3       39.4300  -40.4760    8.4520 C.ar  142  TRP142      0.0001
     54  CH2       39.8680  -39.8230    9.6070 C.ar  142  TRP142      0.0015
     55  N         42.0910  -44.9880    8.5460 N.am  143  LYS143     -0.1977
     56  CA        43.4720  -45.3230    8.8690 C.3   143  LYS143      0.1596
     57  C         43.6260  -45.9690   10.2460 C.2   143  LYS143      0.2287
     58  O         44.3610  -46.9570   10.3920 O.2   143  LYS143     -0.2864
     59  CB        44.3640  -44.0820    8.7480 C.3   143  LYS143      0.0298
     60  CG        43.7550  -42.8330    9.3610 C.3   143  LYS143      0.0038
     61  CD        44.6630  -41.6320    9.1580 C.3   143  LYS143      0.0206
     62  CE        44.0910  -40.3960    9.8260 C.3   143  LYS143      0.1093
     63  NZ        43.3860  -39.5260    8.8320 N.3   143  LYS143     -0.1314
     64  N         43.1970  -49.9550   10.4240 N.3   146  TYR146     -0.1241
     65  CA        43.9900  -50.9150    9.6310 C.3   146  TYR146      0.1605
     66  C         44.7190  -51.9500   10.4760 C.2   146  TYR146      0.2264
     67  O         44.6510  -53.1540   10.2010 O.2   146  TYR146     -0.2867
     68  CB        45.0440  -50.1980    8.7870 C.3   146  TYR146      0.0534
     69  CG        44.5510  -49.5410    7.5180 C.ar  146  TYR146     -0.0201
     70  CD1       43.3340  -48.8710    7.4740 C.ar  146  TYR146     -0.0009
     71  CD2       45.3350  -49.5510    6.3680 C.ar  146  TYR146     -0.0009
     72  CE1       42.8980  -48.2470    6.3130 C.ar  146  TYR146      0.0417
     73  CE2       44.9110  -48.9230    5.2060 C.ar  146  TYR146      0.0417
     74  CZ        43.6900  -48.2770    5.1800 C.ar  146  TYR146      0.1957
     75  OH        43.2860  -47.6510    4.0180 O.3   146  TYR146     -0.2866
     76  N         45.1300  -49.5330    0.9790 N.3   168  ASP168     -0.1225
     77  CA        45.2180  -48.2290    0.3320 C.3   168  ASP168      0.1805
     78  C         45.6730  -47.1520    1.3260 C.2   168  ASP168      0.2597
     79  O         45.4690  -47.2820    2.5420 O.2   168  ASP168     -0.2718
     80  CB        43.8650  -47.8370   -0.2830 C.3   168  ASP168      0.1424
     81  CG        43.9590  -46.6030   -1.1720 C.2   168  ASP168      0.3668
     82  OD1       45.0260  -46.3730   -1.8000 O.co2 168  ASP168     -0.2456
     83  OD2       42.9620  -45.8520   -1.2560 O.co2 168  ASP168     -0.2456
     84  N         46.3070  -46.1060    0.7930 N.am  169  ASN169     -0.1974
     85  CA        46.6400  -44.8970    1.5510 C.3   169  ASN169      0.1688
     86  C         47.6660  -45.0900    2.6560 C.2   169  ASN169      0.2292
     87  O         47.6040  -44.4150    3.6760 O.2   169  ASN169     -0.2864
     88  CB        45.3870  -44.2720    2.1620 C.3   169  ASN169      0.1181
     89  CG        44.2930  -44.0540    1.1500 C.2   169  ASN169      0.2629
     90  OD1       43.2020  -44.5830    1.3130 O.2   169  ASN169     -0.2716
     91  ND2       44.5750  -43.2840    0.0930 N.am  169  ASN169     -0.0877
     92  N         49.4660  -41.4910    2.3060 N.3   172  VAL172     -0.1231
     93  CA        48.5350  -40.3910    2.5260 C.3   172  VAL172      0.1678
     94  C         47.1160  -40.9520    2.5690 C.2   172  VAL172      0.2434
     95  O         46.6540  -41.5090    1.5730 O.2   172  VAL172     -0.2733
     96  CB        48.5970  -39.3900    1.3780 C.3   172  VAL172      0.0265
     97  CG1       47.5200  -38.2980    1.5750 C.3   172  VAL172      0.0020
     98  CG2       50.0260  -38.7940    1.2410 C.3   172  VAL172      0.0020
     99  N         46.4110  -40.7830    3.7070 N.am  173  PRO173     -0.2729
    100  CA        46.8220  -40.0660    4.9230 C.3   173  PRO173      0.1401
    101  C         47.9460  -40.7470    5.6920 C.2   173  PRO173      0.2269
    102  O         48.5820  -40.1190    6.5370 O.2   173  PRO173     -0.2865
    103  CB        45.5320  -40.0530    5.7720 C.3   173  PRO173      0.0296
    104  CG        44.4380  -40.2700    4.7910 C.3   173  PRO173      0.0237
    105  CD        45.0170  -41.2350    3.8020 C.3   173  PRO173      0.0939
    106  N         47.8710  -40.3710   -5.1670 N.3   197  LEU197     -0.1231
    107  CA        46.5820  -40.1660   -4.5300 C.3   197  LEU197      0.1693
    108  C         45.5400  -39.9530   -5.6340 C.2   197  LEU197      0.2591
    109  O         45.7610  -39.2030   -6.5840 O.2   197  LEU197     -0.2718
    110  CB        46.6620  -38.9540   -3.6010 C.3   197  LEU197      0.0284
    111  CG        45.4260  -38.5990   -2.7790 C.3   197  LEU197      0.0019
    112  CD1       45.1310  -39.6840   -1.7450 C.3   197  LEU197      0.0001
    113  CD2       45.6740  -37.2690   -2.1020 C.3   197  LEU197      0.0001
    114  N         44.4030  -40.6270   -5.5140 N.am  198  GLU198     -0.1979
    115  CA        43.3590  -40.5770   -6.5380 C.3   198  GLU198      0.1602
    116  C         43.0660  -39.1550   -7.0440 C.2   198  GLU198      0.2287
    117  O         42.7550  -38.2620   -6.2480 O.2   198  GLU198     -0.2864
    118  CB        42.0720  -41.2220   -5.9850 C.3   198  GLU198      0.0415
    119  CG        41.5610  -40.6290   -4.6820 C.3   198  GLU198      0.1163
    120  CD        41.9490  -41.4360   -3.4330 C.2   198  GLU198      0.3649
    121  OE1       43.0420  -42.0550   -3.3800 O.co2 198  GLU198     -0.2457
    122  OE2       41.1300  -41.4840   -2.5050 O.co2 198  GLU198     -0.2457
@<TRIPOS>BOND
     1   116   115    1
     2   116   117    2
     3   109   108    2
     4   115   118    1
     5   115   114    1
     6     1     2    1
     7   118   119    1
     8     2     5    1
     9     2     3    1
    10   108   114   am
    11   108   107    1
    12     7     9   ar
    13     7     6   ar
    14   106   107    1
    15     5     6    1
    16     3     4    2
    17     9    10   ar
    18     6     8   ar
    19   119   120    1
    20   107   110    1
    21   110   111    1
    22    10     8   ar
    23    10    12   ar
    24     8    11   ar
    25   120   121   ar
    26   120   122   ar
    27   111   113    1
    28   111   112    1
    29    17    16    1
    30    17    18    2
    31    15    16    1
    32    12    14   ar
    33    11    13   ar
    34    16    19    1
    35    82    81   ar
    36    14    13   ar
    37    83    81   ar
    38    81    80    1
    39    30    28   ar
    40    19    20    1
    41    80    77    1
    42    20    21    1
    43    91    89   am
    44    28    29   ar
    45    28    27    1
    46    77    76    1
    47    77    78    1
    48    84    78   am
    49    84    85    1
    50    27    24    1
    51    89    90    2
    52    89    88    1
    53    98    96    1
    54    78    79    2
    55    96    97    1
    56    96    93    1
    57    85    88    1
    58    85    86    1
    59    95    94    2
    60    21    22    1
    61    92    93    1
    62    24    23    1
    63    24    25    1
    64    93    94    1
    65    94    99   am
    66    26    25    2
    67    86    87    2
    68    25    31   am
    69    99   105    1
    70    99   100    1
    71   105   104    1
    72    75    74    1
    73    31    32    1
    74   104   103    1
    75   100   101    1
    76   100   103    1
    77    74    73   ar
    78    74    72   ar
    79    73    71   ar
    80    32    33    1
    81    32    35    1
    82   101   102    2
    83    34    33    2
    84    33    41   am
    85    35    36    1
    86    72    70   ar
    87    71    69   ar
    88    37    36   ar
    89    37    39   ar
    90    36    38   ar
    91    41    42    1
    92    70    69   ar
    93    69    68    1
    94    39    40   ar
    95    38    40   ar
    96    42    43    1
    97    42    45    1
    98    51    53   ar
    99    51    48   ar
   100    53    54   ar
   101    55    43   am
   102    55    56    1
   103    43    44    2
   104    59    56    1
   105    59    60    1
   106    68    65    1
   107    63    62    1
   108    56    57    1
   109    45    46    1
   110    61    60    1
   111    61    62    1
   112    54    52   ar
   113    65    64    1
   114    65    66    1
   115    48    46   ar
   116    48    50   ar
   117    46    47   ar
   118    67    66    2
   119    57    58    2
   120    52    50   ar
   121    50    49   ar
   122    47    49   ar
