@<TRIPOS>MOLECULE
tmp/5p9sA01.pdb
 145 143 0 0 0
SMALL
GASTEIGER

@<TRIPOS>ATOM
      1  N         35.1240  -28.5040   10.8940 N.3    36  TRP36      -0.1241
      2  CA        33.9330  -28.0160   10.2080 C.3    36  TRP36       0.1605
      3  C         32.6450  -28.4860   10.9180 C.2    36  TRP36       0.2264
      4  O         32.5920  -29.5740   11.5120 O.2    36  TRP36      -0.2867
      5  CB        33.9370  -28.4640    8.7400 C.3    36  TRP36       0.0550
      6  CG        32.8100  -27.8870    7.9120 C.ar   36  TRP36       0.0003
      7  CD1       32.8670  -26.7930    7.0760 C.ar   36  TRP36       0.0946
      8  CD2       31.4650  -28.3860    7.8280 C.ar   36  TRP36       0.0152
      9  NE1       31.6360  -26.5860    6.4880 N.ar   36  TRP36      -0.2442
     10  CE2       30.7610  -27.5420    6.9330 C.ar   36  TRP36       0.0810
     11  CE3       30.7910  -29.4600    8.4200 C.ar   36  TRP36       0.0012
     12  CZ2       29.4130  -27.7420    6.6260 C.ar   36  TRP36       0.0191
     13  CZ3       29.4530  -29.6580    8.1140 C.ar   36  TRP36       0.0001
     14  CH2       28.7760  -28.8030    7.2280 C.ar   36  TRP36       0.0015
     15  N         28.0050  -27.5230   10.7700 N.3    38  MET38      -0.1230
     16  CA        26.9740  -26.8990    9.9420 C.3    38  MET38       0.1702
     17  C         26.2990  -25.6970   10.6120 C.2    38  MET38       0.2592
     18  O         25.0730  -25.5690   10.5960 O.2    38  MET38      -0.2718
     19  CB        25.9350  -27.9380    9.4860 C.3    38  MET38       0.0401
     20  CG        25.5200  -28.8750   10.6050 C.3    38  MET38       0.0596
     21  SD        24.2300  -30.0550   10.1850 S.3    38  MET38      -0.1393
     22  CE        24.1610  -31.0260   11.7050 C.3    38  MET38       0.0692
     23  N         27.1050  -24.8260   11.2100 N.am   39  ASN39      -0.1974
     24  CA        26.6080  -23.5240   11.6360 C.3    39  ASN39       0.1688
     25  C         26.3900  -22.6880   10.3760 C.2    39  ASN39       0.2292
     26  O         27.1270  -22.8340    9.3900 O.2    39  ASN39      -0.2864
     27  CB        27.6160  -22.8100   12.5460 C.3    39  ASN39       0.1181
     28  CG        28.1650  -23.7080   13.6430 C.2    39  ASN39       0.2629
     29  OD1       29.3440  -24.0810   13.6170 O.2    39  ASN39      -0.2716
     30  ND2       27.3210  -24.0440   14.6290 N.am   39  ASN39      -0.0877
     31  N         16.4510  -23.9070    8.4660 N.3   139  ASP139     -0.1225
     32  CA        17.8230  -24.3750    8.4650 C.3   139  ASP139      0.1805
     33  C         17.9050  -25.6770    9.2530 C.2   139  ASP139      0.2598
     34  O         18.8830  -25.9320    9.9690 O.2   139  ASP139     -0.2718
     35  CB        18.7390  -23.2950    9.0700 C.3   139  ASP139      0.1424
     36  CG        20.2200  -23.6140    8.8910 C.2   139  ASP139      0.3668
     37  OD1       20.5880  -24.2550    7.8590 O.co2 139  ASP139     -0.2456
     38  OD2       21.0120  -23.2320    9.7800 O.co2 139  ASP139     -0.2456
     39  N         16.8620  -26.4960    9.1460 N.am  140  HIS140     -0.1961
     40  CA        16.9090  -27.8240    9.7540 C.3   140  HIS140      0.1787
     41  C         17.3510  -28.8930    8.7390 C.2   140  HIS140      0.2620
     42  O         18.5380  -29.2630    8.6770 O.2   140  HIS140     -0.2715
     43  CB        15.5820  -28.1990   10.4380 C.3   140  HIS140      0.0785
     44  CG        14.3540  -27.8120    9.6660 C.ar  140  HIS140      0.0821
     45  ND1       14.3940  -27.0800    8.4940 N.ar  140  HIS140     -0.2267
     46  CD2       13.0430  -28.0540    9.9120 C.ar  140  HIS140      0.1154
     47  CE1       13.1610  -26.8850    8.0600 C.ar  140  HIS140      0.1986
     48  NE2       12.3230  -27.4620    8.9040 N.ar  140  HIS140     -0.2212
     49  N         16.4010  -29.3770    7.9420 N.am  141  TRP141     -0.1960
     50  CA        16.6750  -30.4610    7.0030 C.3   141  TRP141      0.1771
     51  C         15.9750  -30.2150    5.6730 C.2   141  TRP141      0.2619
     52  O         14.7440  -30.0910    5.6260 O.2   141  TRP141     -0.2715
     53  CB        16.2320  -31.8030    7.5950 C.3   141  TRP141      0.0590
     54  CG        16.4610  -32.9570    6.6790 C.ar  141  TRP141      0.0006
     55  CD1       15.5160  -33.8200    6.1820 C.ar  141  TRP141      0.0946
     56  CD2       17.7150  -33.3740    6.1250 C.ar  141  TRP141      0.0152
     57  NE1       16.1130  -34.7550    5.3590 N.ar  141  TRP141     -0.2442
     58  CE2       17.4660  -34.5010    5.3060 C.ar  141  TRP141      0.0810
     59  CE3       19.0350  -32.9050    6.2410 C.ar  141  TRP141      0.0012
     60  CZ2       18.4810  -35.1670    4.6090 C.ar  141  TRP141      0.0191
     61  CZ3       20.0420  -33.5640    5.5510 C.ar  141  TRP141      0.0001
     62  CH2       19.7580  -34.6850    4.7440 C.ar  141  TRP141      0.0015
     63  N         16.7680  -30.1650    4.6050 N.am  142  LYS142     -0.1977
     64  CA        16.2730  -29.8340    3.2710 C.3   142  LYS142      0.1596
     65  C         14.9200  -30.4540    2.9110 C.2   142  LYS142      0.2287
     66  O         14.0510  -29.7770    2.3430 O.2   142  LYS142     -0.2864
     67  CB        17.3340  -30.1450    2.2020 C.3   142  LYS142      0.0298
     68  CG        17.9510  -31.5400    2.2570 C.3   142  LYS142      0.0038
     69  CD        19.0350  -31.6690    1.1730 C.3   142  LYS142      0.0206
     70  CE        19.4290  -33.1190    0.8860 C.3   142  LYS142      0.1093
     71  NZ        18.3090  -33.9000    0.2710 N.3   142  LYS142     -0.1314
     72  N         11.8660  -28.2580    4.2780 N.3   145  TYR145     -0.1241
     73  CA        11.6330  -26.8560    3.9680 C.3   145  TYR145      0.1605
     74  C         10.2450  -26.6640    3.3790 C.2   145  TYR145      0.2264
     75  O          9.4500  -25.8750    3.9120 O.2   145  TYR145     -0.2867
     76  CB        12.6810  -26.2960    3.0050 C.3   145  TYR145      0.0534
     77  CG        14.0430  -26.0130    3.6210 C.ar  145  TYR145     -0.0201
     78  CD1       14.4960  -26.7110    4.7280 C.ar  145  TYR145     -0.0009
     79  CD2       14.8780  -25.0390    3.0730 C.ar  145  TYR145     -0.0009
     80  CE1       15.7540  -26.4470    5.2740 C.ar  145  TYR145      0.0417
     81  CE2       16.1240  -24.7660    3.6140 C.ar  145  TYR145      0.0417
     82  CZ        16.5620  -25.4720    4.7080 C.ar  145  TYR145      0.1957
     83  OH        17.8080  -25.2010    5.2340 O.3   145  TYR145     -0.2866
     84  N         18.3420  -21.2990    4.4890 N.3   167  ASP167     -0.1225
     85  CA        19.7720  -21.5250    4.2770 C.3   167  ASP167      0.1805
     86  C         19.9720  -22.7610    3.3870 C.2   167  ASP167      0.2597
     87  O         19.1110  -23.6470    3.3550 O.2   167  ASP167     -0.2718
     88  CB        20.4720  -21.6990    5.6350 C.3   167  ASP167      0.1424
     89  CG        21.9890  -21.8580    5.5170 C.2   167  ASP167      0.3668
     90  OD1       22.6460  -21.1170    4.7330 O.co2 167  ASP167     -0.2456
     91  OD2       22.5370  -22.7320    6.2340 O.co2 167  ASP167     -0.2456
     92  N         21.0900  -22.8160    2.6610 N.am  168  ASN168     -0.1974
     93  CA        21.4390  -24.0020    1.8630 C.3   168  ASN168      0.1688
     94  C         20.5070  -24.2740    0.6810 C.2   168  ASN168      0.2292
     95  O         20.2620  -25.4320    0.3150 O.2   168  ASN168     -0.2864
     96  CB        21.5090  -25.2610    2.7420 C.3   168  ASN168      0.1181
     97  CG        22.2600  -25.0270    4.0450 C.2   168  ASN168      0.2629
     98  OD1       21.6770  -25.0930    5.1240 O.2   168  ASN168     -0.2716
     99  ND2       23.5670  -24.7660    3.9460 N.am  168  ASN168     -0.0877
    100  N         23.5870  -25.6130   -1.5220 N.3   171  VAL171     -0.1231
    101  CA        24.2910  -26.7750   -0.9630 C.3   171  VAL171      0.1678
    102  C         23.9530  -26.9670    0.5080 C.2   171  VAL171      0.2434
    103  O         24.1600  -26.0510    1.3120 O.2   171  VAL171     -0.2733
    104  CB        25.8240  -26.6580   -1.1110 C.3   171  VAL171      0.0265
    105  CG1       26.5160  -27.8470   -0.4560 C.3   171  VAL171      0.0020
    106  CG2       26.2090  -26.5510   -2.5750 C.3   171  VAL171      0.0020
    107  N         23.4520  -28.1680    0.8700 N.am  172  PRO172     -0.2729
    108  CA        23.2300  -29.3210   -0.0180 C.3   172  PRO172      0.1401
    109  C         22.0920  -29.1330   -1.0310 C.2   172  PRO172      0.2269
    110  O         21.9110  -30.0070   -1.8890 O.2   172  PRO172     -0.2865
    111  CB        22.8470  -30.4520    0.9540 C.3   172  PRO172      0.0296
    112  CG        23.2970  -30.0060    2.3000 C.3   172  PRO172      0.0237
    113  CD        23.1990  -28.5100    2.2830 C.3   172  PRO172      0.0939
    114  N         29.2030  -21.5530    1.2760 N.3   196  LEU196     -0.1231
    115  CA        29.0020  -22.5480    2.3210 C.3   196  LEU196      0.1693
    116  C         29.9040  -22.2350    3.5170 C.2   196  LEU196      0.2591
    117  O         31.0910  -21.9350    3.3440 O.2   196  LEU196     -0.2718
    118  CB        29.3010  -23.9540    1.7900 C.3   196  LEU196      0.0284
    119  CG        29.0020  -25.1180    2.7340 C.3   196  LEU196      0.0019
    120  CD1       27.5210  -25.1580    3.0620 C.3   196  LEU196      0.0001
    121  CD2       29.4390  -26.4280    2.0840 C.3   196  LEU196      0.0001
    122  N         29.3340  -22.3020    4.7200 N.am  197  GLU197     -0.1979
    123  CA        30.0620  -22.0030    5.9470 C.3   197  GLU197      0.1602
    124  C         31.4660  -22.6070    5.9680 C.2   197  GLU197      0.2287
    125  O         31.6680  -23.7590    5.5620 O.2   197  GLU197     -0.2864
    126  CB        29.2860  -22.4930    7.1790 C.3   197  GLU197      0.0415
    127  CG        28.8990  -23.9760    7.1470 C.3   197  GLU197      0.1163
    128  CD        27.4210  -24.1910    6.8130 C.2   197  GLU197      0.3649
    129  OE1       26.9090  -23.4990    5.9010 O.co2 197  GLU197     -0.2457
    130  OE2       26.7630  -25.0410    7.4660 O.co2 197  GLU197     -0.2457
    131  N         33.9250  -22.4920    4.2350 N.3   199  MET199     -0.1245
    132  CA        34.3760  -23.0460    2.9530 C.3   199  MET199      0.1570
    133  C         34.2250  -22.0090    1.8450 C.2   199  MET199      0.2261
    134  O         33.8580  -20.8550    2.0990 O.2   199  MET199     -0.2867
    135  CB        33.5630  -24.2910    2.5720 C.3   199  MET199      0.0387
    136  CG        33.9270  -25.5700    3.3240 C.3   199  MET199      0.0595
    137  SD        33.0370  -27.0110    2.6640 S.3   199  MET199     -0.1393
    138  CE        33.9060  -28.3680    3.4530 C.3   199  MET199      0.0692
    139  N         32.8750  -23.2980   -1.3360 N.3   201  VAL201     -0.1245
    140  CA        31.7790  -23.8040   -2.1500 C.3   201  VAL201      0.1561
    141  C         30.6950  -22.7130   -2.2210 C.2   201  VAL201      0.2260
    142  O         30.4490  -22.0060   -1.2370 O.2   201  VAL201     -0.2867
    143  CB        31.1860  -25.0870   -1.5270 C.3   201  VAL201      0.0252
    144  CG1       29.9290  -25.5230   -2.2760 C.3   201  VAL201      0.0019
    145  CG2       32.2170  -26.2060   -1.5360 C.3   201  VAL201      0.0019
@<TRIPOS>BOND
     1   106   104    1
     2   144   143    1
     3   141   140    1
     4   141   142    2
     5   140   143    1
     6   140   139    1
     7   110   109    2
     8   145   143    1
     9   100   101    1
    10   104   101    1
    11   104   105    1
    12   109   108    1
    13   101   102    1
    14   108   107    1
    15   108   111    1
    16    71    70    1
    17    95    94    2
    18   102   107   am
    19   102   103    2
    20    94    93    1
    21   107   113    1
    22    70    69    1
    23   111   112    1
    24    69    68    1
    25   114   115    1
    26   118   115    1
    27   118   119    1
    28   133   134    2
    29   133   132    1
    30    93    92    1
    31    93    96    1
    32   121   119    1
    33    67    68    1
    34    67    64    1
    35   113   112    1
    36   115   116    1
    37    66    65    2
    38   135   132    1
    39   135   136    1
    40    92    86   am
    41   137   136    1
    42   137   138    1
    43   119   120    1
    44    96    97    1
    45    65    64    1
    46   132   131    1
    47    76    77    1
    48    76    73    1
    49    79    81   ar
    50    79    77   ar
    51    64    63    1
    52   117   116    2
    53    87    86    2
    54    74    75    2
    55    74    73    1
    56    86    85    1
    57   116   122   am
    58    81    82   ar
    59    77    78   ar
    60    99    97   am
    61    73    72    1
    62    97    98    2
    63    85    84    1
    64    85    88    1
    65    63    51   am
    66    60    62   ar
    67    60    58   ar
    68    82    83    1
    69    82    80   ar
    70   122   123    1
    71    78    80   ar
    72    90    89   ar
    73    62    61   ar
    74    58    57   ar
    75    58    56   ar
    76    57    55   ar
    77    89    88    1
    78    89    91   ar
    79    61    59   ar
    80   125   124    2
    81    52    51    2
    82    51    50    1
    83   129   128   ar
    84   123   124    1
    85   123   126    1
    86    56    59   ar
    87    56    54   ar
    88    55    54   ar
    89     9    10   ar
    90     9     7   ar
    91    12    10   ar
    92    12    14   ar
    93    54    53    1
    94   128   127    1
    95   128   130   ar
    96    10     8   ar
    97    50    53    1
    98    50    49    1
    99     7     6   ar
   100   127   126    1
   101    14    13   ar
   102     8     6   ar
   103     8    11   ar
   104    37    36   ar
   105     6     5    1
   106    49    41   am
   107    47    45   ar
   108    47    48   ar
   109    13    11   ar
   110    32    31    1
   111    32    35    1
   112    32    33    1
   113    45    44   ar
   114    42    41    2
   115    41    40    1
   116     5     2    1
   117    36    35    1
   118    36    38   ar
   119    48    46   ar
   120    39    33   am
   121    39    40    1
   122    33    34    2
   123    26    25    2
   124    19    16    1
   125    19    20    1
   126    44    46   ar
   127    44    43    1
   128    40    43    1
   129    16    17    1
   130    16    15    1
   131    21    20    1
   132    21    22    1
   133     2     1    1
   134     2     3    1
   135    25    24    1
   136    18    17    2
   137    17    23   am
   138     3     4    2
   139    23    24    1
   140    24    27    1
   141    27    28    1
   142    29    28    2
   143    28    30   am
