@<TRIPOS>MOLECULE
tmp/5p9uA01.pdb
 122 122 0 0 0
SMALL
GASTEIGER

@<TRIPOS>ATOM
      1  N         42.5550  -16.2690  -10.5930 N.3    36  TRP36      -0.1241
      2  CA        41.5900  -15.4270   -9.8820 C.3    36  TRP36       0.1605
      3  C         41.2300  -14.1780  -10.6820 C.2    36  TRP36       0.2264
      4  O         42.0880  -13.4900  -11.2930 O.2    36  TRP36      -0.2867
      5  CB        42.1090  -15.0120   -8.4970 C.3    36  TRP36       0.0550
      6  CG        40.9940  -14.3940   -7.6640 C.ar   36  TRP36       0.0003
      7  CD1       40.1720  -15.0640   -6.8270 C.ar   36  TRP36       0.0946
      8  CD2       40.5780  -13.0140   -7.6150 C.ar   36  TRP36       0.0152
      9  NE1       39.2660  -14.2220   -6.2550 N.ar   36  TRP36      -0.2442
     10  CE2       39.4690  -12.9540   -6.7310 C.ar   36  TRP36       0.0810
     11  CE3       41.0030  -11.8510   -8.2380 C.ar   36  TRP36       0.0012
     12  CZ2       38.8090  -11.7580   -6.4270 C.ar   36  TRP36       0.0191
     13  CZ3       40.3360  -10.6250   -7.9220 C.ar   36  TRP36       0.0001
     14  CH2       39.2440  -10.6090   -7.0390 C.ar   36  TRP36       0.0015
     15  N         37.9720  -10.7890  -10.5540 N.3    38  MET38      -0.1245
     16  CA        36.9010  -10.1630   -9.7290 C.3    38  MET38       0.1570
     17  C         35.4800  -10.2380  -10.3450 C.2    38  MET38       0.2261
     18  O         34.6780   -9.3340  -10.2300 O.2    38  MET38      -0.2867
     19  CB        37.3130   -8.6980   -9.4100 C.3    38  MET38       0.0387
     20  CG        37.4620   -7.7790  -10.6260 C.3    38  MET38       0.0595
     21  SD        37.8940   -6.1350  -10.0530 S.3    38  MET38      -0.1393
     22  CE        39.4400   -6.2760   -9.2050 C.3    38  MET38       0.0692
     23  N         28.9040   -2.7320   -8.4110 N.3   139  ASP139     -0.1225
     24  CA        29.9920   -3.6190   -8.3890 C.3   139  ASP139      0.1805
     25  C         31.2250   -3.0760   -9.1020 C.2   139  ASP139      0.2598
     26  O         31.9620   -3.7900   -9.7790 O.2   139  ASP139     -0.2718
     27  CB        29.6090   -4.9780   -9.0510 C.3   139  ASP139      0.1424
     28  CG        30.5800   -6.1040   -8.7490 C.2   139  ASP139      0.3668
     29  OD1       31.3060   -6.1780   -7.7360 O.co2 139  ASP139     -0.2456
     30  OD2       30.5820   -7.0240   -9.6200 O.co2 139  ASP139     -0.2456
     31  N         31.4750   -1.7970   -8.8700 N.am  140  HIS140     -0.1961
     32  CA        32.6220   -1.1190   -9.5300 C.3   140  HIS140      0.1787
     33  C         33.8270   -0.9140   -8.5920 C.2   140  HIS140      0.2620
     34  O         34.8070   -1.6640   -8.6220 O.2   140  HIS140     -0.2715
     35  CB        32.1580    0.1280  -10.2570 C.3   140  HIS140      0.0785
     36  CG        31.3270    1.1200   -9.4800 C.ar  140  HIS140      0.0821
     37  ND1       30.5940    0.8210   -8.3400 N.ar  140  HIS140     -0.2267
     38  CD2       31.0240    2.4200   -9.7820 C.ar  140  HIS140      0.1154
     39  CE1       29.9140    1.9030   -7.9770 C.ar  140  HIS140      0.1986
     40  NE2       30.1670    2.8870   -8.8290 N.ar  140  HIS140     -0.2212
     41  N         33.7140    0.1050   -7.7390 N.am  141  TRP141     -0.1960
     42  CA        34.7280    0.3560   -6.7670 C.3   141  TRP141      0.1771
     43  C         34.0570    0.8670   -5.4990 C.2   141  TRP141      0.2619
     44  O         33.2730    1.7330   -5.5530 O.2   141  TRP141     -0.2715
     45  CB        35.7660    1.3630   -7.3110 C.3   141  TRP141      0.0590
     46  CG        36.8150    1.6950   -6.2900 C.ar  141  TRP141      0.0006
     47  CD1       37.0580    2.9350   -5.7250 C.ar  141  TRP141      0.0946
     48  CD2       37.6930    0.7730   -5.6640 C.ar  141  TRP141      0.0152
     49  NE1       38.0550    2.8160   -4.7950 N.ar  141  TRP141     -0.2442
     50  CE2       38.4660    1.5150   -4.7200 C.ar  141  TRP141      0.0810
     51  CE3       37.9150   -0.6090   -5.7940 C.ar  141  TRP141      0.0012
     52  CZ2       39.4440    0.9160   -3.9230 C.ar  141  TRP141      0.0191
     53  CZ3       38.8620   -1.2160   -4.9930 C.ar  141  TRP141      0.0001
     54  CH2       39.6360   -0.4360   -4.0590 C.ar  141  TRP141      0.0015
     55  N         34.4690    0.2790   -4.4000 N.am  142  LYS142     -0.1977
     56  CA        33.9140    0.5300   -3.1010 C.3   142  LYS142      0.1596
     57  C         33.6630    1.9870   -2.7290 C.2   142  LYS142      0.2287
     58  O         32.6040    2.3150   -2.2430 O.2   142  LYS142     -0.2864
     59  CB        34.6650   -0.1980   -2.0000 C.3   142  LYS142      0.0298
     60  CG        36.1550    0.2300   -1.8000 C.3   142  LYS142      0.0038
     61  CD        36.9820   -0.7360   -0.8700 C.3   142  LYS142      0.0206
     62  CE        38.2910   -0.0430   -0.4540 C.3   142  LYS142      0.1093
     63  NZ        38.0030    1.3200    0.1260 N.3   142  LYS142     -0.1314
     64  N         30.3420    3.6630   -4.1110 N.3   145  TYR145     -0.1241
     65  CA        28.9920    3.1340   -3.8950 C.3   145  TYR145      0.1605
     66  C         28.0680    4.2120   -3.3390 C.2   145  TYR145      0.2264
     67  O         26.9660    4.4590   -3.8010 O.2   145  TYR145     -0.2867
     68  CB        28.9630    1.8900   -3.0040 C.3   145  TYR145      0.0534
     69  CG        29.3350    0.5860   -3.6390 C.ar  145  TYR145     -0.0201
     70  CD1       30.2860    0.4700   -4.5990 C.ar  145  TYR145     -0.0009
     71  CD2       28.7770   -0.5810   -3.1420 C.ar  145  TYR145     -0.0009
     72  CE1       30.7100   -0.7390   -5.0920 C.ar  145  TYR145      0.0417
     73  CE2       29.2150   -1.7750   -3.5900 C.ar  145  TYR145      0.0417
     74  CZ        30.1730   -1.8940   -4.5890 C.ar  145  TYR145      0.1957
     75  OH        30.6500   -3.1050   -5.0670 O.3   145  TYR145     -0.2866
     76  N         27.4500   -5.6360   -4.5050 N.3   167  ASP167     -0.1225
     77  CA        28.4530   -6.6510   -4.2650 C.3   167  ASP167      0.1805
     78  C         29.5320   -6.1280   -3.2770 C.2   167  ASP167      0.2597
     79  O         29.7510   -4.9020   -3.2020 O.2   167  ASP167     -0.2718
     80  CB        29.0930   -7.1250   -5.5810 C.3   167  ASP167      0.1424
     81  CG        29.8870   -8.4220   -5.4160 C.2   167  ASP167      0.3668
     82  OD1       29.6030   -9.1790   -4.5000 O.co2 167  ASP167     -0.2456
     83  OD2       30.8950   -8.6250   -6.2070 O.co2 167  ASP167     -0.2456
     84  N         30.1810   -7.0410   -2.5780 N.am  168  ASN168     -0.1974
     85  CA        31.4640   -6.7950   -1.8880 C.3   168  ASN168      0.1688
     86  C         31.2440   -5.9170   -0.6940 C.2   168  ASN168      0.2292
     87  O         32.1840   -5.1870   -0.3120 O.2   168  ASN168     -0.2864
     88  CB        32.5530   -6.2050   -2.8160 C.3   168  ASN168      0.1181
     89  CG        32.8060   -7.0790   -4.0040 C.2   168  ASN168      0.2629
     90  OD1       32.6000   -6.6230   -5.1050 O.2   168  ASN168     -0.2716
     91  ND2       33.2440   -8.2980   -3.7560 N.am  168  ASN168     -0.0877
     92  N         33.7880   -7.6810    1.8020 N.3   171  VAL171     -0.1231
     93  CA        35.1550   -7.7330    1.2800 C.3   171  VAL171      0.1678
     94  C         35.1320   -7.3740   -0.1960 C.2   171  VAL171      0.2434
     95  O         34.4220   -8.0340   -1.0020 O.2   171  VAL171     -0.2733
     96  CB        35.7530   -9.1480    1.4330 C.3   171  VAL171      0.0265
     97  CG1       37.1580   -9.2170    0.9000 C.3   171  VAL171      0.0020
     98  CG2       35.7550   -9.6100    2.8660 C.3   171  VAL171      0.0020
     99  N         35.8590   -6.3350   -0.6370 N.am  172  PRO172     -0.2729
    100  CA        36.7280   -5.4880    0.2040 C.3   172  PRO172      0.1401
    101  C         35.9970   -4.6190    1.2180 C.2   172  PRO172      0.2269
    102  O         36.6300   -4.0320    2.0580 O.2   172  PRO172     -0.2865
    103  CB        37.3690   -4.5770   -0.8030 C.3   172  PRO172      0.0296
    104  CG        37.4940   -5.3980   -2.0740 C.3   172  PRO172      0.0237
    105  CD        36.1060   -6.1000   -2.0650 C.3   172  PRO172      0.0939
    106  N         33.2100  -14.6460   -0.9330 N.3   196  LEU196     -0.1231
    107  CA        33.9570  -14.0530   -2.0060 C.3   196  LEU196      0.1693
    108  C         34.3250  -15.0910   -3.1080 C.2   196  LEU196      0.2591
    109  O         34.6920  -16.2530   -2.8000 O.2   196  LEU196     -0.2718
    110  CB        35.2250  -13.4050   -1.4540 C.3   196  LEU196      0.0284
    111  CG        36.0800  -12.5660   -2.3890 C.3   196  LEU196      0.0019
    112  CD1       35.3640  -11.3220   -2.7740 C.3   196  LEU196      0.0001
    113  CD2       37.3980  -12.2440   -1.6760 C.3   196  LEU196      0.0001
    114  N         34.2390  -14.6310   -4.3380 N.am  197  GLU197     -0.1979
    115  CA        34.4900  -15.4620   -5.5180 C.3   197  GLU197      0.1602
    116  C         35.9060  -16.0970   -5.5430 C.2   197  GLU197      0.2287
    117  O         36.8630  -15.4550   -5.1550 O.2   197  GLU197     -0.2864
    118  CB        34.2140  -14.6330   -6.7830 C.3   197  GLU197      0.0415
    119  CG        35.1400  -13.3440   -7.0060 C.3   197  GLU197      0.1163
    120  CD        34.5480  -12.0500   -6.5110 C.2   197  GLU197      0.3649
    121  OE1       33.7190  -12.0220   -5.5670 O.co2 197  GLU197     -0.2457
    122  OE2       34.9500  -11.0780   -7.1000 O.co2 197  GLU197     -0.2457
@<TRIPOS>BOND
     1     4     3    2
     2     3     2    1
     3    20    21    1
     4    20    19    1
     5     1     2    1
     6    15    16    1
     7    17    18    2
     8    17    16    1
     9    35    32    1
    10    35    36    1
    11    21    22    1
    12     2     5    1
    13    38    36   ar
    14    38    40   ar
    15    26    25    2
    16    16    19    1
    17    30    28   ar
    18    32    31    1
    19    32    33    1
    20    36    37   ar
    21    25    31   am
    22    25    24    1
    23    27    28    1
    24    27    24    1
    25    40    39   ar
    26    28    29   ar
    27    34    33    2
    28    33    41   am
    29     5     6    1
    30    23    24    1
    31    37    39   ar
    32    11    13   ar
    33    11     8   ar
    34    13    14   ar
    35    41    42    1
    36     6     8   ar
    37     6     7   ar
    38     8    10   ar
    39    45    42    1
    40    45    46    1
    41   122   120   ar
    42    14    12   ar
    43   119   118    1
    44   119   120    1
    45     7     9   ar
    46   118   115    1
    47    42    43    1
    48    10    12   ar
    49    10     9   ar
    50   120   121   ar
    51    46    47   ar
    52    46    48   ar
    53    83    81   ar
    54    51    48   ar
    55    51    53   ar
    56    47    49   ar
    57    48    50   ar
    58    80    81    1
    59    80    77    1
    60    44    43    2
    61   116   115    1
    62   116   117    2
    63   115   114    1
    64    43    55   am
    65    81    82   ar
    66    90    89    2
    67    72    70   ar
    68    72    74   ar
    69    75    74    1
    70    53    54   ar
    71    49    50   ar
    72    50    52   ar
    73    70    69   ar
    74    74    73   ar
    75    76    77    1
    76    55    56    1
    77   114   108   am
    78    77    78    1
    79    64    65    1
    80    54    52   ar
    81    89    91   am
    82    89    88    1
    83    65    66    1
    84    65    68    1
    85    67    66    2
    86    69    71   ar
    87    69    68    1
    88    73    71   ar
    89    78    79    2
    90    78    84   am
    91   108   109    2
    92   108   107    1
    93    56    57    1
    94    56    59    1
    95    88    85    1
    96   112   111    1
    97    57    58    2
    98    84    85    1
    99   111   113    1
   100   111   110    1
   101   104   105    1
   102   104   103    1
   103   105    99    1
   104   107   110    1
   105   107   106    1
   106    59    60    1
   107    85    86    1
   108    60    61    1
   109    95    94    2
   110    61    62    1
   111   103   100    1
   112    86    87    2
   113    99    94   am
   114    99   100    1
   115    62    63    1
   116    94    93    1
   117   100   101    1
   118    97    96    1
   119   101   102    2
   120    93    96    1
   121    93    92    1
   122    96    98    1
