@<TRIPOS>MOLECULE
tmp/5p9vA02.pdb
 122 122 0 0 0
SMALL
GASTEIGER

@<TRIPOS>ATOM
      1  N          6.1370   13.9810   15.1800 N.3    36  TRP36      -0.1241
      2  CA         6.0330   13.9810   16.6310 C.3    36  TRP36       0.1605
      3  C          5.0170   12.9590   17.0820 C.2    36  TRP36       0.2264
      4  O          3.9690   12.8110   16.4340 O.2    36  TRP36      -0.2867
      5  CB         5.5900   15.3640   17.1170 C.3    36  TRP36       0.0550
      6  CG         5.5760   15.5250   18.6090 C.ar   36  TRP36       0.0003
      7  CD1        6.6130   15.9110   19.3730 C.ar   36  TRP36       0.0946
      8  CD2        4.5080   15.1960   19.5270 C.ar   36  TRP36       0.0152
      9  NE1        6.2600   15.9480   20.6820 N.ar   36  TRP36      -0.2442
     10  CE2        4.9750   15.4630   20.8150 C.ar   36  TRP36       0.0810
     11  CE3        3.1880   14.7270   19.3690 C.ar   36  TRP36       0.0012
     12  CZ2        4.1650   15.3340   21.9460 C.ar   36  TRP36       0.0191
     13  CZ3        2.4180   14.5690   20.4960 C.ar   36  TRP36       0.0001
     14  CH2        2.9070   14.8450   21.7600 C.ar   36  TRP36       0.0015
     15  N          3.4050   11.1610   21.0980 N.3    38  MET38      -0.1245
     16  CA         3.3740   11.3140   22.5610 C.3    38  MET38       0.1570
     17  C          4.0350   10.2260   23.3740 C.2    38  MET38       0.2261
     18  O          3.5540    9.8540   24.4520 O.2    38  MET38      -0.2867
     19  CB         1.9300   11.5610   22.9940 C.3    38  MET38       0.0387
     20  CG         0.9690   10.4110   22.7580 C.3    38  MET38       0.0595
     21  SD        -0.7170   10.8310   23.3140 S.3    38  MET38      -0.1393
     22  CE        -1.6160    9.5290   22.5110 C.3    38  MET38       0.0692
     23  N          0.4940    7.8010   32.6810 N.3   139  ASP139     -0.1225
     24  CA         0.7770    8.4710   31.4150 C.3   139  ASP139      0.1805
     25  C         -0.3280    8.2150   30.3980 C.2   139  ASP139      0.2598
     26  O         -0.0710    7.9980   29.2130 O.2   139  ASP139     -0.2718
     27  CB         2.1090    7.9730   30.8340 C.3   139  ASP139      0.1424
     28  CG         2.6550    8.8070   29.7050 C.2   139  ASP139      0.3668
     29  OD1        2.3360   10.0020   29.5950 O.co2 139  ASP139     -0.2456
     30  OD2        3.4950    8.2500   28.9400 O.co2 139  ASP139     -0.2456
     31  N         -1.5780    8.2760   30.8720 N.am  140  HIS140     -0.1961
     32  CA        -2.7570    7.9780   30.0290 C.3   140  HIS140      0.1787
     33  C         -3.4800    9.2610   29.6620 C.2   140  HIS140      0.2620
     34  O         -3.3550    9.7450   28.5250 O.2   140  HIS140     -0.2715
     35  CB        -3.6310    6.8910   30.6380 C.3   140  HIS140      0.0785
     36  CG        -4.0850    7.0600   32.0530 C.ar  140  HIS140      0.0821
     37  ND1       -3.4120    7.8590   32.9510 N.ar  140  HIS140     -0.2267
     38  CD2       -5.0990    6.4370   32.7030 C.ar  140  HIS140      0.1154
     39  CE1       -4.0250    7.6920   34.1260 C.ar  140  HIS140      0.1986
     40  NE2       -5.0310    6.8400   34.0210 N.ar  140  HIS140     -0.2212
     41  N         -4.2380    9.8380   30.5750 N.am  141  TRP141     -0.1960
     42  CA        -4.9860   11.0580   30.3050 C.3   141  TRP141      0.1771
     43  C         -5.0250   11.8630   31.6030 C.2   141  TRP141      0.2619
     44  O         -5.3630   11.3340   32.6570 O.2   141  TRP141     -0.2715
     45  CB        -6.3960   10.7620   29.8140 C.3   141  TRP141      0.0590
     46  CG        -7.2320   11.9590   29.6170 C.ar  141  TRP141      0.0006
     47  CD1       -8.3820   12.2650   30.2760 C.ar  141  TRP141      0.0946
     48  CD2       -6.9310   13.0950   28.7630 C.ar  141  TRP141      0.0152
     49  NE1       -8.8550   13.4950   29.8290 N.ar  141  TRP141     -0.2442
     50  CE2       -7.9620   14.0440   28.9450 C.ar  141  TRP141      0.0810
     51  CE3       -5.8700   13.4340   27.8920 C.ar  141  TRP141      0.0012
     52  CZ2       -8.0030   15.2820   28.2620 C.ar  141  TRP141      0.0191
     53  CZ3       -5.9060   14.6810   27.2370 C.ar  141  TRP141      0.0001
     54  CH2       -6.9630   15.5840   27.4410 C.ar  141  TRP141      0.0015
     55  N         -4.6680   13.1460   31.4830 N.am  142  LYS142     -0.1977
     56  CA        -4.4940   14.0290   32.6070 C.3   142  LYS142      0.1596
     57  C         -5.6490   13.9770   33.6260 C.2   142  LYS142      0.2287
     58  O         -5.3890   13.9480   34.8350 O.2   142  LYS142     -0.2864
     59  CB        -4.2810   15.4410   32.1110 C.3   142  LYS142      0.0298
     60  CG        -5.3890   15.9710   31.2150 C.3   142  LYS142      0.0038
     61  CD        -5.0610   17.3640   30.7840 C.3   142  LYS142      0.0206
     62  CE        -6.2560   18.0060   30.1380 C.3   142  LYS142      0.1093
     63  NZ        -6.0090   19.4260   29.8590 N.3   142  LYS142     -0.1314
     64  N         -5.6080   11.0270   36.3170 N.3   145  TYR145     -0.1241
     65  CA        -4.4980   10.7760   37.2630 C.3   145  TYR145      0.1605
     66  C         -5.0150   10.7390   38.7090 C.2   145  TYR145      0.2264
     67  O         -4.6980    9.7860   39.4470 O.2   145  TYR145     -0.2867
     68  CB        -3.3950   11.8010   37.1330 C.3   145  TYR145      0.0534
     69  CG        -2.4490   11.6740   35.9660 C.ar  145  TYR145     -0.0201
     70  CD1       -2.8050   11.1410   34.7370 C.ar  145  TYR145     -0.0009
     71  CD2       -1.1580   12.1640   36.1070 C.ar  145  TYR145     -0.0009
     72  CE1       -1.9070   11.1270   33.6760 C.ar  145  TYR145      0.0417
     73  CE2       -0.2800   12.1640   35.0170 C.ar  145  TYR145      0.0417
     74  CZ        -0.6640   11.6490   33.8110 C.ar  145  TYR145      0.1957
     75  OH         0.1520   11.6620   32.6970 O.3   145  TYR145     -0.2866
     76  N          3.8390   11.3000   34.2860 N.3   167  ASP167     -0.1225
     77  CA         4.3060   12.0990   33.1500 C.3   167  ASP167      0.1805
     78  C          3.4020   13.3110   32.9960 C.2   167  ASP167      0.2597
     79  O          2.2220   13.3220   33.3640 O.2   167  ASP167     -0.2718
     80  CB         4.3260   11.2700   31.8450 C.3   167  ASP167      0.1424
     81  CG         5.0630   11.9910   30.7110 C.2   167  ASP167      0.3668
     82  OD1        5.9820   12.7520   31.0470 O.co2 167  ASP167     -0.2456
     83  OD2        4.7350   11.7330   29.5120 O.co2 167  ASP167     -0.2456
     84  N          3.9390   14.3640   32.3710 N.am  168  ASN168     -0.1974
     85  CA         3.1140   15.4770   31.8240 C.3   168  ASN168      0.1688
     86  C          2.4510   16.3040   32.8920 C.2   168  ASN168      0.2292
     87  O          1.3850   16.9020   32.6800 O.2   168  ASN168     -0.2864
     88  CB         2.0450   15.0040   30.8470 C.3   168  ASN168      0.1181
     89  CG         2.5950   14.2170   29.6890 C.2   168  ASN168      0.2629
     90  OD1        2.2320   13.0310   29.5080 O.2   168  ASN168     -0.2716
     91  ND2        3.5030   14.7970   28.9200 N.am  168  ASN168     -0.0877
     92  N          2.8880   19.8540   31.1420 N.3   171  VAL171     -0.1231
     93  CA         2.2470   19.9510   29.7900 C.3   171  VAL171      0.1678
     94  C          1.8280   18.5210   29.4030 C.2   171  VAL171      0.2434
     95  O          2.7150   17.7130   29.2270 O.2   171  VAL171     -0.2733
     96  CB         3.2460   20.5350   28.7000 C.3   171  VAL171      0.0265
     97  CG1        2.5910   20.5410   27.3010 C.3   171  VAL171      0.0020
     98  CG2        3.6610   21.9710   29.0660 C.3   171  VAL171      0.0020
     99  N          0.5220   18.2020   29.2180 N.am  172  PRO172     -0.2729
    100  CA        -0.6170   19.1320   29.3370 C.3   172  PRO172      0.1401
    101  C         -0.8780   19.6980   30.7560 C.2   172  PRO172      0.2269
    102  O         -1.5740   20.6820   30.8660 O.2   172  PRO172     -0.2865
    103  CB        -1.8160   18.2640   28.9210 C.3   172  PRO172      0.0296
    104  CG        -1.2310   17.3110   27.8780 C.3   172  PRO172      0.0237
    105  CD         0.1320   16.9620   28.5130 C.3   172  PRO172      0.0939
    106  N          9.2220   18.3730   27.3340 N.3   196  LEU196     -0.1231
    107  CA         8.2490   17.6270   26.5470 C.3   196  LEU196      0.1693
    108  C          9.0300   16.8280   25.5150 C.2   196  LEU196      0.2591
    109  O          9.9550   17.3200   24.8770 O.2   196  LEU196     -0.2718
    110  CB         7.3160   18.5920   25.8870 C.3   196  LEU196      0.0284
    111  CG         6.1650   18.0190   25.0640 C.3   196  LEU196      0.0019
    112  CD1        5.1950   17.1690   25.9670 C.3   196  LEU196      0.0001
    113  CD2        5.3960   19.1150   24.3770 C.3   196  LEU196      0.0001
    114  N          8.6130   15.5770   25.2800 N.am  197  GLU197     -0.1979
    115  CA         9.2760   14.7070   24.3320 C.3   197  GLU197      0.1602
    116  C          9.4710   15.4340   22.9970 C.2   197  GLU197      0.2287
    117  O          8.5560   16.0320   22.4150 O.2   197  GLU197     -0.2864
    118  CB         8.4580   13.4340   24.1440 C.3   197  GLU197      0.0415
    119  CG         6.9600   13.6330   23.8140 C.3   197  GLU197      0.1163
    120  CD         6.0390   13.5380   25.0470 C.2   197  GLU197      0.3649
    121  OE1        6.4580   13.9500   26.1690 O.co2 197  GLU197     -0.2457
    122  OE2        4.8940   13.0980   24.8590 O.co2 197  GLU197     -0.2457
@<TRIPOS>BOND
     1     1     2    1
     2     4     3    2
     3     2     3    1
     4     2     5    1
     5     5     6    1
     6     6     7   ar
     7     6     8   ar
     8    11     8   ar
     9    11    13   ar
    10     7     9   ar
    11     8    10   ar
    12    13    14   ar
    13     9    10   ar
    14    10    12   ar
    15    15    16    1
    16    14    12   ar
    17   117   116    2
    18    22    21    1
    19    16    19    1
    20    16    17    1
    21    20    19    1
    22    20    21    1
    23   116   115    1
    24    17    18    2
    25   119   118    1
    26   119   120    1
    27   118   115    1
    28   115   114    1
    29   113   111    1
    30   122   120   ar
    31   109   108    2
    32   120   121   ar
    33   111   110    1
    34   111   112    1
    35   114   108   am
    36   108   107    1
    37   110   107    1
    38   107   106    1
    39    53    54   ar
    40    53    51   ar
    41    97    96    1
    42    54    52   ar
    43   104   105    1
    44   104   103    1
    45    51    48   ar
    46    52    50   ar
    47   105    99    1
    48    34    33    2
    49    96    98    1
    50    96    93    1
    51    48    50   ar
    52    48    46   ar
    53    91    89   am
    54   103   100    1
    55    30    28   ar
    56    50    49   ar
    57    26    25    2
    58    99   100    1
    59    99    94   am
    60    95    94    2
    61   100   101    1
    62    94    93    1
    63    90    89    2
    64    83    81   ar
    65    29    28   ar
    66    46    45    1
    67    46    47   ar
    68    33    32    1
    69    33    41   am
    70    89    88    1
    71    28    27    1
    72    93    92    1
    73    45    42    1
    74    49    47   ar
    75    63    62    1
    76    32    35    1
    77    32    31    1
    78    62    61    1
    79    42    41    1
    80    42    43    1
    81    25    31   am
    82    25    24    1
    83    35    36    1
    84    81    82   ar
    85    81    80    1
    86   101   102    2
    87    61    60    1
    88    27    24    1
    89    88    85    1
    90    60    59    1
    91    24    23    1
    92    55    43   am
    93    55    56    1
    94    43    44    2
    95    85    84    1
    96    85    86    1
    97    80    77    1
    98    36    38   ar
    99    36    37   ar
   100    59    56    1
   101    84    78   am
   102    56    57    1
   103    87    86    2
   104    75    74    1
   105    38    40   ar
   106    37    39   ar
   107    78    77    1
   108    78    79    2
   109    77    76    1
   110    57    58    2
   111    72    74   ar
   112    72    70   ar
   113    74    73   ar
   114    40    39   ar
   115    70    69   ar
   116    73    71   ar
   117    69    71   ar
   118    69    68    1
   119    64    65    1
   120    68    65    1
   121    65    66    1
   122    66    67    2
