@<TRIPOS>MOLECULE
tmp/5p9wA00.pdb
 222 218 0 0 0
SMALL
GASTEIGER

@<TRIPOS>ATOM
      1  N          6.1900   13.1160   25.6650 N.3    36  TRP36      -0.1241
      2  CA         6.0320   13.1350   24.1950 C.3    36  TRP36       0.1605
      3  C          5.0300   14.1790   23.7480 C.2    36  TRP36       0.2264
      4  O          3.9910   14.4060   24.4160 O.2    36  TRP36      -0.2867
      5  CB         5.5330   11.7740   23.7230 C.3    36  TRP36       0.0550
      6  CG         5.5030   11.6060   22.2200 C.ar   36  TRP36       0.0003
      7  CD1        6.5360   11.1590   21.4280 C.ar   36  TRP36       0.0946
      8  CD2        4.4320   11.9110   21.3180 C.ar   36  TRP36       0.0152
      9  NE1        6.1560   11.1390   20.1300 N.ar   36  TRP36      -0.2442
     10  CE2        4.8660   11.5780   20.0130 C.ar   36  TRP36       0.0810
     11  CE3        3.1060   12.3650   21.4830 C.ar   36  TRP36       0.0012
     12  CZ2        4.0140   11.7420   18.8790 C.ar   36  TRP36       0.0191
     13  CZ3        2.3010   12.4850   20.3940 C.ar   36  TRP36       0.0001
     14  CH2        2.7580   12.2050   19.0960 C.ar   36  TRP36       0.0015
     15  N          3.3440   15.8840   19.7160 N.3    38  MET38      -0.1230
     16  CA         3.2620   15.7030   18.2570 C.3    38  MET38       0.1702
     17  C          3.9270   16.8530   17.4620 C.2    38  MET38       0.2592
     18  O          3.4200   17.2860   16.4260 O.2    38  MET38      -0.2718
     19  CB         1.8140   15.5180   17.8170 C.3    38  MET38       0.0401
     20  CG         0.8790   16.6500   18.2240 C.3    38  MET38       0.0596
     21  SD        -0.7250   16.4730   17.4560 S.3    38  MET38      -0.1393
     22  CE        -1.6460   17.8110   18.2340 C.3    38  MET38       0.0692
     23  N          5.1040   17.2800   17.9090 N.am   39  ASN39      -0.1974
     24  CA         5.9320   18.2080   17.1090 C.3    39  ASN39       0.1688
     25  C          6.5810   17.4130   15.9900 C.2    39  ASN39       0.2292
     26  O          6.8470   16.2240   16.1700 O.2    39  ASN39      -0.2864
     27  CB         7.0410   18.8410   17.9690 C.3    39  ASN39       0.1181
     28  CG         6.5380   19.4400   19.2590 C.2    39  ASN39       0.2629
     29  OD1        6.9930   19.0470   20.3670 O.2    39  ASN39      -0.2716
     30  ND2        5.6540   20.3470   19.1770 N.am   39  ASN39      -0.0877
     31  N         -0.3950   24.1170    7.4570 N.3    63  LEU63      -0.1231
     32  CA        -1.6910   23.6730    7.9400 C.3    63  LEU63       0.1693
     33  C         -1.4870   22.8760    9.1850 C.2    63  LEU63       0.2592
     34  O         -0.9650   21.7450    9.1420 O.2    63  LEU63      -0.2718
     35  CB        -2.3840   22.8390    6.8510 C.3    63  LEU63       0.0284
     36  CG        -2.5270   23.5460    5.4910 C.3    63  LEU63       0.0019
     37  CD1       -3.1680   22.6150    4.4100 C.3    63  LEU63       0.0001
     38  CD2       -3.2440   24.8910    5.6050 C.3    63  LEU63       0.0001
     39  N         -1.8510   23.4660   10.3120 N.am   64  GLY64      -0.1957
     40  CA        -1.7010   22.8520   11.6300 C.3    64  GLY64       0.1869
     41  C         -0.4430   23.4100   12.2650 C.2    64  GLY64       0.2309
     42  O          0.6500   23.0980   11.8000 O.2    64  GLY64      -0.2863
     43  N          0.0670   23.6200   16.0100 N.3    66  TYR66      -0.1241
     44  CA         0.2870   23.0270   17.3050 C.3    66  TYR66       0.1605
     45  C          0.9620   23.9720   18.2950 C.2    66  TYR66       0.2264
     46  O          0.2720   24.9060   18.7530 O.2    66  TYR66      -0.2867
     47  CB         0.9410   21.6080   17.2070 C.3    66  TYR66       0.0534
     48  CG         0.9890   20.8390   18.5130 C.ar   66  TYR66      -0.0201
     49  CD1       -0.0980   20.8440   19.3570 C.ar   66  TYR66      -0.0009
     50  CD2        2.1390   20.1740   18.9340 C.ar   66  TYR66      -0.0009
     51  CE1       -0.0480   20.1620   20.5880 C.ar   66  TYR66       0.0417
     52  CE2        2.2200   19.5260   20.1710 C.ar   66  TYR66       0.0417
     53  CZ         1.0870   19.5090   20.9700 C.ar   66  TYR66       0.1957
     54  OH         1.1630   18.8590   22.1760 O.3    66  TYR66      -0.2866
     55  N         -1.9870   28.1140    9.8510 N.3    87  MET87      -0.1230
     56  CA        -3.3940   28.0310   10.2060 C.3    87  MET87       0.1702
     57  C         -3.5840   27.0030   11.3130 C.2    87  MET87       0.2592
     58  O         -3.1270   25.8610   11.2030 O.2    87  MET87      -0.2718
     59  CB        -4.2090   27.6470    8.9690 C.3    87  MET87       0.0401
     60  CG        -4.0540   28.6040    7.7800 C.3    87  MET87       0.0596
     61  SD        -5.0430   28.0900    6.4020 S.3    87  MET87      -0.1393
     62  CE        -4.9390   29.5810    5.3690 C.3    87  MET87       0.0692
     63  N         -4.2800   27.4100   12.3630 N.am   88  GLU88      -0.1966
     64  CA        -4.4730   26.5720   13.5480 C.3    88  GLU88       0.1733
     65  C         -5.8630   26.8590   14.1120 C.2    88  GLU88       0.2616
     66  O         -6.1520   27.9840   14.5680 O.2    88  GLU88      -0.2715
     67  CB        -3.4380   26.9260   14.6000 C.3    88  GLU88       0.0429
     68  CG        -3.5450   26.1590   15.9210 C.3    88  GLU88       0.1163
     69  CD        -3.7080   24.6590   15.7290 C.2    88  GLU88       0.3649
     70  OE1       -2.6880   24.0080   15.3040 O.co2  88  GLU88      -0.2457
     71  OE2       -4.8420   24.1600   15.9950 O.co2  88  GLU88      -0.2457
     72  N         -6.7240   25.8630   14.1060 N.am   89  MET89      -0.1963
     73  CA        -8.1020   26.0710   14.5510 C.3    89  MET89       0.1736
     74  C         -8.2650   26.1160   16.0750 C.2    89  MET89       0.2616
     75  O         -9.2720   26.6800   16.5750 O.2    89  MET89      -0.2715
     76  CB        -9.0150   25.0300   13.9040 C.3    89  MET89       0.0427
     77  CG        -8.8040   23.6590   14.3250 C.3    89  MET89       0.0599
     78  SD        -9.8290   22.5000   13.3170 S.3    89  MET89      -0.1393
     79  CE       -11.3750   22.6020   14.2660 C.3    89  MET89       0.0692
     80  N         -7.3500   25.4810   16.8130 N.am   90  ASN90      -0.1972
     81  CA        -7.4260   25.4330   18.2850 C.3    90  ASN90       0.1688
     82  C         -6.8760   26.7260   18.8610 C.2    90  ASN90       0.2292
     83  O         -5.7090   27.0340   18.6530 O.2    90  ASN90      -0.2864
     84  CB        -6.6820   24.2150   18.7990 C.3    90  ASN90       0.1181
     85  CG        -6.7620   24.0660   20.3150 C.2    90  ASN90       0.2629
     86  OD1       -6.6380   25.0370   21.0410 O.2    90  ASN90      -0.2716
     87  ND2       -6.9650   22.8480   20.7990 N.am   90  ASN90      -0.0877
     88  N         -3.8390   26.3250   21.2120 N.3    93  TYR93      -0.1241
     89  CA        -2.6410   26.0570   20.4330 C.3    93  TYR93       0.1605
     90  C         -2.1550   27.3170   19.6680 C.2    93  TYR93       0.2264
     91  O         -0.9530   27.5930   19.6210 O.2    93  TYR93      -0.2867
     92  CB        -2.8910   24.9430   19.4140 C.3    93  TYR93       0.0534
     93  CG        -3.1550   23.5530   19.8980 C.ar   93  TYR93      -0.0201
     94  CD1       -3.1170   23.2030   21.2030 C.ar   93  TYR93      -0.0009
     95  CD2       -3.4940   22.5640   18.9590 C.ar   93  TYR93      -0.0009
     96  CE1       -3.3900   21.8870   21.6250 C.ar   93  TYR93       0.0417
     97  CE2       -3.7690   21.2700   19.3600 C.ar   93  TYR93       0.0417
     98  CZ        -3.7000   20.9320   20.6770 C.ar   93  TYR93       0.1957
     99  OH        -3.9910   19.6190   21.0990 O.3    93  TYR93      -0.2866
    100  N         -8.1050   29.7310   12.8170 N.3   115  GLY115     -0.1210
    101  CA        -9.3220   29.2460   12.1710 C.3   115  GLY115      0.1956
    102  C         -9.0200   27.9570   11.4290 C.2   115  GLY115      0.2612
    103  O         -7.8660   27.5090   11.4140 O.2   115  GLY115     -0.2717
    104  N        -10.0570   27.4070   10.7990 N.am  116  ALA116     -0.1965
    105  CA        -9.9780   26.1620   10.0020 C.3   116  ALA116      0.1728
    106  C         -9.5090   26.4660    8.6000 C.2   116  ALA116      0.2617
    107  O         -9.9820   27.4390    7.9620 O.2   116  ALA116     -0.2715
    108  CB       -11.3100   25.4740    9.9630 C.3   116  ALA116      0.0334
    109  N         -8.5950   25.6380    8.1090 N.am  117  SER117     -0.1936
    110  CA        -8.0560   25.7660    6.7580 C.3   117  SER117      0.2055
    111  C         -9.1230   25.8750    5.6910 C.2   117  SER117      0.2642
    112  O         -8.9870   26.6750    4.7840 O.2   117  SER117     -0.2714
    113  CB        -7.1190   24.5740    6.4410 C.3   117  SER117      0.2130
    114  OG        -7.8450   23.3630    6.5590 O.3   117  SER117     -0.2179
    115  N        -10.1960   25.1100    5.7840 N.am  118  GLN118     -0.1976
    116  CA       -11.2010   25.1280    4.7270 C.3   118  GLN118      0.1601
    117  C        -11.9450   26.4610    4.6800 C.2   118  GLN118      0.2287
    118  O        -12.4310   26.8200    3.6320 O.2   118  GLN118     -0.2864
    119  CB       -12.1750   23.9480    4.8530 C.3   118  GLN118      0.0394
    120  CG       -12.9700   23.9430    6.0580 C.3   118  GLN118      0.0908
    121  CD       -12.3420   23.2880    7.3260 C.2   118  GLN118      0.2608
    122  OE1      -11.1260   22.9550    7.4510 O.2   118  GLN118     -0.2717
    123  NE2      -13.2300   23.1300    8.3210 N.am  118  GLN118     -0.0878
    124  N          0.3160   19.3350    8.1470 N.3   139  ASP139     -0.1225
    125  CA         0.5300   18.6690    9.4360 C.3   139  ASP139      0.1805
    126  C         -0.7090   18.7330   10.3340 C.2   139  ASP139      0.2598
    127  O         -0.5800   18.7470   11.5910 O.2   139  ASP139     -0.2718
    128  CB         1.7360   19.3170   10.1600 C.3   139  ASP139      0.1424
    129  CG         2.2500   18.4980   11.3100 C.2   139  ASP139      0.3668
    130  OD1        2.1090   17.2720   11.2750 O.co2 139  ASP139     -0.2456
    131  OD2        2.8850   19.0700   12.2320 O.co2 139  ASP139     -0.2456
    132  N         -1.8900   18.8080    9.7120 N.am  140  HIS140     -0.1961
    133  CA        -3.1550   18.9220   10.4470 C.3   140  HIS140      0.1787
    134  C         -3.8430   17.5570   10.4290 C.2   140  HIS140      0.2620
    135  O         -3.1600   16.5340   10.4150 O.2   140  HIS140     -0.2715
    136  CB        -3.9770   20.1050    9.8960 C.3   140  HIS140      0.0785
    137  CG        -4.3190   20.0190    8.4300 C.ar  140  HIS140      0.0821
    138  ND1       -3.5510   19.3340    7.5090 N.ar  140  HIS140     -0.2267
    139  CD2       -5.3210   20.6040    7.7330 C.ar  140  HIS140      0.1154
    140  CE1       -4.0930   19.4680    6.3180 C.ar  140  HIS140      0.1986
    141  NE2       -5.1680   20.2380    6.4190 N.ar  140  HIS140     -0.2212
    142  N         -5.1500   17.5130   10.5350 N.am  141  TRP141     -0.1960
    143  CA        -5.8610   16.2400   10.5360 C.3   141  TRP141      0.1771
    144  C         -5.5400   15.5050    9.2420 C.2   141  TRP141      0.2619
    145  O         -5.5790   16.0680    8.1740 O.2   141  TRP141     -0.2715
    146  CB        -7.3780   16.4240   10.6920 C.3   141  TRP141      0.0590
    147  CG        -7.8640   16.7360   12.0680 C.ar  141  TRP141      0.0006
    148  CD1       -8.7460   17.7070   12.4060 C.ar  141  TRP141      0.0946
    149  CD2       -7.5380   16.0470   13.2910 C.ar  141  TRP141      0.0152
    150  NE1       -8.9680   17.6910   13.7530 N.ar  141  TRP141     -0.2442
    151  CE2       -8.2510   16.6770   14.3230 C.ar  141  TRP141      0.0810
    152  CE3       -6.7070   14.9750   13.6100 C.ar  141  TRP141      0.0012
    153  CZ2       -8.1590   16.2740   15.6660 C.ar  141  TRP141      0.0191
    154  CZ3       -6.6250   14.5620   14.9480 C.ar  141  TRP141      0.0001
    155  CH2       -7.3530   15.2060   15.9490 C.ar  141  TRP141      0.0015
    156  N         -5.1620   14.2320    9.3800 N.am  142  LYS142     -0.1977
    157  CA        -4.5900   13.4800    8.2530 C.3   142  LYS142      0.1596
    158  C         -5.6000   13.2470    7.1350 C.2   142  LYS142      0.2287
    159  O         -5.2160   13.1590    5.9590 O.2   142  LYS142     -0.2864
    160  CB        -3.9380   12.1760    8.7530 C.3   142  LYS142      0.0298
    161  CG        -2.9310   12.3780    9.9170 C.3   142  LYS142      0.0038
    162  CD        -1.9660   13.5650    9.6900 C.3   142  LYS142      0.0206
    163  CE        -1.2430   13.9170   10.9370 C.3   142  LYS142      0.1093
    164  NZ        -0.6280   15.3290   10.8340 N.3   142  LYS142     -0.1314
    165  N         -7.5960   15.4280    6.1320 N.3   144  ARG144     -0.1245
    166  CA        -7.8450   16.6980    5.4570 C.3   144  ARG144      0.1563
    167  C         -6.6900   17.0770    4.4970 C.2   144  ARG144      0.2260
    168  O         -6.7780   18.0980    3.8020 O.2   144  ARG144     -0.2867
    169  CB        -8.1200   17.7930    6.4720 C.3   144  ARG144      0.0307
    170  CG        -9.2410   17.5190    7.4190 C.3   144  ARG144      0.0489
    171  CD       -10.5920   17.2800    6.7310 C.3   144  ARG144      0.2205
    172  NE       -10.9350   18.4310    5.9410 N.pl3 144  ARG144     -0.0865
    173  CZ       -12.1290   18.6640    5.3850 C.cat 144  ARG144      0.5346
    174  NH1      -13.1460   17.8080    5.5550 N.pl3 144  ARG144      0.1354
    175  NH2      -12.2960   19.7710    4.6660 N.pl3 144  ARG144      0.1354
    176  N          3.7170   15.8150    6.4830 N.3   167  ASP167     -0.1225
    177  CA         4.1860   15.0260    7.6220 C.3   167  ASP167      0.1805
    178  C          3.2550   13.8260    7.7840 C.2   167  ASP167      0.2597
    179  O          2.1120   13.8010    7.3270 O.2   167  ASP167     -0.2718
    180  CB         4.1450   15.8420    8.9190 C.3   167  ASP167      0.1424
    181  CG         4.9020   15.1970   10.0540 C.2   167  ASP167      0.3668
    182  OD1        5.7970   14.4030    9.7580 O.co2 167  ASP167     -0.2456
    183  OD2        4.5670   15.5150   11.2330 O.co2 167  ASP167     -0.2456
    184  N          3.8310   12.7830    8.3950 N.am  168  ASN168     -0.1974
    185  CA         3.0230   11.6400    8.9090 C.3   168  ASN168      0.1688
    186  C          2.3520   10.8090    7.8420 C.2   168  ASN168      0.2292
    187  O          1.2750   10.2170    8.0750 O.2   168  ASN168     -0.2864
    188  CB         1.9500   12.1020    9.8970 C.3   168  ASN168      0.1181
    189  CG         2.4900   12.9570   11.0040 C.2   168  ASN168      0.2629
    190  OD1        2.0820   14.1350   11.1580 O.2   168  ASN168     -0.2716
    191  ND2        3.4270   12.4050   11.7640 N.am  168  ASN168     -0.0877
    192  N          2.7500    7.2250    9.6650 N.3   171  VAL171     -0.1231
    193  CA         2.0620    7.1870   10.9750 C.3   171  VAL171      0.1678
    194  C          1.7130    8.6060   11.4210 C.2   171  VAL171      0.2434
    195  O          2.6210    9.4270   11.5460 O.2   171  VAL171     -0.2733
    196  CB         2.9360    6.5220   12.0690 C.3   171  VAL171      0.0265
    197  CG1        2.1590    6.4810   13.4000 C.3   171  VAL171      0.0020
    198  CG2        3.4040    5.1160   11.6440 C.3   171  VAL171      0.0020
    199  N          0.4110    8.9200   11.6680 N.am  172  PRO172     -0.2729
    200  CA        -0.7530    8.0060   11.5570 C.3   172  PRO172      0.1401
    201  C         -1.1040    7.5440   10.1520 C.2   172  PRO172      0.2269
    202  O         -1.8700    6.5840    9.9900 O.2   172  PRO172     -0.2865
    203  CB        -1.9030    8.8200   12.1670 C.3   172  PRO172      0.0296
    204  CG        -1.2030    9.7020   13.1530 C.3   172  PRO172      0.0237
    205  CD         0.0290   10.1370   12.4170 C.3   172  PRO172      0.0939
    206  N          9.0570    8.6960   13.3990 N.3   196  LEU196     -0.1231
    207  CA         8.1130    9.4320   14.2330 C.3   196  LEU196      0.1693
    208  C          8.8680   10.2230   15.2800 C.2   196  LEU196      0.2591
    209  O          9.8360    9.7230   15.8890 O.2   196  LEU196     -0.2718
    210  CB         7.1720    8.4220   14.8900 C.3   196  LEU196      0.0284
    211  CG         6.0490    8.9910   15.7570 C.3   196  LEU196      0.0019
    212  CD1        5.0240    9.8910   14.9950 C.3   196  LEU196      0.0001
    213  CD2        5.3320    7.8570   16.4760 C.3   196  LEU196      0.0001
    214  N          8.4670   11.4770   15.4810 N.am  197  GLU197     -0.1979
    215  CA         9.0760   12.3120   16.4620 C.3   197  GLU197      0.1602
    216  C          9.2640   11.6050   17.7950 C.2   197  GLU197      0.2287
    217  O          8.3180   11.0160   18.3600 O.2   197  GLU197     -0.2864
    218  CB         8.2740   13.5930   16.6640 C.3   197  GLU197      0.0415
    219  CG         6.7310   13.3740   16.9760 C.3   197  GLU197      0.1163
    220  CD         5.8570   13.5520   15.7430 C.2   197  GLU197      0.3649
    221  OE1        6.3160   13.1430   14.6080 O.co2 197  GLU197     -0.2457
    222  OE2        4.7270   14.0500   15.8630 O.co2 197  GLU197     -0.2457
@<TRIPOS>BOND
     1   118   117    2
     2   168   167    2
     3    37    36    1
     4   167   166    1
     5   175   173    1
     6   117   116    1
     7   116   119    1
     8   116   115    1
     9   112   111    2
    10   119   120    1
    11    62    61    1
    12   173   174    1
    13   173   172    2
    14   166   165    1
    15   166   169    1
    16    36    38    1
    17    36    35    1
    18   111   115   am
    19   111   110    1
    20   172   171    1
    21   159   158    2
    22   120   121    1
    23   140   141   ar
    24   140   138   ar
    25    61    60    1
    26   141   139   ar
    27   113   114    1
    28   113   110    1
    29   169   170    1
    30   176   177    1
    31   171   170    1
    32   110   109    1
    33    35    32    1
    34   158   157    1
    35   121   122    2
    36   121   123   am
    37   179   178    2
    38    31    32    1
    39   138   137   ar
    40   177   178    1
    41   177   180    1
    42   139   137   ar
    43    60    59    1
    44   178   184   am
    45   186   187    2
    46   186   185    1
    47    32    33    1
    48   107   106    2
    49   109   106   am
    50   124   125    1
    51   145   144    2
    52   157   160    1
    53   157   156    1
    54   184   185    1
    55   137   136    1
    56   106   105    1
    57   160   161    1
    58   185   188    1
    59   180   181    1
    60    59    56    1
    61    34    33    2
    62    33    39   am
    63   144   156   am
    64   144   143    1
    65   125   128    1
    66   125   126    1
    67   192   193    1
    68   162   161    1
    69   162   163    1
    70   132   126   am
    71   132   133    1
    72   182   181   ar
    73    55    56    1
    74   136   133    1
    75   188   189    1
    76   108   105    1
    77   202   201    2
    78   105   104    1
    79   181   183   ar
    80   201   200    1
    81   128   129    1
    82    56    57    1
    83    39    40    1
    84   126   127    2
    85   135   134    2
    86   134   133    1
    87   134   142   am
    88   142   143    1
    89   143   146    1
    90   146   147    1
    91   104   102   am
    92   164   163    1
    93   193   194    1
    94   193   196    1
    95   189   190    2
    96   189   191   am
    97    58    57    2
    98   130   129   ar
    99   129   131   ar
   100    57    63   am
   101   103   102    2
   102   194   195    2
   103   194   199   am
   104   102   101    1
   105   200   199    1
   106   200   203    1
   107    40    41    1
   108   198   196    1
   109   199   205    1
   110    42    41    2
   111   147   148   ar
   112   147   149   ar
   113   196   197    1
   114   203   204    1
   115   101   100    1
   116    63    64    1
   117   148   150   ar
   118   205   204    1
   119   149   152   ar
   120   149   151   ar
   121    78    79    1
   122    78    77    1
   123   206   207    1
   124    64    65    1
   125    64    67    1
   126   152   154   ar
   127   150   151   ar
   128    76    77    1
   129    76    73    1
   130    72    65   am
   131    72    73    1
   132    65    66    2
   133   207   210    1
   134   207   208    1
   135   151   153   ar
   136    73    74    1
   137    67    68    1
   138   221   220   ar
   139   210   211    1
   140   154   155   ar
   141   212   211    1
   142   208   214   am
   143   208   209    2
   144    70    69   ar
   145   214   215    1
   146   153   155   ar
   147    69    68    1
   148    69    71   ar
   149   220   222   ar
   150   220   219    1
   151   211   213    1
   152    25    26    2
   153    25    24    1
   154    43    44    1
   155    74    75    2
   156    74    80   am
   157    18    17    2
   158   215   218    1
   159   215   216    1
   160   218   219    1
   161    80    81    1
   162    24    23    1
   163    24    27    1
   164    47    44    1
   165    47    48    1
   166    44    45    1
   167    21    20    1
   168    21    22    1
   169    17    23   am
   170    17    16    1
   171   216   217    2
   172    19    20    1
   173    19    16    1
   174    27    28    1
   175    16    15    1
   176    81    84    1
   177    81    82    1
   178    45    46    2
   179    48    50   ar
   180    48    49   ar
   181    83    82    2
   182    84    85    1
   183    12    14   ar
   184    12    10   ar
   185    50    52   ar
   186    95    97   ar
   187    95    93   ar
   188    14    13   ar
   189    30    28   am
   190    28    29    2
   191    49    51   ar
   192    97    98   ar
   193    92    93    1
   194    92    89    1
   195    91    90    2
   196    90    89    1
   197    93    94   ar
   198    10     9   ar
   199    10     8   ar
   200     9     7   ar
   201    52    53   ar
   202    85    87   am
   203    85    86    2
   204    13    11   ar
   205    89    88    1
   206    51    53   ar
   207    98    99    1
   208    98    96   ar
   209    53    54    1
   210    94    96   ar
   211     8    11   ar
   212     8     6   ar
   213     7     6   ar
   214     6     5    1
   215     5     2    1
   216     3     2    1
   217     3     4    2
   218     2     1    1
