@<TRIPOS>MOLECULE
tmp/5p9xA01.pdb
 200 195 0 0 0
SMALL
GASTEIGER

@<TRIPOS>ATOM
      1  N          6.2900   13.9350   14.7880 N.3    36  TRP36      -0.1241
      2  CA         6.1640   13.9340   16.2170 C.3    36  TRP36       0.1605
      3  C          5.1820   12.9230   16.6860 C.2    36  TRP36       0.2264
      4  O          4.1480   12.7010   16.0660 O.2    36  TRP36      -0.2867
      5  CB         5.6170   15.3000   16.6910 C.3    36  TRP36       0.0550
      6  CG         5.6410   15.4930   18.2040 C.ar   36  TRP36       0.0003
      7  CD1        6.6770   15.9500   18.9850 C.ar   36  TRP36       0.0946
      8  CD2        4.5650   15.2260   19.0920 C.ar   36  TRP36       0.0152
      9  NE1        6.2940   15.9570   20.2820 N.ar   36  TRP36      -0.2442
     10  CE2        5.0010   15.5370   20.3770 C.ar   36  TRP36       0.0810
     11  CE3        3.2390   14.7690   18.9150 C.ar   36  TRP36       0.0012
     12  CZ2        4.1840   15.3840   21.4870 C.ar   36  TRP36       0.0191
     13  CZ3        2.4270   14.6700   20.0230 C.ar   36  TRP36       0.0001
     14  CH2        2.9120   14.9890   21.3060 C.ar   36  TRP36       0.0015
     15  N          3.5600   11.2560   20.7580 N.3    38  MET38      -0.1245
     16  CA         3.4650   11.4400   22.2110 C.3    38  MET38       0.1570
     17  C          4.1270   10.3660   23.0450 C.2    38  MET38       0.2261
     18  O          3.6070    9.9440   24.0700 O.2    38  MET38      -0.2867
     19  CB         1.9840   11.5770   22.6010 C.3    38  MET38       0.0387
     20  CG         1.0700   10.3690   22.3530 C.3    38  MET38       0.0595
     21  SD        -0.6690   10.8080   22.5750 S.3    38  MET38      -0.1393
     22  CE        -1.5960    9.5420   21.9840 C.3    38  MET38       0.0692
     23  N         -1.6620    3.7480   29.9990 N.3    64  GLY64      -0.1225
     24  CA        -1.6190    4.4690   28.7250 C.3    64  GLY64       0.1811
     25  C         -0.4390    4.1820   27.8050 C.2    64  GLY64       0.2280
     26  O          0.3080    5.0890   27.4130 O.2    64  GLY64      -0.2866
     27  N          0.2490    3.5730   24.6520 N.3    66  TYR66      -0.1241
     28  CA         0.3830    4.1850   23.3480 C.3    66  TYR66       0.1605
     29  C          1.0690    3.2030   22.3410 C.2    66  TYR66       0.2264
     30  O          0.4090    2.2780   21.9370 O.2    66  TYR66      -0.2867
     31  CB         1.0280    5.5740   23.4430 C.3    66  TYR66       0.0534
     32  CG         1.0790    6.3180   22.1040 C.ar   66  TYR66      -0.0201
     33  CD1       -0.0520    6.3740   21.2870 C.ar   66  TYR66      -0.0009
     34  CD2        2.2560    6.9320   21.6710 C.ar   66  TYR66      -0.0009
     35  CE1       -0.0400    6.9920   20.0630 C.ar   66  TYR66       0.0417
     36  CE2        2.2840    7.5840   20.4760 C.ar   66  TYR66       0.0417
     37  CZ         1.1630    7.6110   19.6310 C.ar   66  TYR66       0.1957
     38  OH         1.2740    8.2900   18.4280 O.3    66  TYR66      -0.2866
     39  N         -1.6440   -0.8730   30.3650 N.3    87  MET87      -0.1230
     40  CA        -3.0250   -0.7890   29.9250 C.3    87  MET87       0.1702
     41  C         -3.1370    0.2400   28.8100 C.2    87  MET87       0.2592
     42  O         -2.5730    1.3220   28.8560 O.2    87  MET87      -0.2718
     43  CB        -3.9180   -0.4050   31.1160 C.3    87  MET87       0.0401
     44  CG        -3.9150   -1.4160   32.2450 C.3    87  MET87       0.0596
     45  SD        -4.8430   -0.9130   33.7000 S.3    87  MET87      -0.1393
     46  CE        -4.7590   -2.3760   34.7780 C.3    87  MET87       0.0692
     47  N         -3.9670   -0.0910   27.8110 N.am   88  GLU88      -0.1966
     48  CA        -4.2150    0.8090   26.6880 C.3    88  GLU88       0.1733
     49  C         -5.6010    0.6220   26.2050 C.2    88  GLU88       0.2616
     50  O         -6.0010   -0.5040   25.8290 O.2    88  GLU88      -0.2715
     51  CB        -3.1880    0.5650   25.5810 C.3    88  GLU88       0.0429
     52  CG        -3.3970    1.3260   24.2950 C.3    88  GLU88       0.1163
     53  CD        -3.5700    2.7960   24.4460 C.2    88  GLU88       0.3649
     54  OE1       -2.6080    3.4700   24.8710 O.co2  88  GLU88      -0.2457
     55  OE2       -4.6560    3.2730   24.0900 O.co2  88  GLU88      -0.2457
     56  N         -6.3820    1.6880   26.1770 N.am   89  ILE89      -0.1963
     57  CA        -7.8040    1.6490   25.8320 C.3    89  ILE89       0.1727
     58  C         -8.0590    1.5640   24.3340 C.2    89  ILE89       0.2616
     59  O         -9.1090    1.0270   23.9340 O.2    89  ILE89      -0.2715
     60  CB        -8.5150    2.9110   26.4500 C.3    89  ILE89       0.0290
     61  CG1      -10.0480    2.7130   26.5740 C.3    89  ILE89       0.0022
     62  CG2       -8.1200    4.1620   25.7130 C.3    89  ILE89       0.0023
     63  CD1      -10.7150    3.8960   27.2530 C.3    89  ILE89       0.0001
     64  N         -7.1380    2.0310   23.4990 N.am   90  ASN90      -0.1972
     65  CA        -7.3060    2.0350   22.0860 C.3    90  ASN90       0.1688
     66  C         -6.8200    0.7190   21.5280 C.2    90  ASN90       0.2292
     67  O         -5.6420    0.3970   21.6410 O.2    90  ASN90      -0.2864
     68  CB        -6.5940    3.2150   21.4660 C.3    90  ASN90       0.1181
     69  CG        -6.7440    3.2480   19.9790 C.2    90  ASN90       0.2629
     70  OD1       -6.2370    2.4360   19.2730 O.2    90  ASN90      -0.2716
     71  ND2       -7.4490    4.2310   19.5020 N.am   90  ASN90      -0.0877
     72  N         -3.7620    0.7430   19.1510 N.3    93  CYS93      -0.1235
     73  CA        -2.5020    1.0650   19.8650 C.3    93  CYS93       0.1677
     74  C         -2.0910   -0.1130   20.7550 C.2    93  CYS93       0.2270
     75  O         -0.8850   -0.3990   20.8760 O.2    93  CYS93      -0.2867
     76  CB        -2.6700    2.3040   20.7130 C.3    93  CYS93       0.0956
     77  SG        -2.7110    3.8290   19.7540 S.3    93  CYS93      -0.0801
     78  N         -7.8990   -2.2310   27.3080 N.3   115  GLY115     -0.1210
     79  CA        -9.0610   -1.8690   28.0670 C.3   115  GLY115      0.1956
     80  C         -8.7830   -0.5360   28.7910 C.2   115  GLY115      0.2612
     81  O         -7.6830   -0.0060   28.7900 O.2   115  GLY115     -0.2717
     82  N         -9.8230    0.0160   29.3730 N.am  116  ALA116     -0.1965
     83  CA        -9.7710    1.2850   30.1660 C.3   116  ALA116      0.1728
     84  C         -9.2870    0.9960   31.5660 C.2   116  ALA116      0.2617
     85  O         -9.6970    0.0470   32.2270 O.2   116  ALA116     -0.2715
     86  CB       -11.1880    1.8740   30.2690 C.3   116  ALA116      0.0334
     87  N         -8.3520    1.8050   32.0160 N.am  117  SER117     -0.1936
     88  CA        -7.7560    1.6420   33.3310 C.3   117  SER117      0.2055
     89  C         -8.7880    1.5490   34.4420 C.2   117  SER117      0.2642
     90  O         -8.6530    0.7330   35.3470 O.2   117  SER117     -0.2714
     91  CB        -6.8430    2.8310   33.6210 C.3   117  SER117      0.2130
     92  OG        -7.5150    4.0670   33.4390 O.3   117  SER117     -0.2179
     93  N         -9.8690    2.3220   34.3630 N.am  118  GLN118     -0.1976
     94  CA       -10.8340    2.3250   35.4410 C.3   118  GLN118      0.1601
     95  C        -11.6260    1.0300   35.4990 C.2   118  GLN118      0.2287
     96  O        -12.2120    0.7320   36.5170 O.2   118  GLN118     -0.2864
     97  CB       -11.7450    3.5640   35.3760 C.3   118  GLN118      0.0394
     98  CG       -12.5830    3.7250   34.0650 C.3   118  GLN118      0.0908
     99  CD       -11.8710    4.5140   32.9350 C.2   118  GLN118      0.2608
    100  OE1      -10.7090    4.3430   32.6940 O.2   118  GLN118     -0.2717
    101  NE2      -12.6010    5.3790   32.2690 N.am  118  GLN118     -0.0878
    102  N          0.4350    7.8140   32.4130 N.3   139  ASP139     -0.1225
    103  CA         0.6600    8.4770   31.1440 C.3   139  ASP139      0.1805
    104  C         -0.5540    8.4250   30.2490 C.2   139  ASP139      0.2598
    105  O         -0.4550    8.5620   29.0370 O.2   139  ASP139     -0.2718
    106  CB         1.8610    7.8440   30.4180 C.3   139  ASP139      0.1424
    107  CG         2.4330    8.7460   29.3080 C.2   139  ASP139      0.3668
    108  OD1        2.2020    9.9740   29.3050 O.co2 139  ASP139     -0.2456
    109  OD2        3.1450    8.1360   28.4510 O.co2 139  ASP139     -0.2456
    110  N         -1.7320    8.2180   30.8130 N.am  140  HIS140     -0.1961
    111  CA        -3.0170    8.1100   30.0780 C.3   140  HIS140      0.1787
    112  C         -3.7090    9.4400   30.0300 C.2   140  HIS140      0.2620
    113  O         -3.0660   10.4460   30.0790 O.2   140  HIS140     -0.2715
    114  CB        -3.8230    6.9550   30.6200 C.3   140  HIS140      0.0785
    115  CG        -4.2690    7.0710   32.0160 C.ar  140  HIS140      0.0821
    116  ND1       -3.5150    7.6540   32.9910 N.ar  140  HIS140     -0.2267
    117  CD2       -5.3360    6.5210   32.6240 C.ar  140  HIS140      0.1154
    118  CE1       -4.1670    7.5570   34.1390 C.ar  140  HIS140      0.1986
    119  NE2       -5.2570    6.8440   33.9480 N.ar  140  HIS140     -0.2212
    120  N         -5.0230    9.4750   29.9150 N.am  141  TRP141     -0.1960
    121  CA        -5.7080   10.7870   29.7860 C.3   141  TRP141      0.1771
    122  C         -5.4680   11.5970   31.0710 C.2   141  TRP141      0.2619
    123  O         -5.5350   11.0840   32.1760 O.2   141  TRP141     -0.2715
    124  CB        -7.2200   10.6870   29.5200 C.3   141  TRP141      0.0590
    125  CG        -7.5740   10.2700   28.1540 C.ar  141  TRP141      0.0006
    126  CD1       -6.9580   10.6350   26.9910 C.ar  141  TRP141      0.0946
    127  CD2       -8.6670    9.4360   27.7770 C.ar  141  TRP141      0.0152
    128  NE1       -7.5700   10.0350   25.9180 N.ar  141  TRP141     -0.2442
    129  CE2       -8.6250    9.2940   26.3840 C.ar  141  TRP141      0.0810
    130  CE3       -9.6660    8.7610   28.4900 C.ar  141  TRP141      0.0012
    131  CZ2       -9.5620    8.5330   25.6860 C.ar  141  TRP141      0.0191
    132  CZ3      -10.5660    8.0210   27.8100 C.ar  141  TRP141      0.0001
    133  CH2      -10.5170    7.9060   26.4200 C.ar  141  TRP141      0.0015
    134  N         -5.1100   12.8450   30.8910 N.am  142  LYS142     -0.1977
    135  CA        -4.5060   13.6030   31.9770 C.3   142  LYS142      0.1596
    136  C         -5.5340   13.8370   33.0910 C.2   142  LYS142      0.2287
    137  O         -5.1480   13.8960   34.2590 O.2   142  LYS142     -0.2864
    138  CB        -3.8440   14.8910   31.4470 C.3   142  LYS142      0.0298
    139  CG        -2.8270   14.6220   30.2770 C.3   142  LYS142      0.0038
    140  CD        -1.8610   13.4760   30.5070 C.3   142  LYS142      0.0206
    141  CE        -1.1990   13.0320   29.2280 C.3   142  LYS142      0.1093
    142  NZ        -0.5540   11.7080   29.3820 N.3   142  LYS142     -0.1314
    143  N         -7.5090   11.7090   34.1560 N.3   144  ARG144     -0.1245
    144  CA        -7.7230   10.4590   34.8470 C.3   144  ARG144      0.1563
    145  C         -6.6200   10.1480   35.8900 C.2   144  ARG144      0.2260
    146  O         -6.7280    9.1890   36.6410 O.2   144  ARG144     -0.2867
    147  CB        -7.8760    9.3440   33.8440 C.3   144  ARG144      0.0307
    148  CG        -8.9230    9.6170   32.7900 C.3   144  ARG144      0.0489
    149  CD       -10.2540    9.6010   33.4350 C.3   144  ARG144      0.2205
    150  NE       -10.4450    8.4630   34.3490 N.pl3 144  ARG144     -0.0865
    151  CZ       -11.5840    8.2160   34.9920 C.cat 144  ARG144      0.5346
    152  NH1      -12.6100    9.0340   34.8000 N.pl3 144  ARG144      0.1354
    153  NH2      -11.6830    7.1620   35.8120 N.pl3 144  ARG144      0.1354
    154  N          3.8150   11.3510   33.9950 N.3   167  ASP167     -0.1225
    155  CA         4.2590   12.1540   32.8570 C.3   167  ASP167      0.1805
    156  C          3.3470   13.3800   32.6730 C.2   167  ASP167      0.2597
    157  O          2.1870   13.3960   33.0460 O.2   167  ASP167     -0.2718
    158  CB         4.2550   11.3380   31.5630 C.3   167  ASP167      0.1424
    159  CG         4.9460   11.9960   30.4380 C.2   167  ASP167      0.3668
    160  OD1        5.8730   12.7700   30.6820 O.co2 167  ASP167     -0.2456
    161  OD2        4.6660   11.7070   29.2320 O.co2 167  ASP167     -0.2456
    162  N          3.8630   14.3910   32.0030 N.am  168  ASN168     -0.1974
    163  CA         3.0290   15.4730   31.4690 C.3   168  ASN168      0.1688
    164  C          2.3700   16.3400   32.5210 C.2   168  ASN168      0.2292
    165  O          1.2910   16.9170   32.3110 O.2   168  ASN168     -0.2864
    166  CB         1.9400   14.9240   30.5280 C.3   168  ASN168      0.1181
    167  CG         2.5240   14.1240   29.4170 C.2   168  ASN168      0.2629
    168  OD1        2.1600   12.9490   29.2270 O.2   168  ASN168     -0.2716
    169  ND2        3.4130   14.7510   28.6170 N.am  168  ASN168     -0.0877
    170  N          2.7320   19.8780   30.7010 N.3   171  VAL171     -0.1231
    171  CA         2.1210   19.9280   29.3390 C.3   171  VAL171      0.1678
    172  C          1.7600   18.4830   28.9580 C.2   171  VAL171      0.2434
    173  O          2.6640   17.6910   28.8310 O.2   171  VAL171     -0.2733
    174  CB         3.0660   20.5410   28.2750 C.3   171  VAL171      0.0265
    175  CG1        2.3190   20.6060   26.9320 C.3   171  VAL171      0.0020
    176  CG2        3.6310   21.9160   28.6990 C.3   171  VAL171      0.0020
    177  N          0.4880   18.1860   28.6890 N.am  172  PRO172     -0.2729
    178  CA        -0.6580   19.0690   28.8000 C.3   172  PRO172      0.1401
    179  C         -1.0240   19.5650   30.1800 C.2   172  PRO172      0.2269
    180  O         -1.7640   20.5600   30.3040 O.2   172  PRO172     -0.2865
    181  CB        -1.8080   18.2510   28.2140 C.3   172  PRO172      0.0296
    182  CG        -1.1030   17.3490   27.2880 C.3   172  PRO172      0.0237
    183  CD         0.1110   16.9500   28.0010 C.3   172  PRO172      0.0939
    184  N          9.1470   18.4710   27.0500 N.3   196  LEU196     -0.1231
    185  CA         8.1900   17.7070   26.2410 C.3   196  LEU196      0.1693
    186  C          8.9690   16.9330   25.1960 C.2   196  LEU196      0.2591
    187  O          9.8700   17.4340   24.5630 O.2   196  LEU196     -0.2718
    188  CB         7.2040   18.6910   25.6190 C.3   196  LEU196      0.0284
    189  CG         6.1230   18.0880   24.7300 C.3   196  LEU196      0.0019
    190  CD1        5.1220   17.2550   25.5400 C.3   196  LEU196      0.0001
    191  CD2        5.3960   19.2890   23.9740 C.3   196  LEU196      0.0001
    192  N          8.5390   15.7050   24.9810 N.am  197  GLU197     -0.1979
    193  CA         9.2070   14.8170   24.0460 C.3   197  GLU197      0.1602
    194  C          9.4030   15.5290   22.6780 C.2   197  GLU197      0.2287
    195  O          8.4880   16.0960   22.1130 O.2   197  GLU197     -0.2864
    196  CB         8.3910   13.5330   23.8690 C.3   197  GLU197      0.0415
    197  CG         6.9090   13.7150   23.5650 C.3   197  GLU197      0.1163
    198  CD         6.0360   13.6270   24.7940 C.2   197  GLU197      0.3649
    199  OE1        6.4140   14.0430   25.8890 O.co2 197  GLU197     -0.2457
    200  OE2        4.8730   13.1470   24.6340 O.co2 197  GLU197     -0.2457
@<TRIPOS>BOND
     1     1     2    1
     2     4     3    2
     3     2     3    1
     4     2     5    1
     5     5     6    1
     6     6     7   ar
     7     6     8   ar
     8    38    37    1
     9    11     8   ar
    10    11    13   ar
    11     7     9   ar
    12     8    10   ar
    13    72    73    1
    14    70    69    2
    15    71    69   am
    16    37    35   ar
    17    37    36   ar
    18    77    76    1
    19    73    76    1
    20    73    74    1
    21    69    68    1
    22    13    14   ar
    23    35    33   ar
    24     9    10   ar
    25    10    12   ar
    26    36    34   ar
    27    74    75    2
    28    15    16    1
    29    33    32   ar
    30    14    12   ar
    31    68    65    1
    32    66    67    2
    33    66    65    1
    34    34    32   ar
    35    30    29    2
    36    22    21    1
    37    65    64    1
    38    32    31    1
    39   195   194    2
    40    16    19    1
    41    16    17    1
    42    29    28    1
    43    20    21    1
    44    20    19    1
    45   194   193    1
    46    17    18    2
    47    28    31    1
    48    28    27    1
    49    64    58   am
    50   197   196    1
    51   197   198    1
    52   196   193    1
    53    59    58    2
    54   191   189    1
    55   193   192    1
    56    55    53   ar
    57    52    53    1
    58    52    51    1
    59    58    57    1
    60    53    54   ar
    61   187   186    2
    62   200   198   ar
    63   189   190    1
    64   189   188    1
    65   198   199   ar
    66   192   186   am
    67   186   185    1
    68    51    48    1
    69   188   185    1
    70   131   129   ar
    71   131   133   ar
    72    62    60    1
    73    50    49    2
    74    57    56    1
    75    57    60    1
    76   128   129   ar
    77   128   126   ar
    78    56    49   am
    79    49    48    1
    80   185   184    1
    81   129   127   ar
    82   133   132   ar
    83    60    61    1
    84    61    63    1
    85    48    47    1
    86   175   174    1
    87   126   125   ar
    88   182   183    1
    89   182   181    1
    90    78    79    1
    91    26    25    2
    92   127   125   ar
    93   127   130   ar
    94    25    24    1
    95   132   130   ar
    96    47    41   am
    97   183   177    1
    98    79    80    1
    99   125   124    1
   100   181   178    1
   101   174   176    1
   102   174   171    1
   103   109   107   ar
   104   169   167   am
   105   177   178    1
   106   177   172   am
   107    24    23    1
   108    81    80    2
   109    80    82   am
   110   178   179    1
   111    41    42    2
   112    41    40    1
   113   173   172    2
   114   172   171    1
   115   105   104    2
   116   168   167    2
   117   141   142    1
   118   141   140    1
   119   161   159   ar
   120   108   107   ar
   121   107   106    1
   122   171   170    1
   123    82    83    1
   124   167   166    1
   125   124   121    1
   126   121   120    1
   127   121   122    1
   128   120   112   am
   129    40    39    1
   130    40    43    1
   131   112   111    1
   132   112   113    2
   133   111   114    1
   134   111   110    1
   135    83    86    1
   136    83    84    1
   137   179   180    2
   138   104   110   am
   139   104   103    1
   140   139   140    1
   141   139   138    1
   142   106   103    1
   143   159   160   ar
   144   159   158    1
   145   166   163    1
   146   114   115    1
   147   134   122   am
   148   134   135    1
   149   122   123    2
   150    43    44    1
   151   103   102    1
   152   138   135    1
   153   163   162    1
   154   163   164    1
   155   158   155    1
   156    84    87   am
   157    84    85    2
   158   135   136    1
   159   162   156   am
   160   115   117   ar
   161   115   116   ar
   162    87    88    1
   163    44    45    1
   164   101    99   am
   165   165   164    2
   166   117   119   ar
   167   156   155    1
   168   156   157    2
   169   100    99    2
   170   148   149    1
   171   148   147    1
   172   155   154    1
   173    99    98    1
   174   116   118   ar
   175   136   137    2
   176    88    91    1
   177    88    89    1
   178   149   150    1
   179    92    91    1
   180    45    46    1
   181   147   144    1
   182   119   118   ar
   183    98    97    1
   184   143   144    1
   185   150   151    2
   186    93    89   am
   187    93    94    1
   188    89    90    2
   189   152   151    1
   190   144   145    1
   191   151   153    1
   192    97    94    1
   193    94    95    1
   194    95    96    2
   195   145   146    2
