@<TRIPOS>MOLECULE
tmp/5p9yA00.pdb
 196 193 0 0 0
SMALL
GASTEIGER

@<TRIPOS>ATOM
      1  N          6.1640   14.0350   14.9420 N.3    36  TRP36      -0.1241
      2  CA         6.0320   14.0650   16.4100 C.3    36  TRP36       0.1605
      3  C          5.0230   13.0750   16.8570 C.2    36  TRP36       0.2264
      4  O          3.9920   12.8520   16.2090 O.2    36  TRP36      -0.2867
      5  CB         5.5330   15.4440   16.8740 C.3    36  TRP36       0.0550
      6  CG         5.4870   15.6660   18.3350 C.ar   36  TRP36       0.0003
      7  CD1        6.4970   16.1170   19.1150 C.ar   36  TRP36       0.0946
      8  CD2        4.4000   15.3480   19.2470 C.ar   36  TRP36       0.0152
      9  NE1        6.1330   16.1230   20.4100 N.ar   36  TRP36      -0.2442
     10  CE2        4.8490   15.6930   20.5400 C.ar   36  TRP36       0.0810
     11  CE3        3.0930   14.8820   19.0920 C.ar   36  TRP36       0.0012
     12  CZ2        4.0400   15.5380   21.6710 C.ar   36  TRP36       0.0191
     13  CZ3        2.2870   14.7540   20.2140 C.ar   36  TRP36       0.0001
     14  CH2        2.7560   15.0770   21.4820 C.ar   36  TRP36       0.0015
     15  N          3.3710   11.2980   20.8770 N.3    38  MET38      -0.1230
     16  CA         3.2740   11.5000   22.3500 C.3    38  MET38       0.1702
     17  C          3.9700   10.3990   23.1900 C.2    38  MET38       0.2592
     18  O          3.4460    9.9660   24.1990 O.2    38  MET38      -0.2718
     19  CB         1.8420   11.6790   22.7920 C.3    38  MET38       0.0401
     20  CG         0.9230   10.5040   22.5100 C.3    38  MET38       0.0596
     21  SD        -0.7450   10.8050   23.1420 S.3    38  MET38      -0.1393
     22  CE        -1.5940    9.4350   22.4420 C.3    38  MET38       0.0692
     23  N          5.0930    9.9250   22.6940 N.am   39  ASN39      -0.1974
     24  CA         5.9350    9.0370   23.5090 C.3    39  ASN39       0.1688
     25  C          6.5720    9.8300   24.6200 C.2    39  ASN39       0.2292
     26  O          6.7940   11.0350   24.4700 O.2    39  ASN39      -0.2864
     27  CB         7.0540    8.3840   22.6820 C.3    39  ASN39       0.1181
     28  CG         6.5720    7.8040   21.3730 C.2    39  ASN39       0.2629
     29  OD1        7.0760    8.2360   20.2960 O.2    39  ASN39      -0.2716
     30  ND2        5.7070    6.8780   21.4230 N.am   39  ASN39      -0.0877
     31  N         -0.2760    3.0760   33.2590 N.3    63  LEU63      -0.1231
     32  CA        -1.5820    3.5390   32.7280 C.3    63  LEU63       0.1693
     33  C         -1.3050    4.3670   31.4850 C.2    63  LEU63       0.2592
     34  O         -0.8140    5.4850   31.5460 O.2    63  LEU63      -0.2718
     35  CB        -2.3170    4.3410   33.7830 C.3    63  LEU63       0.0284
     36  CG        -2.5330    3.6080   35.1240 C.3    63  LEU63       0.0019
     37  CD1       -3.2270    4.5410   36.1300 C.3    63  LEU63       0.0001
     38  CD2       -3.2820    2.2930   34.9200 C.3    63  LEU63       0.0001
     39  N         -1.5870    3.7480   30.3420 N.am   64  GLY64      -0.1957
     40  CA        -1.3470    4.3500   29.0410 C.3    64  GLY64       0.1869
     41  C         -0.1030    3.8050   28.3860 C.2    64  GLY64       0.2309
     42  O          0.9710    4.0310   28.9040 O.2    64  GLY64      -0.2863
     43  N          0.2850    3.5320   24.5910 N.3    66  TYR66      -0.1241
     44  CA         0.4370    4.1800   23.3040 C.3    66  TYR66       0.1605
     45  C          1.0920    3.2730   22.2990 C.2    66  TYR66       0.2264
     46  O          0.4320    2.3320   21.8230 O.2    66  TYR66      -0.2867
     47  CB         1.0650    5.6070   23.4320 C.3    66  TYR66       0.0534
     48  CG         1.0260    6.3820   22.1280 C.ar   66  TYR66      -0.0201
     49  CD1       -0.1130    6.3960   21.3140 C.ar   66  TYR66      -0.0009
     50  CD2        2.1680    7.0360   21.6620 C.ar   66  TYR66      -0.0009
     51  CE1       -0.1040    7.0880   20.0950 C.ar   66  TYR66       0.0417
     52  CE2        2.1900    7.6610   20.4290 C.ar   66  TYR66       0.0417
     53  CZ         1.0520    7.7040   19.6470 C.ar   66  TYR66       0.1957
     54  OH         1.1300    8.3970   18.4720 O.3    66  TYR66      -0.2866
     55  N         -1.8550   -0.8490   30.8030 N.3    87  MET87      -0.1230
     56  CA        -3.2570   -0.6600   30.4070 C.3    87  MET87       0.1702
     57  C         -3.3170    0.2840   29.1960 C.2    87  MET87       0.2592
     58  O         -2.8190    1.4110   29.2280 O.2    87  MET87      -0.2718
     59  CB        -4.1540   -0.1450   31.6080 C.3    87  MET87       0.0401
     60  CG        -4.2040   -1.0960   32.8310 C.3    87  MET87       0.0596
     61  SD        -5.1830   -0.5200   34.2250 S.3    87  MET87      -0.1393
     62  CE        -5.1340   -1.9480   35.2960 C.3    87  MET87       0.0692
     63  N         -4.0690   -0.1410   28.1850 N.am   88  GLU88      -0.1966
     64  CA        -4.2530    0.6620   26.9910 C.3    88  GLU88       0.1733
     65  C         -5.7280    0.5380   26.5720 C.2    88  GLU88       0.2616
     66  O         -6.1860   -0.5300   26.2340 O.2    88  GLU88      -0.2715
     67  CB        -3.3050    0.2040   25.8630 C.3    88  GLU88       0.0429
     68  CG        -3.4890    1.0390   24.5810 C.3    88  GLU88       0.1163
     69  CD        -3.4360    2.5170   24.7990 C.2    88  GLU88       0.3649
     70  OE1       -2.4740    3.0430   25.3770 O.co2  88  GLU88      -0.2457
     71  OE2       -4.4530    3.1510   24.4110 O.co2  88  GLU88      -0.2457
     72  N         -6.4090    1.6850   26.4810 N.am   89  ILE89      -0.1977
     73  CA        -7.8010    1.7240   26.0830 C.3    89  ILE89       0.1596
     74  C         -8.0210    1.5680   24.5680 C.2    89  ILE89       0.2287
     75  O         -9.0680    1.1120   24.1720 O.2    89  ILE89      -0.2864
     76  CB        -8.4610    3.0180   26.6140 C.3    89  ILE89       0.0276
     77  CG1       -9.9890    2.8500   26.7020 C.3    89  ILE89       0.0022
     78  CG2       -8.0950    4.2100   25.8510 C.3    89  ILE89       0.0022
     79  CD1      -10.7180    3.9920   27.4440 C.3    89  ILE89       0.0001
     80  N         -8.5430   -2.1190   27.9930 N.3   115  GLY115     -0.1210
     81  CA        -9.6930   -1.4410   28.5030 C.3   115  GLY115      0.1956
     82  C         -9.2890   -0.1550   29.1780 C.2   115  GLY115      0.2612
     83  O         -8.1450    0.3160   29.0940 O.2   115  GLY115     -0.2717
     84  N        -10.2750    0.3780   29.8650 N.am  116  ALA116     -0.1965
     85  CA       -10.1980    1.6140   30.6170 C.3   116  ALA116      0.1728
     86  C         -9.7080    1.3410   32.0160 C.2   116  ALA116      0.2616
     87  O        -10.1240    0.3580   32.6430 O.2   116  ALA116     -0.2715
     88  CB       -11.5740    2.2640   30.6890 C.3   116  ALA116      0.0334
     89  N         -8.9010    2.2420   32.5510 N.am  117  SER117     -0.1950
     90  CA        -8.3470    2.0940   33.8820 C.3   117  SER117      0.1924
     91  C         -9.4310    1.9840   34.9410 C.2   117  SER117      0.2314
     92  O         -9.2920    1.2100   35.8870 O.2   117  SER117     -0.2863
     93  CB        -7.4090    3.2430   34.1960 C.3   117  SER117      0.2116
     94  OG        -8.0290    4.5140   34.0800 O.3   117  SER117     -0.2180
     95  N          0.3150    7.8820   32.6060 N.3   139  ASP139     -0.1225
     96  CA         0.5310    8.4990   31.2920 C.3   139  ASP139      0.1805
     97  C         -0.7050    8.3670   30.4100 C.2   139  ASP139      0.2598
     98  O         -0.6210    8.1740   29.1840 O.2   139  ASP139     -0.2718
     99  CB         1.7820    7.9020   30.6070 C.3   139  ASP139      0.1424
    100  CG         2.3000    8.7140   29.4660 C.2   139  ASP139      0.3668
    101  OD1        2.0070    9.9310   29.3820 O.co2 139  ASP139     -0.2456
    102  OD2        3.0090    8.1150   28.5930 O.co2 139  ASP139     -0.2456
    103  N         -1.8830    8.4440   31.0330 N.am  140  HIS140     -0.1961
    104  CA        -3.1640    8.2390   30.3630 C.3   140  HIS140      0.1787
    105  C         -3.9640    9.5410   30.3730 C.2   140  HIS140      0.2620
    106  O         -3.3730   10.6190   30.2900 O.2   140  HIS140     -0.2715
    107  CB        -3.8860    7.0140   30.8920 C.3   140  HIS140      0.0785
    108  CG        -4.3180    7.1030   32.3030 C.ar  140  HIS140      0.0821
    109  ND1       -3.5530    7.7960   33.2350 N.ar  140  HIS140     -0.2267
    110  CD2       -5.3760    6.5610   32.9690 C.ar  140  HIS140      0.1154
    111  CE1       -4.1200    7.6240   34.4200 C.ar  140  HIS140      0.1986
    112  NE2       -5.2300    6.9190   34.2860 N.ar  140  HIS140     -0.2212
    113  N         -5.2740    9.4930   30.3990 N.am  141  TRP141     -0.1974
    114  CA        -6.0470   10.7300   30.3730 C.3   141  TRP141      0.1640
    115  C         -5.7860   11.5690   31.6090 C.2   141  TRP141      0.2290
    116  O         -5.8180   11.0760   32.7220 O.2   141  TRP141     -0.2864
    117  CB        -7.5250   10.4490   30.3210 C.3   141  TRP141      0.0576
    118  CG        -8.0410    9.9780   29.0120 C.ar  141  TRP141      0.0006
    119  CD1       -7.5190   10.2420   27.7560 C.ar  141  TRP141      0.0946
    120  CD2       -9.2090    9.1860   28.8050 C.ar  141  TRP141      0.0152
    121  NE1       -8.3090    9.6090   26.7920 N.ar  141  TRP141     -0.2442
    122  CE2       -9.3380    8.9630   27.4200 C.ar  141  TRP141      0.0810
    123  CE3      -10.1500    8.6220   29.6740 C.ar  141  TRP141      0.0012
    124  CZ2      -10.3920    8.1810   26.8770 C.ar  141  TRP141      0.0191
    125  CZ3      -11.1550    7.8430   29.1470 C.ar  141  TRP141      0.0001
    126  CH2      -11.2610    7.6110   27.7720 C.ar  141  TRP141      0.0015
    127  N         -7.9000   11.4640   34.6770 N.3   144  ARG144     -0.1231
    128  CA        -7.9750   10.2120   35.4030 C.3   144  ARG144      0.1694
    129  C         -6.8320   10.0890   36.3950 C.2   144  ARG144      0.2592
    130  O         -6.8600    9.1520   37.2040 O.2   144  ARG144     -0.2718
    131  CB        -7.9740    9.0220   34.4680 C.3   144  ARG144      0.0321
    132  CG        -9.2120    8.8200   33.6340 C.3   144  ARG144      0.0489
    133  CD       -10.4970    8.7920   34.4820 C.3   144  ARG144      0.2205
    134  NE       -10.4230    7.7710   35.5360 N.pl3 144  ARG144     -0.0865
    135  CZ       -11.3910    7.5730   36.4050 C.cat 144  ARG144      0.5346
    136  NH1      -12.4840    8.2790   36.3040 N.pl3 144  ARG144      0.1354
    137  NH2      -11.2770    6.6660   37.3300 N.pl3 144  ARG144      0.1354
    138  N         -5.8460   10.9610   36.3980 N.am  145  TYR145     -0.1976
    139  CA        -4.7020   10.7480   37.3250 C.3   145  TYR145      0.1639
    140  C         -5.1420   10.7150   38.7930 C.2   145  TYR145      0.2290
    141  O         -4.7910    9.8110   39.5490 O.2   145  TYR145     -0.2864
    142  CB        -3.6130   11.7850   37.1660 C.3   145  TYR145      0.0560
    143  CG        -2.6570   11.6410   35.9830 C.ar  145  TYR145     -0.0198
    144  CD1       -3.0670   11.1900   34.7350 C.ar  145  TYR145     -0.0009
    145  CD2       -1.3880   12.0880   36.0850 C.ar  145  TYR145     -0.0009
    146  CE1       -2.2020   11.1770   33.6580 C.ar  145  TYR145      0.0417
    147  CE2       -0.5400   12.1230   34.9960 C.ar  145  TYR145      0.0417
    148  CZ        -0.9350   11.6510   33.7950 C.ar  145  TYR145      0.1957
    149  OH        -0.0680   11.6850   32.7130 O.3   145  TYR145     -0.2866
    150  N          3.6460   11.3580   34.1840 N.3   167  ASP167     -0.1225
    151  CA         4.0430   12.1530   33.0470 C.3   167  ASP167      0.1805
    152  C          3.1520   13.3630   32.8700 C.2   167  ASP167      0.2597
    153  O          1.9920   13.3510   33.3130 O.2   167  ASP167     -0.2718
    154  CB         4.0430   11.3320   31.7560 C.3   167  ASP167      0.1424
    155  CG         4.7840   11.9800   30.5910 C.2   167  ASP167      0.3668
    156  OD1        5.7100   12.7730   30.8540 O.co2 167  ASP167     -0.2456
    157  OD2        4.4760   11.6730   29.4020 O.co2 167  ASP167     -0.2456
    158  N          3.6580   14.3810   32.1830 N.am  168  ASN168     -0.1974
    159  CA         2.8110   15.4490   31.6510 C.3   168  ASN168      0.1688
    160  C          2.1420   16.2930   32.7310 C.2   168  ASN168      0.2292
    161  O          1.0470   16.8270   32.5130 O.2   168  ASN168     -0.2864
    162  CB         1.7310   14.9270   30.6820 C.3   168  ASN168      0.1181
    163  CG         2.3120   14.1460   29.5330 C.2   168  ASN168      0.2629
    164  OD1        1.9980   12.9550   29.3720 O.2   168  ASN168     -0.2716
    165  ND2        3.2120   14.7730   28.7720 N.am  168  ASN168     -0.0877
    166  N          2.5890   19.9300   30.9880 N.3   171  VAL171     -0.1231
    167  CA         1.9540   19.9850   29.6550 C.3   171  VAL171      0.1678
    168  C          1.6040   18.5640   29.2200 C.2   171  VAL171      0.2434
    169  O          2.4830   17.7420   29.1130 O.2   171  VAL171     -0.2733
    170  CB         2.8550   20.6530   28.5930 C.3   171  VAL171      0.0265
    171  CG1        2.1470   20.6650   27.2360 C.3   171  VAL171      0.0020
    172  CG2        3.3250   22.0580   28.9420 C.3   171  VAL171      0.0020
    173  N          0.3100   18.2720   28.9380 N.am  172  PRO172     -0.2729
    174  CA        -0.8520   19.1670   29.0790 C.3   172  PRO172      0.1401
    175  C         -1.1670   19.6370   30.4610 C.2   172  PRO172      0.2269
    176  O         -1.9000   20.6210   30.5900 O.2   172  PRO172     -0.2865
    177  CB        -1.9830   18.3450   28.4950 C.3   172  PRO172      0.0296
    178  CG        -1.2910   17.4540   27.4870 C.3   172  PRO172      0.0237
    179  CD        -0.0400   17.0460   28.1860 C.3   172  PRO172      0.0939
    180  N          8.9470   18.5290   27.2570 N.3   196  LEU196     -0.1231
    181  CA         8.0190   17.7910   26.4290 C.3   196  LEU196      0.1693
    182  C          8.8170   17.0020   25.4050 C.2   196  LEU196      0.2591
    183  O          9.7600   17.5100   24.7810 O.2   196  LEU196     -0.2718
    184  CB         7.0330   18.7570   25.7690 C.3   196  LEU196      0.0284
    185  CG         5.9560   18.1780   24.8790 C.3   196  LEU196      0.0019
    186  CD1        5.0090   17.3280   25.6700 C.3   196  LEU196      0.0001
    187  CD2        5.2200   19.3210   24.1630 C.3   196  LEU196      0.0001
    188  N          8.4020   15.7630   25.1520 N.am  197  GLU197     -0.1979
    189  CA         9.0670   14.8910   24.1940 C.3   197  GLU197      0.1602
    190  C          9.2820   15.6660   22.8890 C.2   197  GLU197      0.2287
    191  O          8.3430   16.2270   22.3020 O.2   197  GLU197     -0.2864
    192  CB         8.2610   13.5990   23.9830 C.3   197  GLU197      0.0415
    193  CG         6.7500   13.8120   23.6820 C.3   197  GLU197      0.1163
    194  CD         5.8650   13.6820   24.9260 C.2   197  GLU197      0.3649
    195  OE1        6.2640   14.0900   26.0270 O.co2 197  GLU197     -0.2457
    196  OE2        4.7010   13.2130   24.7240 O.co2 197  GLU197     -0.2457
@<TRIPOS>BOND
     1     1     2    1
     2     4     3    2
     3     2     3    1
     4     2     5    1
     5     5     6    1
     6     6     7   ar
     7     6     8   ar
     8    54    53    1
     9    11     8   ar
    10    11    13   ar
    11     7     9   ar
    12     8    10   ar
    13    53    51   ar
    14    53    52   ar
    15    51    49   ar
    16    13    14   ar
    17    29    28    2
    18     9    10   ar
    19    52    50   ar
    20    10    12   ar
    21    15    16    1
    22    49    48   ar
    23    28    30   am
    24    28    27    1
    25    14    12   ar
    26    50    48   ar
    27    46    45    2
    28    48    47    1
    29    45    44    1
    30   191   190    2
    31    16    19    1
    32    16    17    1
    33    22    21    1
    34    20    19    1
    35    20    21    1
    36    27    24    1
    37    23    17   am
    38    23    24    1
    39   190   189    1
    40    17    18    2
    41    44    47    1
    42    44    43    1
    43    24    25    1
    44   193   192    1
    45   193   194    1
    46   192   189    1
    47   187   185    1
    48    75    74    2
    49   189   188    1
    50    71    69   ar
    51    26    25    2
    52    74    73    1
    53    68    69    1
    54    68    67    1
    55   196   194   ar
    56   183   182    2
    57    69    70   ar
    58   185   186    1
    59   185   184    1
    60   194   195   ar
    61   188   182   am
    62   182   181    1
    63   184   181    1
    64    78    76    1
    65    67    64    1
    66    73    72    1
    67    73    76    1
    68    66    65    2
    69   181   180    1
    70    72    65   am
    71    65    64    1
    72    76    77    1
    73    77    79    1
    74   121   122   ar
    75   121   119   ar
    76   124   122   ar
    77   124   126   ar
    78    64    63    1
    79   171   170    1
    80   122   120   ar
    81   178   179    1
    82   178   177    1
    83   119   118   ar
    84   126   125   ar
    85    80    81    1
    86    63    57   am
    87   179   173    1
    88    41    42    2
    89    41    40    1
    90   177   174    1
    91    81    82    1
    92   102   100   ar
    93   170   172    1
    94   170   167    1
    95   165   163   am
    96   120   118   ar
    97   120   123   ar
    98   173   174    1
    99   173   168   am
   100   118   117    1
   101    40    39    1
   102   174   175    1
   103    83    82    2
   104   169   168    2
   105   125   123   ar
   106    82    84   am
   107    98    97    2
   108    57    58    2
   109    57    56    1
   110   168   167    1
   111   164   163    2
   112   101   100   ar
   113   157   155   ar
   114   100    99    1
   115   163   162    1
   116   167   166    1
   117    84    85    1
   118   106   105    2
   119   117   114    1
   120    39    33   am
   121   104   105    1
   122   104   107    1
   123   104   103    1
   124   114   113    1
   125   114   115    1
   126   105   113   am
   127    56    55    1
   128    56    59    1
   129    97   103   am
   130    97    96    1
   131   175   176    2
   132   155   156   ar
   133   155   154    1
   134    99    96    1
   135    85    88    1
   136    85    86    1
   137   162   159    1
   138   107   108    1
   139    96    95    1
   140    33    34    2
   141    33    32    1
   142    59    60    1
   143   115   116    2
   144   159   158    1
   145   159   160    1
   146   154   151    1
   147    86    89   am
   148    86    87    2
   149   158   152   am
   150   108   110   ar
   151   108   109   ar
   152   161   160    2
   153    89    90    1
   154   149   148    1
   155    32    31    1
   156    32    35    1
   157    60    61    1
   158   152   151    1
   159   152   153    2
   160   110   112   ar
   161   151   150    1
   162   109   111   ar
   163   132   131    1
   164   132   133    1
   165   146   148   ar
   166   146   144   ar
   167    35    36    1
   168   148   147   ar
   169    90    93    1
   170    90    91    1
   171    94    93    1
   172    61    62    1
   173   112   111   ar
   174   131   128    1
   175   133   134    1
   176   127   128    1
   177   144   143   ar
   178    38    36    1
   179    91    92    2
   180   147   145   ar
   181    36    37    1
   182   128   129    1
   183   134   135    2
   184   143   145   ar
   185   143   142    1
   186   136   135    1
   187   129   138   am
   188   129   130    2
   189   138   139    1
   190   135   137    1
   191   142   139    1
   192   139   140    1
   193   140   141    2
