@<TRIPOS>MOLECULE
tmp/5p9yA02.pdb
 86 82 0 0 0
SMALL
GASTEIGER

@<TRIPOS>ATOM
      1  N         -5.6400    7.3240   41.1890 N.3   149  THR149     -0.1203
      2  CA        -4.8340    7.2180   42.4080 C.3   149  THR149      0.1994
      3  C         -5.7330    6.8510   43.5910 C.2   149  THR149      0.2617
      4  O         -5.4140    5.9460   44.3800 O.2   149  THR149     -0.2717
      5  CB        -4.1020    8.5470   42.6540 C.3   149  THR149      0.1784
      6  OG1       -3.1640    8.7520   41.6020 O.3   149  THR149     -0.2211
      7  CG2       -3.3530    8.5150   44.0060 C.3   149  THR149      0.0376
      8  N         -6.8650    7.5300   43.7140 N.am  150  LEU150     -0.1979
      9  CA        -7.8100    7.2570   44.7940 C.3   150  LEU150      0.1596
     10  C         -8.4080    5.8330   44.6930 C.2   150  LEU150      0.2287
     11  O         -8.6410    5.1540   45.7050 O.2   150  LEU150     -0.2864
     12  CB        -8.9200    8.2840   44.7820 C.3   150  LEU150      0.0297
     13  CG        -8.4800    9.7440   44.9930 C.3   150  LEU150      0.0022
     14  CD1       -9.6860   10.7120   44.8460 C.3   150  LEU150      0.0001
     15  CD2       -7.7540    9.9750   46.3260 C.3   150  LEU150      0.0001
     16  N         -5.9020    3.1960   45.7870 N.3   153  GLU153     -0.1245
     17  CA        -5.9190    3.0940   47.2300 C.3   153  GLU153      0.1567
     18  C         -7.1280    2.3280   47.7510 C.2   153  GLU153      0.2260
     19  O         -7.0220    1.4350   48.6170 O.2   153  GLU153     -0.2867
     20  CB        -5.7960    4.4350   47.9210 C.3   153  GLU153      0.0388
     21  CG        -5.5580    4.3490   49.4070 C.3   153  GLU153      0.1160
     22  CD        -6.7250    3.9280   50.2830 C.2   153  GLU153      0.3649
     23  OE1       -7.8980    4.2650   50.0320 O.co2 153  GLU153     -0.2457
     24  OE2       -6.4630    3.2880   51.3220 O.co2 153  GLU153     -0.2457
     25  N         -1.9980   -0.1400   46.8370 N.3   158  LEU158     -0.1245
     26  CA        -0.8450    0.6360   47.2580 C.3   158  LEU158      0.1561
     27  C         -0.3160    0.0610   48.5550 C.2   158  LEU158      0.2260
     28  O         -1.0920   -0.3780   49.4000 O.2   158  LEU158     -0.2867
     29  CB        -1.2290    2.1020   47.4720 C.3   158  LEU158      0.0270
     30  CG        -1.8300    2.8190   46.2370 C.3   158  LEU158      0.0019
     31  CD1       -2.1460    4.2440   46.6070 C.3   158  LEU158      0.0001
     32  CD2       -0.9940    2.6780   44.9760 C.3   158  LEU158      0.0001
     33  N         -3.4450   17.7240   44.8740 N.3   180  TYR180     -0.1241
     34  CA        -3.8170   16.6990   45.8210 C.3   180  TYR180      0.1605
     35  C         -2.5810   16.0170   46.4180 C.2   180  TYR180      0.2264
     36  O         -2.4440   15.9130   47.6520 O.2   180  TYR180     -0.2867
     37  CB        -4.7760   15.6450   45.2320 C.3   180  TYR180      0.0534
     38  CG        -5.2130   14.6810   46.2560 C.ar  180  TYR180     -0.0201
     39  CD1       -6.2820   14.9630   47.0880 C.ar  180  TYR180     -0.0009
     40  CD2       -4.5680   13.4410   46.3920 C.ar  180  TYR180     -0.0009
     41  CE1       -6.6280   14.1100   48.0640 C.ar  180  TYR180      0.0417
     42  CE2       -4.9040   12.5720   47.3840 C.ar  180  TYR180      0.0417
     43  CZ        -5.9880   12.9060   48.2100 C.ar  180  TYR180      0.1957
     44  OH        -6.3550   12.0460   49.1960 O.3   180  TYR180     -0.2866
     45  N         -1.1620   16.2480   50.4620 N.3   184  SER184     -0.1217
     46  CA        -1.5200   15.1070   51.2540 C.3   184  SER184      0.1889
     47  C         -0.3900   14.5810   52.0880 C.2   184  SER184      0.2288
     48  O          0.7090   14.2950   51.5760 O.2   184  SER184     -0.2866
     49  CB        -1.9170   13.9520   50.3100 C.3   184  SER184      0.2089
     50  OG        -2.1470   12.7740   51.0500 O.3   184  SER184     -0.2183
     51  N         -0.2170   11.7270   53.0240 N.3   186  SER186     -0.1202
     52  CA        -0.0120   10.3530   52.6090 C.3   186  SER186      0.2020
     53  C          0.9510   10.1690   51.4300 C.2   186  SER186      0.2618
     54  O          1.1800    9.0480   51.0070 O.2   186  SER186     -0.2717
     55  CB        -1.3220    9.6970   52.2700 C.3   186  SER186      0.2103
     56  OG        -2.1440    9.5690   53.3960 O.3   186  SER186     -0.2182
     57  N          1.4560   11.2510   50.9070 N.am  187  PHE187     -0.1975
     58  CA         2.4370   11.1940   49.8250 C.3   187  PHE187      0.1639
     59  C          3.6430   12.0610   50.0950 C.2   187  PHE187      0.2290
     60  O          3.5000   13.1540   50.6170 O.2   187  PHE187     -0.2864
     61  CB         1.7740   11.6730   48.5000 C.3   187  PHE187      0.0560
     62  CG         0.7470   10.7360   47.9630 C.ar  187  PHE187     -0.0200
     63  CD1        1.1280    9.6400   47.2230 C.ar  187  PHE187     -0.0042
     64  CD2       -0.6040   10.9060   48.2610 C.ar  187  PHE187     -0.0042
     65  CE1        0.2280    8.7620   46.7370 C.ar  187  PHE187     -0.0003
     66  CE2       -1.5150    9.9430   47.7520 C.ar  187  PHE187     -0.0003
     67  CZ        -1.0770    8.8890   46.9990 C.ar  187  PHE187     -0.0000
     68  N          3.7100    6.8150   48.1320 N.3   210  TYR210     -0.1241
     69  CA         2.6510    6.5880   49.0990 C.3   210  TYR210      0.1605
     70  C          3.2600    6.1940   50.4500 C.2   210  TYR210      0.2264
     71  O          4.1080    5.3100   50.5090 O.2   210  TYR210     -0.2867
     72  CB         1.7210    5.5180   48.5940 C.3   210  TYR210      0.0534
     73  CG         0.4910    5.2920   49.4780 C.ar  210  TYR210     -0.0201
     74  CD1       -0.4600    6.3020   49.6200 C.ar  210  TYR210     -0.0009
     75  CD2        0.2810    4.1180   50.1240 C.ar  210  TYR210     -0.0009
     76  CE1       -1.5690    6.1010   50.4230 C.ar  210  TYR210      0.0417
     77  CE2       -0.8830    3.9020   50.8940 C.ar  210  TYR210      0.0417
     78  CZ        -1.7870    4.8980   51.0270 C.ar  210  TYR210      0.1957
     79  OH        -2.9180    4.7240   51.7870 O.3   210  TYR210     -0.2866
     80  N         -2.1060    5.2230   55.1600 N.3   213  PRO213     -0.2116
     81  CA        -3.3410    6.0160   55.4230 C.3   213  PRO213      0.1372
     82  C         -3.1400    7.2440   56.3290 C.2   213  PRO213      0.2244
     83  O         -2.4360    7.1620   57.3450 O.2   213  PRO213     -0.2868
     84  CB        -4.2990    4.9930   56.0900 C.3   213  PRO213      0.0268
     85  CG        -3.6640    3.5990   55.8300 C.3   213  PRO213      0.0207
     86  CD        -2.1630    3.8760   55.7720 C.3   213  PRO213      0.0892
@<TRIPOS>BOND
     1     1     2    1
     2     6     5    1
     3     2     5    1
     4     2     3    1
     5     5     7    1
     6     3     8   am
     7     3     4    2
     8     8     9    1
     9    10     9    1
    10    10    11    2
    11    12     9    1
    12    12    13    1
    13    14    13    1
    14    33    34    1
    15    32    30    1
    16    13    15    1
    17    37    34    1
    18    37    38    1
    19    16    17    1
    20    34    35    1
    21    30    31    1
    22    30    29    1
    23    38    40   ar
    24    38    39   ar
    25    40    42   ar
    26    35    36    2
    27    65    67   ar
    28    65    63   ar
    29    25    26    1
    30    67    66   ar
    31    39    41   ar
    32    63    62   ar
    33    17    18    1
    34    17    20    1
    35    26    29    1
    36    26    27    1
    37    42    43   ar
    38    18    19    2
    39    66    64   ar
    40    20    21    1
    41    62    64   ar
    42    62    61    1
    43    41    43   ar
    44    68    69    1
    45    43    44    1
    46    61    58    1
    47    27    28    2
    48    72    69    1
    49    72    73    1
    50    69    70    1
    51    21    22    1
    52    73    74   ar
    53    73    75   ar
    54    74    76   ar
    55    58    59    1
    56    58    57    1
    57    23    22   ar
    58    59    60    2
    59    75    77   ar
    60    22    24   ar
    61    49    50    1
    62    49    46    1
    63    76    78   ar
    64    70    71    2
    65    45    46    1
    66    77    78   ar
    67    57    53   am
    68    54    53    2
    69    78    79    1
    70    46    47    1
    71    53    52    1
    72    48    47    2
    73    55    52    1
    74    55    56    1
    75    52    51    1
    76    80    81    1
    77    80    86    1
    78    81    84    1
    79    81    82    1
    80    86    85    1
    81    85    84    1
    82    82    83    2
