@<TRIPOS>MOLECULE
tmp/5pa0A01.pdb
 110 110 0 0 0
SMALL
GASTEIGER

@<TRIPOS>ATOM
      1  N          6.4060   14.0140   14.9760 N.3    36  TRP36      -0.1241
      2  CA         6.2690   13.9920   16.4310 C.3    36  TRP36       0.1605
      3  C          5.2320   12.9830   16.8850 C.2    36  TRP36       0.2264
      4  O          4.1930   12.8360   16.2760 O.2    36  TRP36      -0.2867
      5  CB         5.8170   15.3740   16.9080 C.3    36  TRP36       0.0550
      6  CG         5.7740   15.5290   18.3920 C.ar   36  TRP36       0.0003
      7  CD1        6.8060   15.9420   19.1920 C.ar   36  TRP36       0.0946
      8  CD2        4.6650   15.2880   19.2670 C.ar   36  TRP36       0.0152
      9  NE1        6.4190   15.9570   20.5030 N.ar   36  TRP36      -0.2442
     10  CE2        5.1030   15.5690   20.5840 C.ar   36  TRP36       0.0810
     11  CE3        3.3450   14.8660   19.0760 C.ar   36  TRP36       0.0012
     12  CZ2        4.2680   15.4320   21.6980 C.ar   36  TRP36       0.0191
     13  CZ3        2.5300   14.7320   20.1820 C.ar   36  TRP36       0.0001
     14  CH2        2.9890   15.0240   21.4770 C.ar   36  TRP36       0.0015
     15  N          5.3520    9.8630   22.7370 N.3    38  ASN38      -0.1240
     16  CA         6.1360    8.9300   23.5460 C.3    38  ASN38       0.1653
     17  C          6.8210    9.7420   24.6400 C.2    38  ASN38       0.2266
     18  O          7.0910   10.9320   24.4360 O.2    38  ASN38      -0.2867
     19  CB         7.2390    8.2680   22.7350 C.3    38  ASN38       0.1155
     20  CG         6.7570    7.7420   21.3980 C.2    38  ASN38       0.2627
     21  OD1        7.2440    8.1370   20.3130 O.2    38  ASN38      -0.2716
     22  ND2        5.7960    6.8870   21.4470 N.am   38  ASN38      -0.0877
     23  N          0.6160    7.7810   32.5730 N.3   138  ASP138     -0.1225
     24  CA         0.8840    8.4720   31.3070 C.3   138  ASP138      0.1805
     25  C         -0.2730    8.3060   30.3450 C.2   138  ASP138      0.2598
     26  O         -0.0790    8.2210   29.1460 O.2   138  ASP138     -0.2718
     27  CB         2.1780    7.9450   30.6730 C.3   138  ASP138      0.1424
     28  CG         2.7510    8.8510   29.6070 C.2   138  ASP138      0.3668
     29  OD1        2.4550   10.0550   29.5730 O.co2 138  ASP138     -0.2456
     30  OD2        3.5640    8.3180   28.7860 O.co2 138  ASP138     -0.2456
     31  N         -1.4850    8.2900   30.8740 N.am  139  HIS139     -0.1961
     32  CA        -2.6860    8.1690   30.0550 C.3   139  HIS139      0.1787
     33  C         -3.3850    9.5320   29.9450 C.2   139  HIS139      0.2620
     34  O         -2.7150   10.5500   29.9820 O.2   139  HIS139     -0.2715
     35  CB        -3.5590    7.0170   30.5210 C.3   139  HIS139      0.0785
     36  CG        -3.9660    7.0570   31.9560 C.ar  139  HIS139      0.0821
     37  ND1       -3.2480    7.7090   32.9340 N.ar  139  HIS139     -0.2267
     38  CD2       -4.9930    6.4310   32.5830 C.ar  139  HIS139      0.1154
     39  CE1       -3.8390    7.4990   34.0960 C.ar  139  HIS139      0.1986
     40  NE2       -4.8950    6.7300   33.9110 N.ar  139  HIS139     -0.2212
     41  N         -4.7030    9.6080   29.7880 N.am  140  TRP140     -0.1960
     42  CA        -5.2930   10.9300   29.6690 C.3   140  TRP140      0.1771
     43  C         -5.1670   11.6210   31.0330 C.2   140  TRP140      0.2619
     44  O         -5.3450   10.9960   32.0940 O.2   140  TRP140     -0.2715
     45  CB        -6.7300   10.8860   29.2170 C.3   140  TRP140      0.0590
     46  CG        -6.9860   10.3820   27.8050 C.ar  140  TRP140      0.0006
     47  CD1       -8.1650    9.8600   27.4070 C.ar  140  TRP140      0.0946
     48  CD2       -6.1260   10.3620   26.6270 C.ar  140  TRP140      0.0152
     49  NE1       -8.1270    9.5160   26.0920 N.ar  140  TRP140     -0.2442
     50  CE2       -6.8920    9.8090   25.5790 C.ar  140  TRP140      0.0810
     51  CE3       -4.8170   10.7520   26.3530 C.ar  140  TRP140      0.0012
     52  CZ2       -6.3950    9.6240   24.2890 C.ar  140  TRP140      0.0191
     53  CZ3       -4.3350   10.5640   25.0750 C.ar  140  TRP140      0.0001
     54  CH2       -5.1230   10.0140   24.0590 C.ar  140  TRP140      0.0015
     55  N         -4.8460   12.9010   31.0140 N.am  141  LYS141     -0.1977
     56  CA        -4.3750   13.5410   32.2240 C.3   141  LYS141      0.1596
     57  C         -5.4850   13.6970   33.2790 C.2   141  LYS141      0.2287
     58  O         -5.1710   13.7780   34.4720 O.2   141  LYS141     -0.2864
     59  CB        -3.6540   14.8520   31.8840 C.3   141  LYS141      0.0298
     60  CG        -2.5190   14.7340   30.8190 C.3   141  LYS141      0.0038
     61  CD        -1.5540   13.5280   30.9910 C.3   141  LYS141      0.0206
     62  CE        -0.8550   13.1410   29.6990 C.3   141  LYS141      0.1093
     63  NZ        -0.2490   11.7300   29.8030 N.3   141  LYS141     -0.1314
     64  N          4.0060   11.3180   34.1960 N.3   166  ASP166     -0.1225
     65  CA         4.4750   12.1380   33.0610 C.3   166  ASP166      0.1805
     66  C          3.6000   13.3830   32.8850 C.2   166  ASP166      0.2597
     67  O          2.4300   13.4040   33.2850 O.2   166  ASP166     -0.2718
     68  CB         4.4550   11.3080   31.7620 C.3   166  ASP166      0.1424
     69  CG         5.2480   11.9690   30.6330 C.2   166  ASP166      0.3668
     70  OD1        6.1460   12.7780   30.9340 O.co2 166  ASP166     -0.2456
     71  OD2        4.9750   11.6860   29.4290 O.co2 166  ASP166     -0.2456
     72  N          4.1480   14.3940   32.2190 N.am  167  ASN167     -0.1974
     73  CA         3.3710   15.5180   31.6910 C.3   167  ASN167      0.1688
     74  C          2.7250   16.3680   32.7670 C.2   167  ASN167      0.2292
     75  O          1.6120   16.8850   32.5890 O.2   167  ASN167     -0.2864
     76  CB         2.2840   15.0160   30.7370 C.3   167  ASN167      0.1181
     77  CG         2.8200   14.1980   29.6140 C.2   167  ASN167      0.2629
     78  OD1        2.4750   13.0130   29.4750 O.2   167  ASN167     -0.2716
     79  ND2        3.6780   14.7990   28.8000 N.am  167  ASN167     -0.0877
     80  N          3.0810   19.9510   30.8540 N.3   170  VAL170     -0.1231
     81  CA         2.4050   19.9960   29.5550 C.3   170  VAL170      0.1678
     82  C          2.0830   18.5620   29.1480 C.2   170  VAL170      0.2434
     83  O          2.9710   17.7420   29.0080 O.2   170  VAL170     -0.2733
     84  CB         3.3270   20.6200   28.4500 C.3   170  VAL170      0.0265
     85  CG1        2.6120   20.5570   27.0830 C.3   170  VAL170      0.0020
     86  CG2        3.7510   22.0510   28.7680 C.3   170  VAL170      0.0020
     87  N          0.8050   18.2440   28.9470 N.am  171  PRO171     -0.2729
     88  CA        -0.3680   19.1090   29.0760 C.3   171  PRO171      0.1401
     89  C         -0.6730   19.5770   30.4820 C.2   171  PRO171      0.2269
     90  O         -1.4640   20.5070   30.6270 O.2   171  PRO171     -0.2865
     91  CB        -1.5150   18.2310   28.5400 C.3   171  PRO171      0.0296
     92  CG        -0.8370   17.3840   27.5140 C.3   171  PRO171      0.0237
     93  CD         0.4630   17.0180   28.2030 C.3   171  PRO171      0.0939
     94  N          9.3500   18.4500   27.1640 N.3   195  LEU195     -0.1231
     95  CA         8.4140   17.6770   26.3970 C.3   195  LEU195      0.1693
     96  C          9.1680   16.8910   25.3330 C.2   195  LEU195      0.2591
     97  O         10.1050   17.4010   24.7170 O.2   195  LEU195     -0.2718
     98  CB         7.4020   18.6140   25.7510 C.3   195  LEU195      0.0284
     99  CG         6.2490   18.0020   24.9550 C.3   195  LEU195      0.0019
    100  CD1        5.3540   17.1700   25.8590 C.3   195  LEU195      0.0001
    101  CD2        5.4400   19.0770   24.2940 C.3   195  LEU195      0.0001
    102  N          8.7450   15.6530   25.1230 N.am  196  GLU196     -0.1979
    103  CA         9.3930   14.7910   24.1680 C.3   196  GLU196      0.1602
    104  C          9.6120   15.4820   22.8300 C.2   196  GLU196      0.2287
    105  O          8.6930   16.0650   22.2510 O.2   196  GLU196     -0.2864
    106  CB         8.5910   13.5000   23.9930 C.3   196  GLU196      0.0415
    107  CG         7.1090   13.7000   23.6950 C.3   196  GLU196      0.1163
    108  CD         6.2220   13.5780   24.9190 C.2   196  GLU196      0.3649
    109  OE1        6.6440   13.9490   26.0380 O.co2 196  GLU196     -0.2457
    110  OE2        5.0450   13.1280   24.7550 O.co2 196  GLU196     -0.2457
@<TRIPOS>BOND
     1     1     2    1
     2     4     3    2
     3     2     3    1
     4     2     5    1
     5     5     6    1
     6     6     7   ar
     7     6     8   ar
     8    11     8   ar
     9    11    13   ar
    10     7     9   ar
    11     8    10   ar
    12    13    14   ar
    13    21    20    2
    14     9    10   ar
    15    10    12   ar
    16    20    22   am
    17    20    19    1
    18    14    12   ar
    19   105   104    2
    20    19    16    1
    21    15    16    1
    22   104   103    1
    23    16    17    1
    24   107   106    1
    25   107   108    1
    26   106   103    1
    27    54    52   ar
    28    54    53   ar
    29   103   102    1
    30    52    50   ar
    31   101    99    1
    32    18    17    2
    33    97    96    2
    34   110   108   ar
    35   108   109   ar
    36    99    98    1
    37    99   100    1
    38    53    51   ar
    39   102    96   am
    40    96    95    1
    41    50    49   ar
    42    50    48   ar
    43    98    95    1
    44    49    47   ar
    45    51    48   ar
    46    95    94    1
    47    48    46   ar
    48    85    84    1
    49    47    46   ar
    50    92    93    1
    51    92    91    1
    52    46    45    1
    53    93    87    1
    54    84    86    1
    55    84    81    1
    56    91    88    1
    57    30    28   ar
    58    79    77   am
    59    87    88    1
    60    87    82   am
    61    83    82    2
    62    88    89    1
    63    26    25    2
    64    82    81    1
    65    45    42    1
    66    71    69   ar
    67    78    77    2
    68    81    80    1
    69    29    28   ar
    70    28    27    1
    71    77    76    1
    72    42    41    1
    73    42    43    1
    74    62    63    1
    75    62    61    1
    76    41    33   am
    77    33    34    2
    78    33    32    1
    79    32    35    1
    80    32    31    1
    81    25    31   am
    82    25    24    1
    83    89    90    2
    84    35    36    1
    85    69    70   ar
    86    69    68    1
    87    27    24    1
    88    76    73    1
    89    60    61    1
    90    60    59    1
    91    55    43   am
    92    55    56    1
    93    43    44    2
    94    24    23    1
    95    73    72    1
    96    73    74    1
    97    68    65    1
    98    59    56    1
    99    36    38   ar
   100    36    37   ar
   101    72    66   am
   102    56    57    1
   103    38    40   ar
   104    75    74    2
   105    66    65    1
   106    66    67    2
   107    37    39   ar
   108    65    64    1
   109    57    58    2
   110    40    39   ar
