@<TRIPOS>MOLECULE
tmp/5pa1A02.pdb
 110 110 0 0 0
SMALL
GASTEIGER

@<TRIPOS>ATOM
      1  N          5.9780   13.2110   25.5020 N.3    36  TRP36      -0.1241
      2  CA         5.9190   13.1490   24.0380 C.3    36  TRP36       0.1605
      3  C          4.9200   14.1940   23.5720 C.2    36  TRP36       0.2264
      4  O          3.9040   14.4300   24.2290 O.2    36  TRP36      -0.2867
      5  CB         5.4810   11.7590   23.5870 C.3    36  TRP36       0.0550
      6  CG         5.4410   11.5570   22.1150 C.ar   36  TRP36       0.0003
      7  CD1        6.4680   11.1140   21.3650 C.ar   36  TRP36       0.0946
      8  CD2        4.3880   11.8650   21.1870 C.ar   36  TRP36       0.0152
      9  NE1        6.1440   11.1070   20.0640 N.ar   36  TRP36      -0.2442
     10  CE2        4.8530   11.5120   19.9080 C.ar   36  TRP36       0.0810
     11  CE3        3.0580   12.3280   21.3110 C.ar   36  TRP36       0.0012
     12  CZ2        4.1020   11.6670   18.7640 C.ar   36  TRP36       0.0191
     13  CZ3        2.2940   12.4610   20.1590 C.ar   36  TRP36       0.0001
     14  CH2        2.8140   12.1380   18.9150 C.ar   36  TRP36       0.0015
     15  N          3.3260   15.8870   19.5220 N.3    38  MET38      -0.1245
     16  CA         3.2140   15.6650   18.0740 C.3    38  MET38       0.1570
     17  C          3.9160   16.7420   17.2130 C.2    38  MET38       0.2261
     18  O          3.4380   17.1240   16.1320 O.2    38  MET38      -0.2867
     19  CB         1.7530   15.4730   17.6350 C.3    38  MET38       0.0387
     20  CG         0.9160   16.6760   17.9010 C.3    38  MET38       0.0595
     21  SD        -0.8390   16.3530   17.4330 S.3    38  MET38      -0.1393
     22  CE        -1.6190   17.6520   18.3130 C.3    38  MET38       0.0692
     23  N          0.4260   19.1790    7.9140 N.3   139  ASP139     -0.1225
     24  CA         0.6670   18.4840    9.1570 C.3   139  ASP139      0.1805
     25  C         -0.4810   18.7030   10.1190 C.2   139  ASP139      0.2598
     26  O         -0.2600   18.9110   11.3170 O.2   139  ASP139     -0.2718
     27  CB         1.9610   18.9970    9.7940 C.3   139  ASP139      0.1424
     28  CG         2.5210   18.1360   10.9070 C.2   139  ASP139      0.3668
     29  OD1        2.1950   16.9290   10.9940 O.co2 139  ASP139     -0.2456
     30  OD2        3.3700   18.6440   11.6790 O.co2 139  ASP139     -0.2456
     31  N         -1.6960   18.6310    9.5930 N.am  140  HIS140     -0.1961
     32  CA        -2.8790   18.7770   10.3690 C.3   140  HIS140      0.1787
     33  C         -3.5720   17.4090   10.4590 C.2   140  HIS140      0.2620
     34  O         -2.8770   16.3680   10.4570 O.2   140  HIS140     -0.2715
     35  CB        -3.7440   19.9370    9.8910 C.3   140  HIS140      0.0785
     36  CG        -4.1800   19.8730    8.4570 C.ar  140  HIS140      0.0821
     37  ND1       -3.4340   19.1900    7.5240 N.ar  140  HIS140     -0.2267
     38  CD2       -5.2200   20.4590    7.8020 C.ar  140  HIS140      0.1154
     39  CE1       -4.0240   19.3680    6.3380 C.ar  140  HIS140      0.1986
     40  NE2       -5.0910   20.1560    6.4710 N.ar  140  HIS140     -0.2212
     41  N         -4.8960   17.3530   10.6670 N.am  141  TRP141     -0.1960
     42  CA        -5.4950   16.0230   10.7680 C.3   141  TRP141      0.1771
     43  C         -5.4080   15.3200    9.4150 C.2   141  TRP141      0.2619
     44  O         -5.5680   15.9490    8.3860 O.2   141  TRP141     -0.2715
     45  CB        -6.9190   16.0980   11.2700 C.3   141  TRP141      0.0590
     46  CG        -7.1770   16.5980   12.6560 C.ar  141  TRP141      0.0006
     47  CD1       -8.3680   17.1100   13.0680 C.ar  141  TRP141      0.0946
     48  CD2       -6.2930   16.6570   13.7980 C.ar  141  TRP141      0.0152
     49  NE1       -8.2910   17.4670   14.3750 N.ar  141  TRP141     -0.2442
     50  CE2       -7.0420   17.2320   14.8660 C.ar  141  TRP141      0.0810
     51  CE3       -4.9740   16.3630   14.0360 C.ar  141  TRP141      0.0012
     52  CZ2       -6.5160   17.4490   16.1310 C.ar  141  TRP141      0.0191
     53  CZ3       -4.4610   16.5760   15.3010 C.ar  141  TRP141      0.0001
     54  CH2       -5.2140   17.1140   16.3240 C.ar  141  TRP141      0.0015
     55  N         -5.1180   14.0150    9.4190 N.am  142  LYS142     -0.1977
     56  CA        -4.7250   13.2990    8.2190 C.3   142  LYS142      0.1596
     57  C         -5.7850   13.2100    7.1610 C.2   142  LYS142      0.2287
     58  O         -5.4780   13.2120    5.9680 O.2   142  LYS142     -0.2864
     59  CB        -4.0760   11.9630    8.5550 C.3   142  LYS142      0.0298
     60  CG        -2.9190   12.0770    9.5660 C.3   142  LYS142      0.0038
     61  CD        -2.0050   13.2540    9.3210 C.3   142  LYS142      0.0206
     62  CE        -1.1370   13.6190   10.4830 C.3   142  LYS142      0.1093
     63  NZ        -0.4910   14.9300   10.3050 N.3   142  LYS142     -0.1314
     64  N          3.7690   15.6320    6.3080 N.3   167  ASP167     -0.1225
     65  CA         4.2390   14.8200    7.4480 C.3   167  ASP167      0.1805
     66  C          3.3560   13.5960    7.6330 C.2   167  ASP167      0.2597
     67  O          2.2200   13.5450    7.1860 O.2   167  ASP167     -0.2718
     68  CB         4.2070   15.6240    8.7320 C.3   167  ASP167      0.1424
     69  CG         4.9780   15.0220    9.8460 C.2   167  ASP167      0.3668
     70  OD1        5.9080   14.2070    9.5900 O.co2 167  ASP167     -0.2456
     71  OD2        4.7040   15.2880   11.0660 O.co2 167  ASP167     -0.2456
     72  N          3.8940   12.5890    8.2870 N.am  168  ASN168     -0.1974
     73  CA         3.1280   11.4960    8.8050 C.3   168  ASN168      0.1688
     74  C          2.4680   10.6470    7.7560 C.2   168  ASN168      0.2292
     75  O          1.4150   10.0860    7.9600 O.2   168  ASN168     -0.2864
     76  CB         2.0500   11.9530    9.7950 C.3   168  ASN168      0.1181
     77  CG         2.5590   12.7690   10.9340 C.2   168  ASN168      0.2629
     78  OD1        2.1620   13.9460   11.0740 O.2   168  ASN168     -0.2716
     79  ND2        3.4700   12.1810   11.7170 N.am  168  ASN168     -0.0877
     80  N          2.8530    7.0520    9.6310 N.3   171  VAL171     -0.1231
     81  CA         2.2040    7.0270   10.9590 C.3   171  VAL171      0.1678
     82  C          1.8140    8.4530   11.3640 C.2   171  VAL171      0.2434
     83  O          2.7020    9.2740   11.5090 O.2   171  VAL171     -0.2733
     84  CB         3.1800    6.4590   12.0720 C.3   171  VAL171      0.0265
     85  CG1        2.5100    6.4300   13.3940 C.3   171  VAL171      0.0020
     86  CG2        3.6660    5.0100   11.7600 C.3   171  VAL171      0.0020
     87  N          0.5170    8.7370   11.5940 N.am  172  PRO172     -0.2729
     88  CA        -0.6420    7.8640   11.4400 C.3   172  PRO172      0.1401
     89  C         -0.9640    7.3790   10.0310 C.2   172  PRO172      0.2269
     90  O         -1.7040    6.4110    9.8810 O.2   172  PRO172     -0.2865
     91  CB        -1.7810    8.7230   11.9910 C.3   172  PRO172      0.0296
     92  CG        -1.1220    9.5990   13.0390 C.3   172  PRO172      0.0237
     93  CD         0.1430    9.9980   12.2760 C.3   172  PRO172      0.0939
     94  N          9.2050    8.6220   13.3890 N.3   196  LEU196     -0.1231
     95  CA         8.2350    9.3650   14.1570 C.3   196  LEU196      0.1693
     96  C          8.9860   10.1560   15.2160 C.2   196  LEU196      0.2591
     97  O          9.9270    9.6590   15.8630 O.2   196  LEU196     -0.2718
     98  CB         7.2510    8.4010   14.8220 C.3   196  LEU196      0.0284
     99  CG         6.1330    8.9880   15.6900 C.3   196  LEU196      0.0019
    100  CD1        5.2020    9.8080   14.8320 C.3   196  LEU196      0.0001
    101  CD2        5.3940    7.8760   16.4170 C.3   196  LEU196      0.0001
    102  N          8.5620   11.3800   15.4220 N.am  197  GLU197     -0.1979
    103  CA         9.1730   12.2330   16.3920 C.3   197  GLU197      0.1602
    104  C          9.3440   11.5290   17.7410 C.2   197  GLU197      0.2287
    105  O          8.3950   10.9790   18.2990 O.2   197  GLU197     -0.2864
    106  CB         8.3600   13.5340   16.5280 C.3   197  GLU197      0.0415
    107  CG         6.8730   13.3690   16.8260 C.3   197  GLU197      0.1163
    108  CD         6.0070   13.4460   15.6120 C.2   197  GLU197      0.3649
    109  OE1        6.4400   13.0530   14.4970 O.co2 197  GLU197     -0.2457
    110  OE2        4.8150   13.8930   15.7670 O.co2 197  GLU197     -0.2457
@<TRIPOS>BOND
     1    58    57    2
     2    64    65    1
     3    39    40   ar
     4    39    37   ar
     5    40    38   ar
     6    57    56    1
     7    67    66    2
     8    65    66    1
     9    65    68    1
    10    37    36   ar
    11    66    72   am
    12    74    75    2
    13    74    73    1
    14    38    36   ar
    15    23    24    1
    16    56    59    1
    17    56    55    1
    18    72    73    1
    19    44    43    2
    20    36    35    1
    21    59    60    1
    22    68    69    1
    23    73    76    1
    24    24    27    1
    25    24    25    1
    26    61    60    1
    27    61    62    1
    28    43    55   am
    29    43    42    1
    30    70    69   ar
    31    31    25   am
    32    31    32    1
    33    80    81    1
    34    27    28    1
    35    76    77    1
    36    69    71   ar
    37    90    89    2
    38    35    32    1
    39    89    88    1
    40    25    26    2
    41    63    62    1
    42    32    33    1
    43    34    33    2
    44    33    41   am
    45    41    42    1
    46    42    45    1
    47    28    29   ar
    48    28    30   ar
    49    77    78    2
    50    77    79   am
    51    81    82    1
    52    81    84    1
    53    45    46    1
    54    82    83    2
    55    82    87   am
    56    88    87    1
    57    88    91    1
    58    87    93    1
    59    86    84    1
    60    91    92    1
    61    84    85    1
    62    93    92    1
    63    46    47   ar
    64    46    48   ar
    65    47    49   ar
    66    94    95    1
    67    48    51   ar
    68    48    50   ar
    69    51    53   ar
    70    95    98    1
    71    95    96    1
    72    49    50   ar
    73   109   108   ar
    74    98    99    1
    75   100    99    1
    76    50    52   ar
    77    96   102   am
    78    96    97    2
    79    53    54   ar
    80   102   103    1
    81   108   110   ar
    82   108   107    1
    83    99   101    1
    84    52    54   ar
    85    18    17    2
    86   103   106    1
    87   103   104    1
    88   106   107    1
    89    17    16    1
    90    21    20    1
    91    21    22    1
    92    19    20    1
    93    19    16    1
    94   104   105    2
    95    16    15    1
    96    12    14   ar
    97    12    10   ar
    98    14    13   ar
    99    10     9   ar
   100    10     8   ar
   101     9     7   ar
   102    13    11   ar
   103     8    11   ar
   104     8     6   ar
   105     7     6   ar
   106     6     5    1
   107     3     2    1
   108     3     4    2
   109     5     2    1
   110     2     1    1
