@<TRIPOS>MOLECULE
tmp/5pa3A01.pdb
 122 122 0 0 0
SMALL
GASTEIGER

@<TRIPOS>ATOM
      1  N          5.9820   13.8400   15.0460 N.3    36  TRP36      -0.1241
      2  CA         5.8340   13.8340   16.5010 C.3    36  TRP36       0.1605
      3  C          4.8300   12.7920   16.9410 C.2    36  TRP36       0.2264
      4  O          3.7900   12.5860   16.3020 O.2    36  TRP36      -0.2867
      5  CB         5.3550   15.2110   16.9710 C.3    36  TRP36       0.0550
      6  CG         5.3480   15.3370   18.4570 C.ar   36  TRP36       0.0003
      7  CD1        6.3780   15.7710   19.2500 C.ar   36  TRP36       0.0946
      8  CD2        4.2590   15.0080   19.3910 C.ar   36  TRP36       0.0152
      9  NE1        6.0270   15.7700   20.5860 N.ar   36  TRP36      -0.2442
     10  CE2        4.7600   15.3160   20.7330 C.ar   36  TRP36       0.0810
     11  CE3        2.9640   14.5330   19.2520 C.ar   36  TRP36       0.0012
     12  CZ2        3.9780   15.1460   21.8700 C.ar   36  TRP36       0.0191
     13  CZ3        2.2100   14.3530   20.3940 C.ar   36  TRP36       0.0001
     14  CH2        2.6850   14.7010   21.6670 C.ar   36  TRP36       0.0015
     15  N          3.2340   11.0830   20.9860 N.3    38  MET38      -0.1245
     16  CA         3.2010   11.2630   22.4400 C.3    38  MET38       0.1570
     17  C          3.8800   10.1200   23.2720 C.2    38  MET38       0.2261
     18  O          3.3800    9.7040   24.3260 O.2    38  MET38      -0.2867
     19  CB         1.7420   11.4740   22.8680 C.3    38  MET38       0.0387
     20  CG         0.8490   10.2940   22.5940 C.3    38  MET38       0.0595
     21  SD        -0.8830   10.6730   23.1170 S.3    38  MET38      -0.1393
     22  CE        -1.7830    9.2860   22.4250 C.3    38  MET38       0.0692
     23  N          0.4090    7.6500   32.5310 N.3   139  ASP139     -0.1225
     24  CA         0.6470    8.3400   31.2710 C.3   139  ASP139      0.1805
     25  C         -0.4820    8.1440   30.2950 C.2   139  ASP139      0.2598
     26  O         -0.2510    7.8580   29.1080 O.2   139  ASP139     -0.2718
     27  CB         1.9680    7.8000   30.6690 C.3   139  ASP139      0.1424
     28  CG         2.5220    8.6660   29.5760 C.2   139  ASP139      0.3668
     29  OD1        2.2270    9.8860   29.4430 O.co2 139  ASP139     -0.2456
     30  OD2        3.3240    8.0970   28.8060 O.co2 139  ASP139     -0.2456
     31  N         -1.7180    8.2430   30.8170 N.am  140  HIS140     -0.1961
     32  CA        -2.8820    7.9220   29.9950 C.3   140  HIS140      0.1787
     33  C         -3.6260    9.1170   29.5520 C.2   140  HIS140      0.2620
     34  O         -3.4920    9.5580   28.3800 O.2   140  HIS140     -0.2715
     35  CB        -3.7360    6.7760   30.5410 C.3   140  HIS140      0.0785
     36  CG        -4.1730    6.9030   31.9760 C.ar  140  HIS140      0.0821
     37  ND1       -3.5230    7.6360   32.8740 N.ar  140  HIS140     -0.2267
     38  CD2       -5.2450    6.3190   32.6600 C.ar  140  HIS140      0.1154
     39  CE1       -4.1540    7.5460   34.0540 C.ar  140  HIS140      0.1986
     40  NE2       -5.2080    6.7380   33.9000 N.ar  140  HIS140     -0.2212
     41  N         -4.5620    9.5550   30.3550 N.am  141  TRP141     -0.1960
     42  CA        -5.2510   10.8050   30.1240 C.3   141  TRP141      0.1771
     43  C         -5.2380   11.6570   31.3910 C.2   141  TRP141      0.2619
     44  O         -5.4880   11.1890   32.4790 O.2   141  TRP141     -0.2715
     45  CB        -6.6540   10.5180   29.7220 C.3   141  TRP141      0.0590
     46  CG        -7.3820   11.7710   29.4200 C.ar  141  TRP141      0.0006
     47  CD1       -8.6020   12.1840   29.9520 C.ar  141  TRP141      0.0946
     48  CD2       -6.9030   12.9140   28.5910 C.ar  141  TRP141      0.0152
     49  NE1       -8.9210   13.4420   29.4760 N.ar  141  TRP141     -0.2442
     50  CE2       -7.9540   13.9250   28.6600 C.ar  141  TRP141      0.0810
     51  CE3       -5.7680   13.1610   27.7910 C.ar  141  TRP141      0.0012
     52  CZ2       -7.8590   15.1310   27.9460 C.ar  141  TRP141      0.0191
     53  CZ3       -5.6750   14.3740   27.0960 C.ar  141  TRP141      0.0001
     54  CH2       -6.7010   15.3300   27.1690 C.ar  141  TRP141      0.0015
     55  N         -4.8870   12.9230   31.2430 N.am  142  LYS142     -0.1977
     56  CA        -4.6380   13.8010   32.3760 C.3   142  LYS142      0.1596
     57  C         -5.7510   13.7820   33.4230 C.2   142  LYS142      0.2287
     58  O         -5.4590   13.7680   34.6360 O.2   142  LYS142     -0.2864
     59  CB        -4.3530   15.2210   31.8830 C.3   142  LYS142      0.0298
     60  CG        -5.4990   15.8210   31.0730 C.3   142  LYS142      0.0038
     61  CD        -5.1380   17.1910   30.4830 C.3   142  LYS142      0.0206
     62  CE        -6.3220   17.8020   29.7710 C.3   142  LYS142      0.1093
     63  NZ        -5.9160   19.0530   29.0460 N.3   142  LYS142     -0.1314
     64  N         -5.6770   10.9170   36.1320 N.3   145  TYR145     -0.1241
     65  CA        -4.5800   10.6860   37.0690 C.3   145  TYR145      0.1605
     66  C         -5.0540   10.6860   38.5290 C.2   145  TYR145      0.2264
     67  O         -4.7560    9.7670   39.2900 O.2   145  TYR145     -0.2867
     68  CB        -3.5370   11.7500   36.9350 C.3   145  TYR145      0.0534
     69  CG        -2.5660   11.6190   35.7600 C.ar  145  TYR145     -0.0201
     70  CD1       -2.9190   11.0320   34.5400 C.ar  145  TYR145     -0.0009
     71  CD2       -1.2780   12.1600   35.8820 C.ar  145  TYR145     -0.0009
     72  CE1       -2.0140   10.9750   33.4880 C.ar  145  TYR145      0.0417
     73  CE2       -0.3730   12.1110   34.8280 C.ar  145  TYR145      0.0417
     74  CZ        -0.7410   11.5320   33.6300 C.ar  145  TYR145      0.1957
     75  OH         0.1370   11.4570   32.5830 O.3   145  TYR145     -0.2866
     76  N          3.7300   11.1870   34.1040 N.3   167  ASP167     -0.1225
     77  CA         4.1650   12.0270   32.9860 C.3   167  ASP167      0.1805
     78  C          3.2440   13.2230   32.7750 C.2   167  ASP167      0.2597
     79  O          2.0780   13.2150   33.2010 O.2   167  ASP167     -0.2718
     80  CB         4.1890   11.1790   31.7010 C.3   167  ASP167      0.1424
     81  CG         4.9260   11.8900   30.5280 C.2   167  ASP167      0.3668
     82  OD1        5.8660   12.6910   30.7890 O.co2 167  ASP167     -0.2456
     83  OD2        4.6120   11.6140   29.3530 O.co2 167  ASP167     -0.2456
     84  N          3.7700   14.2830   32.1690 N.am  168  ASN168     -0.1974
     85  CA         2.9770   15.3430   31.6190 C.3   168  ASN168      0.1688
     86  C          2.2650   16.1650   32.6860 C.2   168  ASN168      0.2292
     87  O          1.1780   16.6950   32.4530 O.2   168  ASN168     -0.2864
     88  CB         1.9090   14.8010   30.6670 C.3   168  ASN168      0.1181
     89  CG         2.4760   14.0390   29.5450 C.2   168  ASN168      0.2629
     90  OD1        2.1000   12.8600   29.3390 O.2   168  ASN168     -0.2716
     91  ND2        3.4070   14.6750   28.7840 N.am  168  ASN168     -0.0877
     92  N          2.6760   19.7780   30.9180 N.3   171  VAL171     -0.1231
     93  CA         1.9370   19.8090   29.6480 C.3   171  VAL171      0.1678
     94  C          1.6120   18.3830   29.1900 C.2   171  VAL171      0.2434
     95  O          2.4930   17.6040   29.0240 O.2   171  VAL171     -0.2733
     96  CB         2.7230   20.5510   28.5210 C.3   171  VAL171      0.0265
     97  CG1        4.1750   20.1420   28.4600 C.3   171  VAL171      0.0020
     98  CG2        2.0220   20.3540   27.1760 C.3   171  VAL171      0.0020
     99  N          0.3280   18.0390   28.9720 N.am  172  PRO172     -0.2729
    100  CA        -0.8340   18.9210   29.0680 C.3   172  PRO172      0.1401
    101  C         -1.0990   19.4660   30.4720 C.2   172  PRO172      0.2269
    102  O         -1.8320   20.4790   30.6070 O.2   172  PRO172     -0.2865
    103  CB        -1.9920   18.0390   28.5510 C.3   172  PRO172      0.0296
    104  CG        -1.3020   17.1590   27.5740 C.3   172  PRO172      0.0237
    105  CD         0.0210   16.8050   28.2080 C.3   172  PRO172      0.0939
    106  N          9.0330   18.2480   27.0880 N.3   196  LEU196     -0.1231
    107  CA         8.0710   17.4870   26.3230 C.3   196  LEU196      0.1693
    108  C          8.8440   16.6770   25.2920 C.2   196  LEU196      0.2591
    109  O          9.8020   17.1630   24.6720 O.2   196  LEU196     -0.2718
    110  CB         7.0930   18.4330   25.6880 C.3   196  LEU196      0.0284
    111  CG         5.9570   17.8690   24.8690 C.3   196  LEU196      0.0019
    112  CD1        4.9770   17.1850   25.8240 C.3   196  LEU196      0.0001
    113  CD2        5.3330   19.0190   24.1180 C.3   196  LEU196      0.0001
    114  N          8.4440   15.4300   25.1290 N.am  197  GLU197     -0.1979
    115  CA         9.0650   14.5690   24.1440 C.3   197  GLU197      0.1602
    116  C          9.2660   15.3240   22.8240 C.2   197  GLU197      0.2287
    117  O          8.3090   15.9200   22.2570 O.2   197  GLU197     -0.2864
    118  CB         8.2400   13.2800   23.9230 C.3   197  GLU197      0.0415
    119  CG         6.7580   13.5560   23.6200 C.3   197  GLU197      0.1163
    120  CD         5.8810   13.4470   24.8430 C.2   197  GLU197      0.3649
    121  OE1        6.2960   13.8500   25.9930 O.co2 197  GLU197     -0.2457
    122  OE2        4.7210   12.9620   24.6910 O.co2 197  GLU197     -0.2457
@<TRIPOS>BOND
     1     1     2    1
     2     4     3    2
     3     2     3    1
     4     2     5    1
     5     5     6    1
     6     6     7   ar
     7     6     8   ar
     8     7     9   ar
     9    11     8   ar
    10    11    13   ar
    11     8    10   ar
    12    13    14   ar
    13     9    10   ar
    14    10    12   ar
    15    15    16    1
    16    14    12   ar
    17   117   116    2
    18    22    21    1
    19    16    19    1
    20    16    17    1
    21    20    19    1
    22    20    21    1
    23   116   115    1
    24    17    18    2
    25   119   118    1
    26   119   120    1
    27   118   115    1
    28   113   111    1
    29   115   114    1
    30   109   108    2
    31   122   120   ar
    32   120   121   ar
    33   111   110    1
    34   111   112    1
    35   114   108   am
    36   108   107    1
    37   110   107    1
    38   107   106    1
    39    53    54   ar
    40    53    51   ar
    41    54    52   ar
    42    98    96    1
    43   104   105    1
    44   104   103    1
    45    51    48   ar
    46    52    50   ar
    47   105    99    1
    48    34    33    2
    49    97    96    1
    50    96    93    1
    51   103   100    1
    52    48    50   ar
    53    48    46   ar
    54    50    49   ar
    55    91    89   am
    56    30    28   ar
    57    99   100    1
    58    99    94   am
    59    95    94    2
    60    63    62    1
    61   100   101    1
    62    26    25    2
    63    94    93    1
    64    90    89    2
    65    83    81   ar
    66    46    45    1
    67    46    47   ar
    68    29    28   ar
    69    49    47   ar
    70    89    88    1
    71    33    32    1
    72    33    41   am
    73    28    27    1
    74    93    92    1
    75    45    42    1
    76    62    61    1
    77    32    35    1
    78    32    31    1
    79    42    41    1
    80    42    43    1
    81    25    31   am
    82    25    24    1
    83   101   102    2
    84    61    60    1
    85    81    82   ar
    86    81    80    1
    87    35    36    1
    88    88    85    1
    89    27    24    1
    90    60    59    1
    91    55    43   am
    92    55    56    1
    93    24    23    1
    94    43    44    2
    95    85    84    1
    96    85    86    1
    97    80    77    1
    98    59    56    1
    99    36    38   ar
   100    36    37   ar
   101    84    78   am
   102    56    57    1
   103    87    86    2
   104    75    74    1
   105    38    40   ar
   106    78    77    1
   107    78    79    2
   108    37    39   ar
   109    77    76    1
   110    57    58    2
   111    72    74   ar
   112    72    70   ar
   113    74    73   ar
   114    40    39   ar
   115    70    69   ar
   116    73    71   ar
   117    69    71   ar
   118    69    68    1
   119    64    65    1
   120    68    65    1
   121    65    66    1
   122    66    67    2
