@<TRIPOS>MOLECULE
tmp/5pa6A01.pdb
 118 118 0 0 0
SMALL
GASTEIGER

@<TRIPOS>ATOM
      1  N         19.6700  -14.3440  -25.5100 N.3    36  TRP36      -0.1241
      2  CA        19.7520  -14.4380  -24.0510 C.3    36  TRP36       0.1605
      3  C         20.7520  -13.4180  -23.5110 C.2    36  TRP36       0.2264
      4  O         21.7870  -13.1770  -24.1260 O.2    36  TRP36      -0.2867
      5  CB        20.2100  -15.8350  -23.6230 C.3    36  TRP36       0.0550
      6  CG        20.1530  -16.0730  -22.1430 C.ar   36  TRP36       0.0003
      7  CD1       19.1130  -16.6100  -21.4540 C.ar   36  TRP36       0.0946
      8  CD2       21.1760  -15.7930  -21.1750 C.ar   36  TRP36       0.0152
      9  NE1       19.4100  -16.6780  -20.1210 N.ar   36  TRP36      -0.2442
     10  CE2       20.6720  -16.1880  -19.9170 C.ar   36  TRP36       0.0810
     11  CE3       22.4660  -15.2530  -21.2480 C.ar   36  TRP36       0.0012
     12  CZ2       21.4130  -16.0580  -18.7360 C.ar   36  TRP36       0.0191
     13  CZ3       23.2080  -15.1220  -20.0690 C.ar   36  TRP36       0.0001
     14  CH2       22.6710  -15.5240  -18.8290 C.ar   36  TRP36       0.0015
     15  N         22.1810  -11.7130  -19.3870 N.3    38  MET38      -0.1230
     16  CA        22.1980  -11.9310  -17.9310 C.3    38  MET38       0.1702
     17  C         21.4900  -10.8330  -17.1110 C.2    38  MET38       0.2592
     18  O         21.9550  -10.4470  -16.0340 O.2    38  MET38      -0.2718
     19  CB        23.6440  -12.1540  -17.4510 C.3    38  MET38       0.0401
     20  CG        24.5900  -10.9900  -17.6850 C.3    38  MET38       0.0596
     21  SD        26.2590  -11.3870  -17.1520 S.3    38  MET38      -0.1393
     22  CE        27.1600  -10.1530  -18.0770 C.3    38  MET38       0.0692
     23  N         20.3520  -10.3490  -17.6050 N.am   39  ASN39      -0.1974
     24  CA        19.4930   -9.4580  -16.8290 C.3    39  ASN39       0.1688
     25  C         18.8420  -10.3220  -15.7590 C.2    39  ASN39       0.2292
     26  O         18.5910  -11.5000  -15.9860 O.2    39  ASN39      -0.2864
     27  CB        18.3710   -8.8510  -17.6830 C.3    39  ASN39       0.1181
     28  CG        18.8570   -8.2620  -18.9920 C.2    39  ASN39       0.2629
     29  OD1       18.3950   -8.6540  -20.0680 O.2    39  ASN39      -0.2716
     30  ND2       19.7810   -7.3310  -18.9130 N.am   39  ASN39      -0.0877
     31  N         25.0670   -8.4500   -7.7590 N.3   139  ASP139     -0.1225
     32  CA        24.8000   -9.1090   -9.0430 C.3   139  ASP139      0.1805
     33  C         25.9380   -8.8750  -10.0420 C.2   139  ASP139      0.2598
     34  O         25.7130   -8.6500  -11.2170 O.2   139  ASP139     -0.2718
     35  CB        23.4560   -8.6180   -9.6080 C.3   139  ASP139      0.1424
     36  CG        22.9210   -9.4810  -10.7380 C.2   139  ASP139      0.3668
     37  OD1       23.2760  -10.6740  -10.8670 O.co2 139  ASP139     -0.2456
     38  OD2       22.1160   -8.9440  -11.5260 O.co2 139  ASP139     -0.2456
     39  N         27.1630   -8.9820   -9.5460 N.am  140  HIS140     -0.1961
     40  CA        28.3800   -8.8010  -10.3450 C.3   140  HIS140      0.1787
     41  C         29.0870  -10.1600  -10.4300 C.2   140  HIS140      0.2620
     42  O         28.4120  -11.1850  -10.3570 O.2   140  HIS140     -0.2715
     43  CB        29.2360   -7.6090   -9.8560 C.3   140  HIS140      0.0785
     44  CG        29.7030   -7.6720   -8.4270 C.ar  140  HIS140      0.0821
     45  ND1       29.0510   -8.3630   -7.4240 N.ar  140  HIS140     -0.2267
     46  CD2       30.7270   -7.0250   -7.8210 C.ar  140  HIS140      0.1154
     47  CE1       29.6840   -8.1830   -6.2800 C.ar  140  HIS140      0.1986
     48  NE2       30.7000   -7.3710   -6.4920 N.ar  140  HIS140     -0.2212
     49  N         30.4000  -10.2150  -10.6370 N.am  141  TRP141     -0.1960
     50  CA        31.0440  -11.5200  -10.7420 C.3   141  TRP141      0.1771
     51  C         30.9870  -12.2120   -9.3790 C.2   141  TRP141      0.2619
     52  O         31.1550  -11.5720   -8.3330 O.2   141  TRP141     -0.2715
     53  CB        32.4750  -11.4350  -11.2590 C.3   141  TRP141      0.0590
     54  CG        32.6850  -10.8780  -12.6590 C.ar  141  TRP141      0.0006
     55  CD1       33.8130  -10.2430  -13.0920 C.ar  141  TRP141      0.0946
     56  CD2       31.7850  -10.9030  -13.7970 C.ar  141  TRP141      0.0152
     57  NE1       33.6830   -9.8690  -14.4010 N.ar  141  TRP141     -0.2442
     58  CE2       32.4600  -10.2620  -14.8660 C.ar  141  TRP141      0.0810
     59  CE3       30.4880  -11.3930  -14.0220 C.ar  141  TRP141      0.0012
     60  CZ2       31.8810  -10.0890  -16.1290 C.ar  141  TRP141      0.0191
     61  CZ3       29.9170  -11.2220  -15.2910 C.ar  141  TRP141      0.0001
     62  CH2       30.6160  -10.5730  -16.3220 C.ar  141  TRP141      0.0015
     63  N         30.7290  -13.5140   -9.4030 N.am  142  LYS142     -0.1977
     64  CA        30.3340  -14.2450   -8.2020 C.3   142  LYS142      0.1596
     65  C         31.4500  -14.3540   -7.1730 C.2   142  LYS142      0.2287
     66  O         31.1730  -14.4190   -5.9750 O.2   142  LYS142     -0.2864
     67  CB        29.7740  -15.6250   -8.5740 C.3   142  LYS142      0.0298
     68  CG        28.6260  -15.6010   -9.5910 C.3   142  LYS142      0.0038
     69  CD        27.5130  -14.6020   -9.2600 C.3   142  LYS142      0.0206
     70  CE        26.6990  -14.1920  -10.4790 C.3   142  LYS142      0.1093
     71  NZ        25.9900  -12.8990  -10.2510 N.3   142  LYS142     -0.1314
     72  N         21.7700  -12.0110   -6.1420 N.3   167  ASP167     -0.1225
     73  CA        21.2890  -12.8090   -7.2670 C.3   167  ASP167      0.1805
     74  C         22.1710  -14.0320   -7.4770 C.2   167  ASP167      0.2597
     75  O         23.3310  -14.0670   -7.0600 O.2   167  ASP167     -0.2718
     76  CB        21.2400  -11.9650   -8.5490 C.3   167  ASP167      0.1424
     77  CG        20.4740  -12.6440   -9.6790 C.2   167  ASP167      0.3668
     78  OD1       19.5920  -13.4760   -9.3930 O.co2 167  ASP167     -0.2456
     79  OD2       20.7590  -12.3440  -10.8590 O.co2 167  ASP167     -0.2456
     80  N         21.6010  -15.0430   -8.1270 N.am  168  ASN168     -0.1974
     81  CA        22.3750  -16.1550   -8.6750 C.3   168  ASN168      0.1688
     82  C         23.0330  -17.0180   -7.6120 C.2   168  ASN168      0.2292
     83  O         24.1100  -17.5630   -7.8470 O.2   168  ASN168     -0.2864
     84  CB        23.4520  -15.6680   -9.6540 C.3   168  ASN168      0.1181
     85  CG        22.8860  -14.8620  -10.7860 C.2   168  ASN168      0.2629
     86  OD1       23.2340  -13.6970  -10.9610 O.2   168  ASN168     -0.2716
     87  ND2       22.0140  -15.4770  -11.5740 N.am  168  ASN168     -0.0877
     88  N         22.5330  -20.6410   -9.4810 N.3   171  VAL171     -0.1231
     89  CA        23.1960  -20.6860  -10.7930 C.3   171  VAL171      0.1678
     90  C         23.5830  -19.2640  -11.2180 C.2   171  VAL171      0.2434
     91  O         22.7020  -18.4140  -11.3330 O.2   171  VAL171     -0.2733
     92  CB        22.2720  -21.2850  -11.8770 C.3   171  VAL171      0.0265
     93  CG1       22.9800  -21.3270  -13.2260 C.3   171  VAL171      0.0020
     94  CG2       21.8150  -22.6820  -11.4810 C.3   171  VAL171      0.0020
     95  N         24.8790  -18.9710  -11.4570 N.am  172  PRO172     -0.2729
     96  CA        26.0390  -19.8800  -11.3310 C.3   172  PRO172      0.1401
     97  C         26.3960  -20.3130   -9.9050 C.2   172  PRO172      0.2269
     98  O         27.1770  -21.2490   -9.7330 O.2   172  PRO172     -0.2865
     99  CB        27.1880  -19.0500  -11.9170 C.3   172  PRO172      0.0296
    100  CG        26.5270  -18.1320  -12.8760 C.3   172  PRO172      0.0237
    101  CD        25.2520  -17.7440  -12.1890 C.3   172  PRO172      0.0939
    102  N         16.2580  -19.0050  -13.2440 N.3   196  LEU196     -0.1231
    103  CA        17.2360  -18.2860  -14.0440 C.3   196  LEU196      0.1693
    104  C         16.5200  -17.5220  -15.1490 C.2   196  LEU196      0.2591
    105  O         15.6060  -18.0490  -15.7860 O.2   196  LEU196     -0.2718
    106  CB        18.2300  -19.2790  -14.6480 C.3   196  LEU196      0.0284
    107  CG        19.3700  -18.7560  -15.5280 C.3   196  LEU196      0.0019
    108  CD1       20.2850  -17.8250  -14.7550 C.3   196  LEU196      0.0001
    109  CD2       20.1700  -19.9210  -16.0880 C.3   196  LEU196      0.0001
    110  N         16.9260  -16.2740  -15.3530 N.am  197  GLU197     -0.1979
    111  CA        16.3560  -15.4310  -16.3980 C.3   197  GLU197      0.1602
    112  C         16.2430  -16.1530  -17.7470 C.2   197  GLU197      0.2287
    113  O         17.2040  -16.7670  -18.2220 O.2   197  GLU197     -0.2864
    114  CB        17.1610  -14.1350  -16.5470 C.3   197  GLU197      0.0415
    115  CG        18.6680  -14.3150  -16.7750 C.3   197  GLU197      0.1163
    116  CD        19.5120  -14.1920  -15.5150 C.2   197  GLU197      0.3649
    117  OE1       19.0480  -14.5770  -14.4200 O.co2 197  GLU197     -0.2457
    118  OE2       20.6550  -13.7210  -15.6310 O.co2 197  GLU197     -0.2457
@<TRIPOS>BOND
     1     1     2    1
     2     4     3    2
     3     2     5    1
     4     2     3    1
     5     5     6    1
     6     6     7   ar
     7     6     8   ar
     8     7     9   ar
     9    11     8   ar
    10    11    13   ar
    11     8    10   ar
    12     9    10   ar
    13    13    14   ar
    14    29    28    2
    15    10    12   ar
    16    15    16    1
    17    28    30   am
    18    28    27    1
    19    14    12   ar
    20   113   112    2
    21    22    21    1
    22    16    19    1
    23    16    17    1
    24   112   111    1
    25    20    19    1
    26    20    21    1
    27    27    24    1
    28    23    17   am
    29    23    24    1
    30    17    18    2
    31    24    25    1
    32   115   114    1
    33   115   116    1
    34   114   111    1
    35   111   110    1
    36    62    60   ar
    37    62    61   ar
    38    60    58   ar
    39   109   107    1
    40    26    25    2
    41   105   104    2
    42   118   116   ar
    43   107   108    1
    44   107   106    1
    45   116   117   ar
    46   110   104   am
    47    61    59   ar
    48   104   103    1
    49    58    57   ar
    50    58    56   ar
    51   106   103    1
    52    57    55   ar
    53   103   102    1
    54    59    56   ar
    55    56    54   ar
    56    93    92    1
    57    55    54   ar
    58   100   101    1
    59   100    99    1
    60    54    53    1
    61   101    95    1
    62    99    96    1
    63    92    94    1
    64    92    89    1
    65    87    85   am
    66    38    36   ar
    67    95    96    1
    68    95    90   am
    69    91    90    2
    70    96    97    1
    71    53    50    1
    72    90    89    1
    73    34    33    2
    74    86    85    2
    75    37    36   ar
    76    79    77   ar
    77    89    88    1
    78    85    84    1
    79    50    49    1
    80    50    51    1
    81    36    35    1
    82    49    41   am
    83    70    71    1
    84    70    69    1
    85    41    42    2
    86    41    40    1
    87    40    43    1
    88    40    39    1
    89    33    39   am
    90    33    32    1
    91    97    98    2
    92    43    44    1
    93    77    78   ar
    94    77    76    1
    95    84    81    1
    96    35    32    1
    97    68    69    1
    98    68    67    1
    99    63    51   am
   100    63    64    1
   101    51    52    2
   102    32    31    1
   103    81    80    1
   104    81    82    1
   105    67    64    1
   106    76    73    1
   107    44    46   ar
   108    44    45   ar
   109    64    65    1
   110    80    74   am
   111    83    82    2
   112    46    48   ar
   113    74    73    1
   114    74    75    2
   115    45    47   ar
   116    73    72    1
   117    65    66    2
   118    48    47   ar
