@<TRIPOS>MOLECULE
tmp/5pa7A01.pdb
 133 131 0 0 0
SMALL
GASTEIGER

@<TRIPOS>ATOM
      1  N         18.4200  -10.6930   10.7610 N.3    36  TRP36      -0.1241
      2  CA        17.3080  -10.2930    9.9200 C.3    36  TRP36       0.1605
      3  C         16.0500  -11.0520   10.2810 C.2    36  TRP36       0.2264
      4  O         16.1080  -12.2090   10.6840 O.2    36  TRP36      -0.2867
      5  CB        17.6450  -10.5380    8.4340 C.3    36  TRP36       0.0550
      6  CG        16.4730  -10.2980    7.5180 C.ar   36  TRP36       0.0003
      7  CD1       16.1310   -9.1200    6.9140 C.ar   36  TRP36       0.0946
      8  CD2       15.4760  -11.2530    7.1230 C.ar   36  TRP36       0.0152
      9  NE1       14.9890   -9.2840    6.1580 N.ar   36  TRP36      -0.2442
     10  CE2       14.5670  -10.5830    6.2680 C.ar   36  TRP36       0.0810
     11  CE3       15.2680  -12.6110    7.4000 C.ar   36  TRP36       0.0012
     12  CZ2       13.4640  -11.2270    5.6930 C.ar   36  TRP36       0.0191
     13  CZ3       14.1710  -13.2480    6.8320 C.ar   36  TRP36       0.0001
     14  CH2       13.2860  -12.5560    5.9840 C.ar   36  TRP36       0.0015
     15  N         11.5600  -11.0700    8.9650 N.3    38  MET38      -0.1230
     16  CA        10.6200  -10.6080    7.9540 C.3    38  MET38       0.1702
     17  C          9.6210   -9.5420    8.4210 C.2    38  MET38       0.2592
     18  O          8.4670   -9.5500    7.9850 O.2    38  MET38      -0.2718
     19  CB         9.8690  -11.8070    7.3510 C.3    38  MET38       0.0401
     20  CG         9.0820  -12.6410    8.3590 C.3    38  MET38       0.0596
     21  SD         8.5210  -14.2120    7.6470 S.3    38  MET38      -0.1393
     22  CE         7.7220  -14.9940    9.0460 C.3    38  MET38       0.0692
     23  N         10.0470   -8.6330    9.3000 N.am   39  ASN39      -0.1960
     24  CA         9.2000   -7.4960    9.6470 C.3    39  ASN39       0.1819
     25  C          9.1110   -6.5640    8.4440 C.2    39  ASN39       0.2621
     26  O         10.0640   -6.4450    7.6590 O.2    39  ASN39      -0.2715
     27  CB         9.7540   -6.6980   10.8310 C.3    39  ASN39       0.1195
     28  CG        10.1750   -7.5680   11.9760 C.2    39  ASN39       0.2630
     29  OD1       11.3530   -7.6030   12.3190 O.2    39  ASN39      -0.2716
     30  ND2        9.2200   -8.2670   12.5960 N.am   39  ASN39      -0.0877
     31  N          7.9830   -5.8820    8.3010 N.am   40  VAL40      -0.1977
     32  CA         7.8480   -4.9560    7.1910 C.3    40  VAL40       0.1596
     33  C          9.0290   -3.9640    7.1650 C.2    40  VAL40       0.2287
     34  O          9.5270   -3.6130    6.0920 O.2    40  VAL40      -0.2864
     35  CB         6.4850   -4.2360    7.2050 C.3    40  VAL40       0.0276
     36  CG1        6.4700   -3.1330    8.2560 C.3    40  VAL40       0.0022
     37  CG2        6.1770   -3.6740    5.8210 C.3    40  VAL40       0.0022
     38  N          9.5410    0.5870    4.5370 N.3    44  LYS44      -0.1245
     39  CA         8.1650    0.2810    4.1650 C.3    44  LYS44       0.1561
     40  C          7.2090    0.8370    5.2250 C.2    44  LYS44       0.2260
     41  O          6.0710    1.2110    4.9210 O.2    44  LYS44      -0.2867
     42  CB         7.9750   -1.2290    3.9830 C.3    44  LYS44       0.0271
     43  CG         8.6970   -1.7980    2.7530 C.3    44  LYS44       0.0035
     44  CD         8.4330   -3.2900    2.6230 C.3    44  LYS44       0.0206
     45  CE         9.1290   -3.8830    1.4140 C.3    44  LYS44       0.1093
     46  NZ         8.8880   -5.3480    1.3690 N.3    44  LYS44      -0.1314
     47  N          0.1310   -9.4750    4.3160 N.3   139  ASP139     -0.1225
     48  CA         1.5550   -9.6910    4.5600 C.3   139  ASP139      0.1805
     49  C          1.7560  -11.1120    5.1060 C.2   139  ASP139      0.2598
     50  O          2.7120  -11.4080    5.8280 O.2   139  ASP139     -0.2718
     51  CB         2.0870   -8.6000    5.5180 C.3   139  ASP139      0.1424
     52  CG         3.6190   -8.6140    5.6780 C.2   139  ASP139      0.3668
     53  OD1        4.3370   -9.0820    4.7650 O.co2 139  ASP139     -0.2456
     54  OD2        4.1060   -8.1360    6.7260 O.co2 139  ASP139     -0.2456
     55  N          0.8380  -11.9970    4.7350 N.am  140  HIS140     -0.1961
     56  CA         0.9350  -13.3940    5.1100 C.3   140  HIS140      0.1787
     57  C          1.5490  -14.2390    3.9690 C.2   140  HIS140      0.2620
     58  O          2.3190  -13.7120    3.1700 O.2   140  HIS140     -0.2715
     59  CB        -0.4110  -13.9260    5.6510 C.3   140  HIS140      0.0785
     60  CG        -1.5690  -13.8070    4.7020 C.ar  140  HIS140      0.0821
     61  ND1       -1.6170  -12.8820    3.6800 N.ar  140  HIS140     -0.2267
     62  CD2       -2.7260  -14.5100    4.6260 C.ar  140  HIS140      0.1154
     63  CE1       -2.7560  -13.0140    3.0210 C.ar  140  HIS140      0.1986
     64  NE2       -3.4500  -13.9910    3.5800 N.ar  140  HIS140     -0.2212
     65  N          1.2470  -15.5310    3.8940 N.am  141  TRP141     -0.1960
     66  CA         1.8430  -16.3780    2.8500 C.3   141  TRP141      0.1771
     67  C          1.4120  -15.9320    1.4600 C.2   141  TRP141      0.2619
     68  O          0.2300  -15.6790    1.2140 O.2   141  TRP141     -0.2715
     69  CB         1.5480  -17.8570    3.1000 C.3   141  TRP141      0.0590
     70  CG         2.2050  -18.3360    4.3670 C.ar  141  TRP141      0.0006
     71  CD1        3.3320  -17.8150    4.9560 C.ar  141  TRP141      0.0946
     72  CD2        1.7600  -19.4010    5.2240 C.ar  141  TRP141      0.0152
     73  NE1        3.6240  -18.5080    6.1110 N.ar  141  TRP141     -0.2442
     74  CE2        2.6730  -19.4780    6.3040 C.ar  141  TRP141      0.0810
     75  CE3        0.6750  -20.2840    5.1910 C.ar  141  TRP141      0.0012
     76  CZ2        2.5410  -20.4180    7.3360 C.ar  141  TRP141      0.0191
     77  CZ3        0.5490  -21.2330    6.2190 C.ar  141  TRP141      0.0001
     78  CH2        1.4800  -21.2890    7.2730 C.ar  141  TRP141      0.0015
     79  N          2.3860  -15.8090    0.5620 N.am  142  LYS142     -0.1977
     80  CA         2.1720  -15.0930   -0.6960 C.3   142  LYS142      0.1596
     81  C          1.0740  -15.6990   -1.5630 C.2   142  LYS142      0.2287
     82  O          0.3360  -14.9730   -2.2140 O.2   142  LYS142     -0.2864
     83  CB         3.4950  -14.8980   -1.4530 C.3   142  LYS142      0.0298
     84  CG         4.5780  -14.2320   -0.5550 C.3   142  LYS142      0.0038
     85  CD         4.0080  -13.0140    0.2010 C.3   142  LYS142      0.0206
     86  CE         4.8740  -12.5740    1.4020 C.3   142  LYS142      0.1093
     87  NZ         4.1690  -11.5610    2.2670 N.3   142  LYS142     -0.1314
     88  N          2.0020   -6.1850    0.9000 N.3   167  ASP167     -0.1225
     89  CA         3.4580   -6.2010    0.9370 C.3   167  ASP167      0.1805
     90  C          4.0290   -7.3600    0.1240 C.2   167  ASP167      0.2597
     91  O          3.3710   -8.3940   -0.0610 O.2   167  ASP167     -0.2718
     92  CB         3.9560   -6.3160    2.3830 C.3   167  ASP167      0.1424
     93  CG         5.4540   -6.0780    2.5010 C.2   167  ASP167      0.3668
     94  OD1        6.0230   -5.3470    1.6650 O.co2 167  ASP167     -0.2456
     95  OD2        6.0690   -6.6030    3.4360 O.co2 167  ASP167     -0.2456
     96  N          5.2640   -7.1890   -0.3430 N.am  168  ASN168     -0.1974
     97  CA         5.9860   -8.2780   -0.9940 C.3   168  ASN168      0.1688
     98  C          5.3710   -8.6770   -2.3140 C.2   168  ASN168      0.2292
     99  O          5.3990   -9.8600   -2.6870 O.2   168  ASN168     -0.2864
    100  CB         6.0170   -9.5010   -0.0850 C.3   168  ASN168      0.1181
    101  CG         6.5930   -9.1930    1.2660 C.2   168  ASN168      0.2629
    102  OD1        5.9650   -9.4470    2.3000 O.2   168  ASN168     -0.2716
    103  ND2        7.7970   -8.6360    1.2730 N.am  168  ASN168     -0.0877
    104  N          8.8400   -9.3300   -4.1840 N.3   171  VAL171     -0.1231
    105  CA         9.6730  -10.3530   -3.5490 C.3   171  VAL171      0.1678
    106  C          9.0960  -10.6800   -2.1860 C.2   171  VAL171      0.2434
    107  O          8.8940   -9.7740   -1.3720 O.2   171  VAL171     -0.2733
    108  CB        11.1230   -9.8630   -3.3460 C.3   171  VAL171      0.0265
    109  CG1       11.9780  -10.9590   -2.7220 C.3   171  VAL171      0.0020
    110  CG2       11.7210   -9.4060   -4.6710 C.3   171  VAL171      0.0020
    111  N          8.8190  -11.9710   -1.9270 N.am  172  PRO172     -0.2729
    112  CA         8.9910  -13.0720   -2.8830 C.3   172  PRO172      0.1401
    113  C          8.1000  -12.9570   -4.1160 C.2   172  PRO172      0.2269
    114  O          8.4020  -13.5920   -5.1310 O.2   172  PRO172     -0.2865
    115  CB         8.6170  -14.3200   -2.0640 C.3   172  PRO172      0.0296
    116  CG         7.9230  -13.8210   -0.8570 C.3   172  PRO172      0.0237
    117  CD         8.4830  -12.4680   -0.5830 C.3   172  PRO172      0.0939
    118  N         14.8160   -3.8460   -0.1380 N.3   196  LEU196     -0.1245
    119  CA        15.1390   -4.7200    0.9950 C.3   196  LEU196      0.1561
    120  C         16.6530   -4.7740    1.2030 C.2   196  LEU196      0.2260
    121  O         17.3780   -5.4030    0.4320 O.2   196  LEU196     -0.2867
    122  CB        14.6130   -6.1380    0.7530 C.3   196  LEU196      0.0270
    123  CG        13.1700   -6.2590    0.2660 C.3   196  LEU196      0.0019
    124  CD1       12.8220   -7.7110   -0.0600 C.3   196  LEU196      0.0001
    125  CD2       12.2080   -5.6810    1.2860 C.3   196  LEU196      0.0001
    126  N         18.7370   -8.2840    1.8940 N.3   199  MET199     -0.1245
    127  CA        18.8020   -9.1060    0.6970 C.3   199  MET199      0.1570
    128  C         19.2030   -8.3360   -0.5630 C.2   199  MET199      0.2261
    129  O         19.2890   -8.9210   -1.6330 O.2   199  MET199     -0.2867
    130  CB        17.4880   -9.8590    0.4950 C.3   199  MET199      0.0387
    131  CG        17.4120  -11.1150    1.3730 C.3   199  MET199      0.0595
    132  SD        15.7410  -11.4840    1.8780 S.3   199  MET199     -0.1393
    133  CE        15.9710  -13.0010    2.8040 C.3   199  MET199      0.0692
@<TRIPOS>BOND
     1   114   113    2
     2   110   108    1
     3   104   105    1
     4   113   112    1
     5   105   108    1
     6   105   106    1
     7   108   109    1
     8   112   115    1
     9   112   111    1
    10    99    98    2
    11    98    97    1
    12    82    81    2
    13   106   111   am
    14   106   107    2
    15   115   116    1
    16   111   117    1
    17   129   128    2
    18    81    80    1
    19    83    80    1
    20    83    84    1
    21    97    96    1
    22    97   100    1
    23   116   117    1
    24    80    79    1
    25   128   127    1
    26    84    85    1
    27    96    90   am
    28   118   119    1
    29   100   101    1
    30    91    90    2
    31   124   123    1
    32    90    89    1
    33    85    86    1
    34   123   122    1
    35   123   125    1
    36   121   120    2
    37   130   127    1
    38   130   131    1
    39    79    67   am
    40   127   126    1
    41   122   119    1
    42    88    89    1
    43    89    92    1
    44   119   120    1
    45    68    67    2
    46   101   103   am
    47   101   102    2
    48    46    45    1
    49   131   132    1
    50    86    87    1
    51    45    44    1
    52    67    66    1
    53    94    93   ar
    54   132   133    1
    55    92    93    1
    56    93    95   ar
    57    44    43    1
    58    43    42    1
    59    66    69    1
    60    66    65    1
    61    63    64   ar
    62    63    61   ar
    63    69    70    1
    64    58    57    2
    65    64    62   ar
    66    61    60   ar
    67    65    57   am
    68    57    56    1
    69    42    39    1
    70    39    38    1
    71    39    40    1
    72    47    48    1
    73    70    71   ar
    74    70    72   ar
    75    48    49    1
    76    48    51    1
    77    62    60   ar
    78    60    59    1
    79    55    49   am
    80    55    56    1
    81    53    52   ar
    82    41    40    2
    83    71    73   ar
    84    49    50    2
    85    56    59    1
    86    75    72   ar
    87    75    77   ar
    88    72    74   ar
    89    51    52    1
    90    52    54   ar
    91    12    14   ar
    92    12    10   ar
    93    37    35    1
    94    14    13   ar
    95    34    33    2
    96    73    74   ar
    97     9    10   ar
    98     9     7   ar
    99    77    78   ar
   100    10     8   ar
   101    74    76   ar
   102    13    11   ar
   103     7     6   ar
   104     8    11   ar
   105     8     6   ar
   106    33    32    1
   107    32    35    1
   108    32    31    1
   109    35    36    1
   110    78    76   ar
   111    19    16    1
   112    19    20    1
   113     6     5    1
   114    21    20    1
   115    21    22    1
   116    26    25    2
   117    16    17    1
   118    16    15    1
   119    18    17    2
   120    31    25   am
   121    17    23   am
   122     5     2    1
   123    25    24    1
   124    23    24    1
   125    24    27    1
   126     2     3    1
   127     2     1    1
   128     3     4    2
   129    27    28    1
   130    28    29    2
   131    28    30   am
