@<TRIPOS>MOLECULE
tmp/5pa8B00.pdb
 87 85 0 0 0
SMALL
GASTEIGER

@<TRIPOS>ATOM
      1  N         15.7850   31.8150   33.8560 N.3   182  ASP182     -0.1225
      2  CA        14.6840   31.8030   32.8920 C.3   182  ASP182      0.1805
      3  C         15.1800   32.2650   31.5070 C.2   182  ASP182      0.2598
      4  O         16.2550   32.8540   31.3720 O.2   182  ASP182     -0.2718
      5  CB        13.5480   32.7290   33.3840 C.3   182  ASP182      0.1424
      6  CG        12.1790   32.4300   32.7400 C.2   182  ASP182      0.3668
      7  OD1       12.0390   31.4570   31.9760 O.co2 182  ASP182     -0.2456
      8  OD2       11.2230   33.2080   32.9870 O.co2 182  ASP182     -0.2456
      9  N         14.3980   31.9730   30.4820 N.am  183  SER183     -0.1938
     10  CA        14.5270   32.6660   29.2130 C.3   183  SER183      0.2055
     11  C         13.7070   33.9460   29.3260 C.2   183  SER183      0.2643
     12  O         12.7690   34.0410   30.1500 O.2   183  SER183     -0.2714
     13  CB        14.0540   31.8090   28.0440 C.3   183  SER183      0.2130
     14  OG        12.7620   31.2990   28.3010 O.3   183  SER183     -0.2179
     15  N         14.0640   34.9290   28.5060 N.am  184  CYS184     -0.1953
     16  CA        13.5490   36.2960   28.6760 C.3   184  CYS184      0.1843
     17  C         13.2750   36.9640   27.3330 C.2   184  CYS184      0.2625
     18  O         13.4630   36.3590   26.2800 O.2   184  CYS184     -0.2714
     19  CB        14.5650   37.1260   29.4690 C.3   184  CYS184      0.0997
     20  SG        13.8470   38.5730   30.3480 S.3   184  CYS184     -0.0797
     21  N         12.8220   38.2140   27.3670 N.am  185  LYS185     -0.1977
     22  CA        12.4750   38.9090   26.1290 C.3   185  LYS185      0.1596
     23  C         13.6700   38.9640   25.1870 C.2   185  LYS185      0.2287
     24  O         14.7850   39.2670   25.6070 O.2   185  LYS185     -0.2864
     25  CB        11.9720   40.3320   26.4080 C.3   185  LYS185      0.0298
     26  CG        10.5380   40.4040   26.9360 C.3   185  LYS185      0.0038
     27  CD        10.0420   41.8530   27.1230 C.3   185  LYS185      0.0206
     28  CE        10.3200   42.7580   25.9020 C.3   185  LYS185      0.1093
     29  NZ         9.6230   44.1070   25.9880 N.3   185  LYS185     -0.1314
     30  N         12.7940   34.6270   22.6570 N.3   188  SER188     -0.1217
     31  CA        11.6650   34.0240   21.9450 C.3   188  SER188      0.1889
     32  C         12.0620   33.4400   20.5920 C.2   188  SER188      0.2288
     33  O         12.8170   34.0650   19.8210 O.2   188  SER188     -0.2866
     34  CB        10.5530   35.0570   21.7310 C.3   188  SER188      0.2089
     35  OG         9.8260   35.2880   22.9290 O.3   188  SER188     -0.2183
     36  N         11.3080   28.6480   22.7860 N.3   206  VAL206     -0.1231
     37  CA        11.0620   29.7740   23.7280 C.3   206  VAL206      0.1692
     38  C          9.8030   30.5440   23.3030 C.2   206  VAL206      0.2593
     39  O          9.7450   31.1280   22.2090 O.2   206  VAL206     -0.2718
     40  CB        12.2700   30.7210   23.8110 C.3   206  VAL206      0.0266
     41  CG1       11.9960   31.9050   24.7720 C.3   206  VAL206      0.0020
     42  CG2       13.5270   29.9590   24.2270 C.3   206  VAL206      0.0020
     43  N          8.7880   30.5410   24.1610 N.am  207  SER207     -0.1938
     44  CA         7.4680   31.0220   23.7620 C.3   207  SER207      0.2055
     45  C          6.9420   32.1440   24.6540 C.2   207  SER207      0.2643
     46  O          6.8880   33.2890   24.2220 O.2   207  SER207     -0.2714
     47  CB         6.4690   29.8620   23.7100 C.3   207  SER207      0.2130
     48  OG         5.1980   30.3360   23.2960 O.3   207  SER207     -0.2179
     49  N          6.5880   31.8380   25.8930 N.am  208  TRP208     -0.1959
     50  CA         6.0440   32.8810   26.7740 C.3   208  TRP208      0.1771
     51  C          6.2230   32.6050   28.2610 C.2   208  TRP208      0.2620
     52  O          6.7470   31.5690   28.6700 O.2   208  TRP208     -0.2715
     53  CB         4.5610   33.1170   26.4600 C.3   208  TRP208      0.0590
     54  CG         3.6840   31.9510   26.7400 C.ar  208  TRP208      0.0006
     55  CD1        3.4990   30.8650   25.9480 C.ar  208  TRP208      0.0946
     56  CD2        2.8580   31.7520   27.8970 C.ar  208  TRP208      0.0152
     57  NE1        2.6210   29.9930   26.5310 N.ar  208  TRP208     -0.2442
     58  CE2        2.2050   30.5160   27.7310 C.ar  208  TRP208      0.0810
     59  CE3        2.5990   32.5080   29.0460 C.ar  208  TRP208      0.0012
     60  CZ2        1.2960   30.0180   28.6660 C.ar  208  TRP208      0.0191
     61  CZ3        1.7140   32.0040   29.9880 C.ar  208  TRP208      0.0001
     62  CH2        1.0770   30.7680   29.7970 C.ar  208  TRP208      0.0015
     63  N          5.8030   33.5830   29.0600 N.am  209  GLY209     -0.1954
     64  CA         5.6870   33.4140   30.4940 C.3   209  GLY209      0.1869
     65  C          5.0490   34.6350   31.1430 C.2   209  GLY209      0.2309
     66  O          4.7160   35.6110   30.4660 O.2   209  GLY209     -0.2863
     67  N          6.0330   37.3360   32.6100 N.3   211  GLY211     -0.1210
     68  CA         7.2720   38.0940   32.7530 C.3   211  GLY211      0.1956
     69  C          8.4410   37.1290   32.7200 C.2   211  GLY211      0.2612
     70  O          8.2560   35.9140   32.4770 O.2   211  GLY211     -0.2717
     71  N          9.6380   37.6350   33.0030 N.am  212  CYS212     -0.1970
     72  CA        10.8920   36.8620   32.9990 C.3   212  CYS212      0.1712
     73  C         11.3930   36.6160   34.3920 C.2   212  CYS212      0.2296
     74  O         11.5310   37.5820   35.1440 O.2   212  CYS212     -0.2864
     75  CB        12.0150   37.6680   32.3750 C.3   212  CYS212      0.0983
     76  SG        11.8960   38.1050   30.7070 S.3   212  CYS212     -0.0798
     77  N          9.0420   29.3110   32.8780 N.3   219  GLY219     -0.1210
     78  CA         9.0160   29.5400   31.4310 C.3   219  GLY219      0.1956
     79  C          8.0840   28.5710   30.7260 C.2   219  GLY219      0.2611
     80  O          7.9400   27.4090   31.1360 O.2   219  GLY219     -0.2717
     81  N          7.4060   29.0660   29.6960 N.am  220  VAL220     -0.1979
     82  CA         6.5500   28.2290   28.8640 C.3   220  VAL220      0.1595
     83  C          7.1370   28.1060   27.4520 C.2   220  VAL220      0.2287
     84  O          7.5800   29.0990   26.8350 O.2   220  VAL220     -0.2864
     85  CB         5.0800   28.7220   28.8270 C.3   220  VAL220      0.0276
     86  CG1        4.1790   27.6630   28.1730 C.3   220  VAL220      0.0022
     87  CG2        4.5750   29.0240   30.2500 C.3   220  VAL220      0.0022
@<TRIPOS>BOND
     1    33    32    2
     2    32    31    1
     3    34    31    1
     4    34    35    1
     5    31    30    1
     6    39    38    2
     7    36    37    1
     8    48    47    1
     9    38    37    1
    10    38    43   am
    11    47    44    1
    12    37    40    1
    13    44    43    1
    14    44    45    1
    15    40    42    1
    16    40    41    1
    17    46    45    2
    18    45    49   am
    19    23    24    2
    20    23    22    1
    21    49    50    1
    22    28    29    1
    23    28    27    1
    24    55    57   ar
    25    55    54   ar
    26    22    25    1
    27    22    21    1
    28    18    17    2
    29    25    26    1
    30    53    54    1
    31    53    50    1
    32    57    58   ar
    33    54    56   ar
    34    50    51    1
    35    84    83    2
    36    26    27    1
    37    17    21   am
    38    17    16    1
    39    83    82    1
    40    58    56   ar
    41    58    60   ar
    42    56    59   ar
    43    13    14    1
    44    13    10    1
    45    86    85    1
    46    51    52    2
    47    51    63   am
    48    15    16    1
    49    15    11   am
    50    60    62   ar
    51    16    19    1
    52    85    82    1
    53    85    87    1
    54    82    81    1
    55    59    61   ar
    56    63    64    1
    57    10    11    1
    58    10     9    1
    59    11    12    2
    60    19    20    1
    61    81    79   am
    62    62    61   ar
    63    20    76    1
    64    66    65    2
    65     9     3   am
    66    64    65    1
    67    76    75    1
    68    79    80    2
    69    79    78    1
    70     4     3    2
    71    78    77    1
    72     3     2    1
    73     7     6   ar
    74    75    72    1
    75    70    69    2
    76    67    68    1
    77    69    68    1
    78    69    71   am
    79     6     8   ar
    80     6     5    1
    81     2     5    1
    82     2     1    1
    83    72    71    1
    84    72    73    1
    85    73    74    2
