@<TRIPOS>MOLECULE
tmp/5paaB00.pdb
 97 95 0 0 0
SMALL
GASTEIGER

@<TRIPOS>ATOM
      1  N          4.8000   33.9930   17.4900 N.3    41  HIS41      -0.1241
      2  CA         4.5520   35.3240   18.0670 C.3    41  HIS41       0.1621
      3  C          5.6170   36.3630   17.6620 C.2    41  HIS41       0.2264
      4  O          5.3400   37.5530   17.6740 O.2    41  HIS41      -0.2867
      5  CB         4.3410   35.2350   19.5930 C.3    41  HIS41       0.0745
      6  CG         5.5990   35.2090   20.4080 C.ar   41  HIS41       0.0817
      7  ND1        6.0880   34.0620   20.9970 N.ar   41  HIS41      -0.2268
      8  CD2        6.4340   36.2080   20.7790 C.ar   41  HIS41       0.1154
      9  CE1        7.1940   34.3500   21.6560 C.ar   41  HIS41       0.1986
     10  NE2        7.4230   35.6450   21.5400 N.ar   41  HIS41      -0.2212
     11  N         15.7810   31.8360   33.8260 N.3   182  ASP182     -0.1225
     12  CA        14.7060   31.8020   32.8430 C.3   182  ASP182      0.1805
     13  C         15.1850   32.2940   31.4730 C.2   182  ASP182      0.2598
     14  O         16.2300   32.9510   31.3460 O.2   182  ASP182     -0.2718
     15  CB        13.5410   32.6910   33.3250 C.3   182  ASP182      0.1424
     16  CG        12.1990   32.3570   32.6700 C.2   182  ASP182      0.3668
     17  OD1       12.0830   31.3300   31.9480 O.co2 182  ASP182     -0.2456
     18  OD2       11.2350   33.1490   32.8910 O.co2 182  ASP182     -0.2456
     19  N         14.3950   31.9820   30.4550 N.am  183  SER183     -0.1938
     20  CA        14.5060   32.6440   29.1550 C.3   183  SER183      0.2055
     21  C         13.7390   33.9700   29.2730 C.2   183  SER183      0.2643
     22  O         12.8300   34.0920   30.1050 O.2   183  SER183     -0.2714
     23  CB        13.9430   31.7530   28.0520 C.3   183  SER183      0.2130
     24  OG        12.6100   31.3820   28.3590 O.3   183  SER183     -0.2179
     25  N         14.1390   34.9710   28.4890 N.am  184  CYS184     -0.1953
     26  CA        13.6010   36.3400   28.6370 C.3   184  CYS184      0.1843
     27  C         13.3160   36.9730   27.2860 C.2   184  CYS184      0.2625
     28  O         13.5270   36.3360   26.2450 O.2   184  CYS184     -0.2714
     29  CB        14.6060   37.2090   29.4060 C.3   184  CYS184      0.0997
     30  SG        13.9040   38.7010   30.2430 S.3   184  CYS184     -0.0797
     31  N         12.8670   38.2330   27.2800 N.am  185  LYS185     -0.1977
     32  CA        12.5350   38.8740   26.0060 C.3   185  LYS185      0.1596
     33  C         13.7660   38.8830   25.1290 C.2   185  LYS185      0.2287
     34  O         14.8670   39.0770   25.6170 O.2   185  LYS185     -0.2864
     35  CB        12.0190   40.3100   26.1800 C.3   185  LYS185      0.0298
     36  CG        10.6510   40.4070   26.8270 C.3   185  LYS185      0.0038
     37  CD        10.2180   41.8680   27.0460 C.3   185  LYS185      0.0206
     38  CE        10.3450   42.7380   25.7790 C.3   185  LYS185      0.1093
     39  NZ         9.7040   44.1330   25.9530 N.3   185  LYS185     -0.1314
     40  N         12.8380   34.6200   22.6170 N.3   188  SER188     -0.1217
     41  CA        11.6930   34.0240   21.9270 C.3   188  SER188      0.1889
     42  C         12.1070   33.3940   20.6080 C.2   188  SER188      0.2288
     43  O         12.8820   33.9960   19.8490 O.2   188  SER188     -0.2866
     44  CB        10.6370   35.0880   21.6250 C.3   188  SER188      0.2089
     45  OG         9.9610   35.4930   22.8060 O.3   188  SER188     -0.2183
     46  N         11.3350   28.6440   22.7650 N.3   206  VAL206     -0.1231
     47  CA        11.0940   29.7120   23.7600 C.3   206  VAL206      0.1692
     48  C          9.7940   30.4400   23.3810 C.2   206  VAL206      0.2593
     49  O          9.7050   31.0390   22.3120 O.2   206  VAL206     -0.2718
     50  CB        12.2590   30.7180   23.8560 C.3   206  VAL206      0.0266
     51  CG1       11.9250   31.8850   24.8520 C.3   206  VAL206      0.0020
     52  CG2       13.5580   30.0230   24.2320 C.3   206  VAL206      0.0020
     53  N          8.7760   30.3370   24.2250 N.am  207  SER207     -0.1938
     54  CA         7.4540   30.8490   23.8700 C.3   207  SER207      0.2055
     55  C          6.9570   32.0120   24.7360 C.2   207  SER207      0.2643
     56  O          6.7880   33.1140   24.2500 O.2   207  SER207     -0.2714
     57  CB         6.4270   29.7160   23.8760 C.3   207  SER207      0.2130
     58  OG         5.2130   30.1680   23.3060 O.3   207  SER207     -0.2179
     59  N          6.7070   31.7690   26.0060 N.am  208  TRP208     -0.1959
     60  CA         6.1030   32.7930   26.8550 C.3   208  TRP208      0.1771
     61  C          6.2200   32.4910   28.3440 C.2   208  TRP208      0.2620
     62  O          6.8140   31.4840   28.7710 O.2   208  TRP208     -0.2715
     63  CB         4.6310   33.0090   26.4830 C.3   208  TRP208      0.0590
     64  CG         3.7090   31.8460   26.7580 C.ar  208  TRP208      0.0006
     65  CD1        3.4760   30.7710   25.9400 C.ar  208  TRP208      0.0946
     66  CD2        2.8670   31.6650   27.9050 C.ar  208  TRP208      0.0152
     67  NE1        2.5530   29.9270   26.5120 N.ar  208  TRP208     -0.2442
     68  CE2        2.1600   30.4510   27.7180 C.ar  208  TRP208      0.0810
     69  CE3        2.6380   32.4090   29.0710 C.ar  208  TRP208      0.0012
     70  CZ2        1.2310   29.9700   28.6520 C.ar  208  TRP208      0.0191
     71  CZ3        1.7280   31.9200   30.0060 C.ar  208  TRP208      0.0001
     72  CH2        1.0430   30.7100   29.7930 C.ar  208  TRP208      0.0015
     73  N          5.6940   33.4290   29.1250 N.am  209  GLY209     -0.1954
     74  CA         5.5130   33.2510   30.5610 C.3   209  GLY209      0.1869
     75  C          4.9850   34.5310   31.1830 C.2   209  GLY209      0.2309
     76  O          4.7280   35.5120   30.4800 O.2   209  GLY209     -0.2863
     77  N          5.9810   37.4070   32.5430 N.3   211  GLY211     -0.1210
     78  CA         7.2450   38.1440   32.5720 C.3   211  GLY211      0.1956
     79  C          8.4320   37.1960   32.5730 C.2   211  GLY211      0.2612
     80  O          8.2860   36.0040   32.2620 O.2   211  GLY211     -0.2717
     81  N          9.5990   37.7120   32.9520 N.am  212  CYS212     -0.1970
     82  CA        10.8880   36.9880   32.8950 C.3   212  CYS212      0.1712
     83  C         11.3980   36.6840   34.2730 C.2   212  CYS212      0.2296
     84  O         11.6020   37.6160   35.0360 O.2   212  CYS212     -0.2864
     85  CB        11.9890   37.8670   32.3110 C.3   212  CYS212      0.0983
     86  SG        11.9390   38.2780   30.6180 S.3   212  CYS212     -0.0798
     87  N          9.0380   29.1570   32.8830 N.3   219  GLY219     -0.1210
     88  CA         9.0310   29.3920   31.4370 C.3   219  GLY219      0.1956
     89  C          8.1470   28.3880   30.7210 C.2   219  GLY219      0.2611
     90  O          8.0880   27.2300   31.1060 O.2   219  GLY219     -0.2717
     91  N          7.4280   28.8630   29.7130 N.am  220  VAL220     -0.1979
     92  CA         6.5790   28.0240   28.8740 C.3   220  VAL220      0.1595
     93  C          7.1930   27.9150   27.4780 C.2   220  VAL220      0.2287
     94  O          7.6820   28.9080   26.8960 O.2   220  VAL220     -0.2864
     95  CB         5.1450   28.5800   28.7690 C.3   220  VAL220      0.0276
     96  CG1        4.2310   27.5930   28.0170 C.3   220  VAL220      0.0022
     97  CG2        4.5860   28.8560   30.1600 C.3   220  VAL220      0.0022
@<TRIPOS>BOND
     1     1     2    1
     2     3     4    2
     3     3     2    1
     4     2     5    1
     5     5     6    1
     6    43    42    2
     7     6     8   ar
     8     6     7   ar
     9    42    41    1
    10     8    10   ar
    11     7     9   ar
    12    10     9   ar
    13    44    41    1
    14    44    45    1
    15    41    40    1
    16    49    48    2
    17    46    47    1
    18    58    57    1
    19    48    47    1
    20    48    53   am
    21    47    50    1
    22    50    52    1
    23    50    51    1
    24    54    57    1
    25    54    53    1
    26    54    55    1
    27    56    55    2
    28    55    59   am
    29    33    34    2
    30    33    32    1
    31    38    39    1
    32    38    37    1
    33    65    67   ar
    34    65    64   ar
    35    59    60    1
    36    32    35    1
    37    32    31    1
    38    35    36    1
    39    28    27    2
    40    63    64    1
    41    63    60    1
    42    67    68   ar
    43    64    66   ar
    44    36    37    1
    45    60    61    1
    46    94    93    2
    47    31    27   am
    48    27    26    1
    49    93    92    1
    50    68    66   ar
    51    68    70   ar
    52    66    69   ar
    53    96    95    1
    54    23    24    1
    55    23    20    1
    56    61    62    2
    57    61    73   am
    58    25    26    1
    59    25    21   am
    60    26    29    1
    61    70    72   ar
    62    95    92    1
    63    95    97    1
    64    92    91    1
    65    69    71   ar
    66    73    74    1
    67    20    21    1
    68    20    19    1
    69    21    22    2
    70    29    30    1
    71    91    89   am
    72    72    71   ar
    73    30    86    1
    74    19    13   am
    75    76    75    2
    76    74    75    1
    77    86    85    1
    78    89    90    2
    79    89    88    1
    80    14    13    2
    81    88    87    1
    82    13    12    1
    83    17    16   ar
    84    80    79    2
    85    85    82    1
    86    77    78    1
    87    78    79    1
    88    79    81   am
    89    16    18   ar
    90    16    15    1
    91    12    15    1
    92    12    11    1
    93    82    81    1
    94    82    83    1
    95    83    84    2
