@<TRIPOS>MOLECULE
tmp/5pabA00.pdb
 154 152 0 0 0
SMALL
GASTEIGER

@<TRIPOS>ATOM
      1  N         54.5650   15.4010   45.5750 N.3    25  LEU25      -0.1231
      2  CA        54.8930   13.9750   45.6550 C.3    25  LEU25       0.1693
      3  C         56.0650   13.7220   46.6080 C.2    25  LEU25       0.2592
      4  O         55.9930   12.8980   47.5210 O.2    25  LEU25      -0.2718
      5  CB        55.3080   13.4700   44.2900 C.3    25  LEU25       0.0284
      6  CG        55.6910   11.9990   44.2350 C.3    25  LEU25       0.0019
      7  CD1       54.5000   11.0660   44.5280 C.3    25  LEU25       0.0001
      8  CD2       56.2740   11.7400   42.8680 C.3    25  LEU25       0.0001
      9  N         57.1620   14.4020   46.3440 N.am   26  CYS26      -0.1970
     10  CA        58.4560   14.0820   46.9560 C.3    26  CYS26       0.1712
     11  C         59.4250   15.2150   46.7080 C.2    26  CYS26       0.2296
     12  O         59.1470   16.1490   45.9430 O.2    26  CYS26      -0.2864
     13  CB        59.0210   12.7700   46.3760 C.3    26  CYS26       0.0983
     14  SG        58.5150   11.2430   47.2560 S.3    26  CYS26      -0.0798
     15  N         60.8950    4.9240   46.1630 N.3    41  HIS41      -0.1226
     16  CA        59.5120    4.6270   46.6450 C.3    41  HIS41       0.1752
     17  C         58.5390    5.7180   46.2730 C.2    41  HIS41       0.2596
     18  O         57.3220    5.4840   46.1810 O.2    41  HIS41      -0.2718
     19  CB        59.4950    4.2920   48.1410 C.3    41  HIS41       0.0759
     20  CG        59.4190    5.4840   49.0420 C.ar   41  HIS41       0.0818
     21  ND1       60.4910    5.9180   49.7950 N.ar   41  HIS41      -0.2268
     22  CD2       58.3860    6.2990   49.3510 C.ar   41  HIS41       0.1154
     23  CE1       60.1240    6.9600   50.5150 C.ar   41  HIS41       0.1986
     24  NE2       58.8600    7.2300   50.2390 N.ar   41  HIS41      -0.2212
     25  N         59.0710    6.9170   46.0100 N.am   42  CYS42      -0.1970
     26  CA        58.2600    8.0290   45.4930 C.3    42  CYS42       0.1712
     27  C         57.4680    7.6650   44.2630 C.2    42  CYS42       0.2296
     28  O         56.4890    8.3390   43.9480 O.2    42  CYS42      -0.2864
     29  CB        59.1650    9.2520   45.1510 C.3    42  CYS42       0.0983
     30  SG        59.9540    9.9530   46.5970 S.3    42  CYS42      -0.0798
     31  N         56.4830    4.3240   43.3000 N.3    44  ASP44      -0.1225
     32  CA        55.8230    2.9960   43.3450 C.3    44  ASP44       0.1805
     33  C         54.3790    2.9820   42.7830 C.2    44  ASP44       0.2597
     34  O         53.9760    1.9540   42.2330 O.2    44  ASP44      -0.2718
     35  CB        55.6930    2.4440   44.7630 C.3    44  ASP44       0.1424
     36  CG        57.0020    2.0870   45.4280 C.2    44  ASP44       0.3668
     37  OD1       58.0320    1.9240   44.7620 O.co2  44  ASP44      -0.2456
     38  OD2       56.9790    1.9750   46.6840 O.co2  44  ASP44      -0.2456
     39  N         53.6400    4.1030   42.8790 N.am   45  LYS45      -0.1979
     40  CA        52.1970    4.1530   42.5660 C.3    45  LYS45       0.1596
     41  C         51.8690    5.0100   41.3380 C.2    45  LYS45       0.2287
     42  O         50.7160    5.2280   41.0480 O.2    45  LYS45      -0.2864
     43  CB        51.4020    4.6880   43.7810 C.3    45  LYS45       0.0298
     44  CG        51.4890    3.8480   45.0590 C.3    45  LYS45       0.0038
     45  CD        50.3120    2.8900   45.2360 C.3    45  LYS45       0.0206
     46  CE        50.5380    1.8330   46.3220 C.3    45  LYS45       0.1093
     47  NZ        50.6030    2.3960   47.7010 N.3    45  LYS45      -0.1314
     48  N         59.3880   -2.5410   45.4640 N.3    84  PRO84      -0.2102
     49  CA        58.4310   -1.5170   45.8710 C.3    84  PRO84       0.1504
     50  C         57.8710   -1.6960   47.2660 C.2    84  PRO84       0.2576
     51  O         57.6000   -2.8290   47.6840 O.2    84  PRO84      -0.2718
     52  CB        57.3220   -1.6520   44.8390 C.3    84  PRO84       0.0282
     53  CG        58.0300   -2.1010   43.6030 C.3    84  PRO84       0.0208
     54  CD        59.1660   -2.9690   44.0650 C.3    84  PRO84       0.0893
     55  N         57.7090   -0.5890   47.9780 N.am   85  GLY85      -0.1957
     56  CA        57.1620   -0.6140   49.3200 C.3    85  GLY85       0.1869
     57  C         58.1540   -0.8940   50.4200 C.2    85  GLY85       0.2309
     58  O         57.7450   -1.0270   51.5510 O.2    85  GLY85      -0.2863
     59  N         63.6090   15.6530   62.9230 N.3   179  ASP179     -0.1225
     60  CA        63.6680   14.5920   61.9200 C.3   179  ASP179      0.1805
     61  C         63.1910   15.0860   60.5560 C.2   179  ASP179      0.2598
     62  O         62.5760   16.1510   60.4300 O.2   179  ASP179     -0.2718
     63  CB        62.7910   13.4010   62.3360 C.3   179  ASP179      0.1424
     64  CG        63.1830   12.0920   61.6570 C.2   179  ASP179      0.3668
     65  OD1       64.2110   12.0190   60.9130 O.co2 179  ASP179     -0.2456
     66  OD2       62.4250   11.1110   61.8590 O.co2 179  ASP179     -0.2456
     67  N         63.4980   14.3100   59.5200 N.am  180  SER180     -0.1938
     68  CA        62.8220   14.4690   58.2400 C.3   180  SER180      0.2055
     69  C         61.5190   13.6540   58.3650 C.2   180  SER180      0.2643
     70  O         61.3890   12.7960   59.2630 O.2   180  SER180     -0.2714
     71  CB        63.6900   13.9560   57.1100 C.3   180  SER180      0.2130
     72  OG        64.0290   12.6080   57.3650 O.3   180  SER180     -0.2179
     73  N         60.5590   13.9420   57.4950 N.am  181  CYS181     -0.1953
     74  CA        59.1670   13.4470   57.6820 C.3   181  CYS181      0.1843
     75  C         58.5130   13.1110   56.3590 C.2   181  CYS181      0.2625
     76  O         59.0490   13.4280   55.2860 O.2   181  CYS181     -0.2714
     77  CB        58.3450   14.5090   58.4710 C.3   181  CYS181      0.0997
     78  SG        56.8680   13.8190   59.2720 S.3   181  CYS181     -0.0797
     79  N         57.3310   12.4970   56.4020 N.am  182  LYS182     -0.1963
     80  CA        56.5800   12.2440   55.1760 C.3   182  LYS182      0.1728
     81  C         56.4020   13.5760   54.3950 C.2   182  LYS182      0.2616
     82  O         56.1110   14.6200   54.9770 O.2   182  LYS182     -0.2715
     83  CB        55.2310   11.6020   55.4870 C.3   182  LYS182      0.0311
     84  CG        54.3320   11.4020   54.2890 C.3   182  LYS182      0.0038
     85  CD        53.0940   10.6240   54.7380 C.3   182  LYS182      0.0206
     86  CE        52.1340   10.3790   53.6000 C.3   182  LYS182      0.1093
     87  NZ        50.9000    9.7520   54.1680 N.3   182  LYS182     -0.1314
     88  N         56.6200   13.5150   53.0890 N.am  183  GLY183     -0.1955
     89  CA        56.6630   14.6980   52.2340 C.3   183  GLY183      0.1869
     90  C         58.0950   15.1290   51.8640 C.2   183  GLY183      0.2309
     91  O         58.2960   15.8290   50.8710 O.2   183  GLY183     -0.2863
     92  N         60.6590   12.7830   51.5850 N.3   185  SER185     -0.1217
     93  CA        61.3610   11.6900   50.9050 C.3   185  SER185      0.1889
     94  C         61.8680   12.1190   49.5420 C.2   185  SER185      0.2288
     95  O         61.1960   12.8770   48.7980 O.2   185  SER185     -0.2866
     96  CB        60.4950   10.4270   50.7610 C.3   185  SER185      0.2089
     97  OG        60.2750    9.8670   52.0390 O.3   185  SER185     -0.2183
     98  N         66.6670   11.2180   51.7100 N.3   203  VAL203     -0.1231
     99  CA        65.5760   10.9490   52.6770 C.3   203  VAL203      0.1692
    100  C         64.7780    9.7300   52.1920 C.2   203  VAL203      0.2593
    101  O         64.2150    9.7280   51.1100 O.2   203  VAL203     -0.2718
    102  CB        64.6130   12.1160   52.8500 C.3   203  VAL203      0.0266
    103  CG1       63.5010   11.7430   53.8310 C.3   203  VAL203      0.0020
    104  CG2       65.3250   13.3830   53.3160 C.3   203  VAL203      0.0020
    105  N         64.7430    8.6810   52.9850 N.am  204  SER204     -0.1938
    106  CA        64.0390    7.4790   52.5610 C.3   204  SER204      0.2055
    107  C         62.7290    7.4330   53.3340 C.2   204  SER204      0.2643
    108  O         61.9780    8.3920   53.3210 O.2   204  SER204     -0.2714
    109  CB        64.9650    6.2570   52.7580 C.3   204  SER204      0.2130
    110  OG        64.3460    4.9970   52.4280 O.3   204  SER204     -0.2179
    111  N         62.4530    6.3360   54.0030 N.am  205  TRP205     -0.1959
    112  CA        61.2440    6.2230   54.8370 C.3   205  TRP205      0.1771
    113  C         61.4020    5.0460   55.7920 C.2   205  TRP205      0.2620
    114  O         62.4040    4.3220   55.7010 O.2   205  TRP205     -0.2715
    115  CB        59.9730    6.1070   53.9910 C.3   205  TRP205      0.0590
    116  CG        59.8770    4.9530   53.0500 C.ar  205  TRP205      0.0006
    117  CD1       60.8910    4.1640   52.5900 C.ar  205  TRP205      0.0946
    118  CD2       58.6890    4.4800   52.4150 C.ar  205  TRP205      0.0152
    119  NE1       60.3990    3.2250   51.7180 N.ar  205  TRP205     -0.2442
    120  CE2       59.0560    3.3950   51.5870 C.ar  205  TRP205      0.0810
    121  CE3       57.3520    4.8810   52.4440 C.ar  205  TRP205      0.0012
    122  CZ2       58.1360    2.6990   50.8090 C.ar  205  TRP205      0.0191
    123  CZ3       56.4350    4.1830   51.6810 C.ar  205  TRP205      0.0001
    124  CH2       56.8270    3.1160   50.8640 C.ar  205  TRP205      0.0015
    125  N         60.4740    5.0760   56.7660 N.am  206  GLY206     -0.1940
    126  CA        60.2760    4.1590   57.8970 C.3   206  GLY206      0.2014
    127  C         58.9800    4.6130   58.6040 C.2   206  GLY206      0.2639
    128  O         58.3790    5.6200   58.2480 O.2   206  GLY206     -0.2714
    129  N         58.5130    3.8600   59.5960 N.am  207  GLN207     -0.1963
    130  CA        57.3370    4.2940   60.3510 C.3   207  GLN207      0.1733
    131  C         57.6560    5.6250   61.0470 C.2   207  GLN207      0.2617
    132  O         56.7540    6.3230   61.5090 O.2   207  GLN207     -0.2715
    133  CB        56.9360    3.2370   61.3810 C.3   207  GLN207      0.0408
    134  CG        57.0150    1.8130   60.8670 C.3   207  GLN207      0.0908
    135  CD        56.4940    1.6810   59.4520 C.2   207  GLN207      0.2608
    136  OE1       57.2550    1.7820   58.4900 O.2   207  GLN207     -0.2717
    137  NE2       55.1950    1.4700   59.3150 N.am  207  GLN207     -0.0878
    138  N         58.9460    5.9960   61.0330 N.am  208  GLY208     -0.1940
    139  CA        59.5050    7.0790   61.8750 C.3   208  GLY208      0.2014
    140  C         59.5860    8.5150   61.3560 C.2   208  GLY208      0.2639
    141  O         60.5110    8.8680   60.5980 O.2   208  GLY208     -0.2714
    142  N         58.6100    9.3310   61.8010 N.am  209  CYS209     -0.1967
    143  CA        58.6580   10.8080   61.7570 C.3   209  CYS209      0.1712
    144  C         58.8270   11.4100   63.1430 C.2   209  CYS209      0.2296
    145  O         57.8530   11.6120   63.8640 O.2   209  CYS209     -0.2864
    146  CB        57.4040   11.3810   61.1050 C.3   209  CYS209      0.0983
    147  SG        57.4380   13.1930   61.1550 S.3   209  CYS209     -0.0798
    148  N         66.2140    7.4250   58.7050 N.3   217  VAL217     -0.1245
    149  CA        66.9470    6.5240   57.8200 C.3   217  VAL217      0.1561
    150  C         67.1350    7.1500   56.4310 C.2   217  VAL217      0.2260
    151  O         66.1720    7.6930   55.8360 O.2   217  VAL217     -0.2867
    152  CB        66.3350    5.1190   57.7400 C.3   217  VAL217      0.0252
    153  CG1       64.9680    5.1060   57.1030 C.3   217  VAL217      0.0019
    154  CG2       67.2510    4.1920   56.9580 C.3   217  VAL217      0.0019
@<TRIPOS>BOND
     1    42    41    2
     2    41    40    1
     3    34    33    2
     4    40    39    1
     5    40    43    1
     6    33    39   am
     7    33    32    1
     8     8     6    1
     9    31    32    1
    10    32    35    1
    11    53    54    1
    12    53    52    1
    13    43    44    1
    14    28    27    2
    15    54    48    1
    16     6     5    1
    17     6     7    1
    18    27    26    1
    19     5     2    1
    20    37    36   ar
    21    35    36    1
    22    52    49    1
    23    44    45    1
    24    29    26    1
    25    29    30    1
    26    45    46    1
    27    36    38   ar
    28    48    49    1
    29    26    25    1
    30     1     2    1
    31     2     3    1
    32    49    50    1
    33    12    11    2
    34    25    17   am
    35    15    16    1
    36    18    17    2
    37    17    16    1
    38    46    47    1
    39     9     3   am
    40     9    10    1
    41    13    10    1
    42    13    14    1
    43    30    14    1
    44     3     4    2
    45    16    19    1
    46    11    10    1
    47    50    51    2
    48    50    55   am
    49    55    56    1
    50    19    20    1
    51    95    94    2
    52    20    22   ar
    53    20    21   ar
    54    56    57    1
    55    22    24   ar
    56    94    93    1
    57    21    23   ar
    58    24    23   ar
    59    57    58    2
    60    96    93    1
    61    96    97    1
    62   122   124   ar
    63   122   120   ar
    64   124   123   ar
    65    91    90    2
    66    93    92    1
    67   101   100    2
    68   120   119   ar
    69   120   118   ar
    70   123   121   ar
    71    98    99    1
    72   119   117   ar
    73    90    89    1
    74   100    99    1
    75   100   105   am
    76    89    88    1
    77   118   121   ar
    78   118   116   ar
    79   110   109    1
    80   106   109    1
    81   106   105    1
    82   106   107    1
    83   117   116   ar
    84    99   102    1
    85   102   104    1
    86   102   103    1
    87   116   115    1
    88    88    81   am
    89   108   107    2
    90   107   111   am
    91    86    87    1
    92    86    85    1
    93   115   112    1
    94   111   112    1
    95    84    85    1
    96    84    83    1
    97    81    82    2
    98    81    80    1
    99   112   113    1
   100    80    83    1
   101    80    79    1
   102    76    75    2
   103   114   113    2
   104   113   125   am
   105   151   150    2
   106    75    79   am
   107    75    74    1
   108   150   149    1
   109   125   126    1
   110   154   152    1
   111   153   152    1
   112    71    72    1
   113    71    68    1
   114    73    74    1
   115    73    69   am
   116    74    77    1
   117   152   149    1
   118   149   148    1
   119   126   127    1
   120    68    69    1
   121    68    67    1
   122   128   127    2
   123    69    70    2
   124    77    78    1
   125   136   135    2
   126   127   129   am
   127    78   147    1
   128   137   135   am
   129   135   134    1
   130    67    61   am
   131   129   130    1
   132   130   131    1
   133   130   133    1
   134    62    61    2
   135    61    60    1
   136   141   140    2
   137   134   133    1
   138    65    64   ar
   139   138   131   am
   140   138   139    1
   141   131   132    2
   142   146   147    1
   143   146   143    1
   144   140   142   am
   145   140   139    1
   146    64    66   ar
   147    64    63    1
   148   143   142    1
   149   143   144    1
   150    60    63    1
   151    60    59    1
   152   144   145    2
