@<TRIPOS>MOLECULE
tmp/5padA00.pdb
 150 151 0 0 0
SMALL
GASTEIGER

@<TRIPOS>ATOM
      1  N         22.6240   23.6460   15.1590 N.3    19  GLN19      -0.1245
      2  CA        21.3440   22.9590   14.9460 C.3    19  GLN19       0.1566
      3  C         21.3230   22.4130   13.5180 C.2    19  GLN19       0.2260
      4  O         20.6110   21.4310   13.2140 O.2    19  GLN19      -0.2867
      5  CB        20.2370   23.9430   15.2030 C.3    19  GLN19       0.0367
      6  CG        20.3550   25.1730   14.4120 C.3    19  GLN19       0.0905
      7  CD        19.4580   26.3320   14.8710 C.2    19  GLN19       0.2608
      8  OE1       20.0030   27.3070   15.4940 O.2    19  GLN19      -0.2717
      9  NE2       18.2320   26.3020   14.5580 N.am   19  GLN19      -0.0878
     10  N         15.4490   23.6140   12.1110 N.3    23  GLY23      -0.1210
     11  CA        14.8380   24.7630   12.7920 C.3    23  GLY23       0.1956
     12  C         14.4880   24.2150   14.1760 C.2    23  GLY23       0.2613
     13  O         13.3160   23.8850   14.4620 O.2    23  GLY23      -0.2717
     14  N         15.5190   24.1370   15.0030 N.am   24  SER24      -0.1938
     15  CA        15.4060   23.6500   16.3840 C.3    24  SER24       0.2055
     16  C         16.1170   24.3470   17.5450 C.2    24  SER24       0.2643
     17  O         16.3880   23.7310   18.5990 O.2    24  SER24      -0.2714
     18  CB        15.9070   22.2260   16.4840 C.3    24  SER24       0.2130
     19  OG        17.2460   22.0970   16.0150 O.3    24  SER24      -0.2179
     20  N         16.4900   25.6830   17.2770 N.am   25  CYS25      -0.1953
     21  CA        16.7180   26.9440   18.1040 C.3    25  CYS25       0.1843
     22  C         16.4240   26.4750   19.6150 C.2    25  CYS25       0.2625
     23  O         17.0860   26.5830   20.7070 O.2    25  CYS25      -0.2714
     24  CB        16.4850   28.2880   17.4830 C.3    25  CYS25       0.0997
     25  SG        14.7890   28.7090   17.0910 S.3    25  CYS25      -0.0797
     26  N         15.1720   26.1780   19.7440 N.am   26  TRP26      -0.1974
     27  CA        14.3830   26.1590   20.9820 C.3    26  TRP26       0.1640
     28  C         14.8560   25.0970   21.9760 C.2    26  TRP26       0.2290
     29  O         14.9870   25.3640   23.1900 O.2    26  TRP26      -0.2864
     30  CB        12.9150   25.9240   20.6250 C.3    26  TRP26       0.0576
     31  CG        12.5910   24.6280   19.7930 C.ar   26  TRP26       0.0006
     32  CD1       12.7160   24.4130   18.4750 C.ar   26  TRP26       0.0946
     33  CD2       12.1530   23.4100   20.3220 C.ar   26  TRP26       0.0152
     34  NE1       12.2770   23.0670   18.1560 N.ar   26  TRP26      -0.2442
     35  CE2       11.9940   22.4810   19.2530 C.ar   26  TRP26       0.0810
     36  CE3       11.8720   23.0100   21.6080 C.ar   26  TRP26       0.0012
     37  CZ2       11.5720   21.1550   19.3930 C.ar   26  TRP26       0.0191
     38  CZ3       11.4340   21.6750   21.7360 C.ar   26  TRP26       0.0001
     39  CH2       11.3310   20.7810   20.6810 C.ar   26  TRP26       0.0015
     40  N          7.1390   22.0170   17.1160 N.3    61  TYR61      -0.1241
     41  CA         7.1890   21.5290   15.7320 C.3    61  TYR61       0.1605
     42  C          8.6220   21.2350   15.2870 C.2    61  TYR61       0.2264
     43  O          9.0710   21.6910   14.2130 O.2    61  TYR61      -0.2867
     44  CB         6.5450   22.5800   14.8110 C.3    61  TYR61       0.0534
     45  CG         5.4970   23.4430   15.5310 C.ar   61  TYR61      -0.0201
     46  CD1        4.1570   23.1940   15.4110 C.ar   61  TYR61      -0.0009
     47  CD2        5.9570   24.4570   16.3920 C.ar   61  TYR61      -0.0009
     48  CE1        3.1840   23.9870   16.0910 C.ar   61  TYR61       0.0417
     49  CE2        4.9720   25.2750   17.0890 C.ar   61  TYR61       0.0417
     50  CZ         3.6600   24.9900   16.9470 C.ar   61  TYR61       0.1957
     51  OH         2.7280   25.7470   17.6260 O.3    61  TYR61      -0.2866
     52  N         11.8250   22.8280   12.8260 N.3    64  ASN64      -0.1225
     53  CA        11.1740   24.0270   12.2850 C.3    64  ASN64       0.1785
     54  C         10.0000   24.5910   13.0860 C.2    64  ASN64       0.2598
     55  O          8.8360   24.5640   12.6310 O.2    64  ASN64      -0.2718
     56  CB        10.6510   23.7340   10.8620 C.3    64  ASN64       0.1169
     57  CG         9.3950   22.9030   10.8990 C.2    64  ASN64       0.2627
     58  OD1        8.5850   22.9910    9.7730 O.2    64  ASN64      -0.2716
     59  ND2        9.0330   22.2280   11.8470 N.am   64  ASN64      -0.0877
     60  N         10.3410   25.0940   14.2620 N.am   65  GLY65      -0.1942
     61  CA         9.3740   25.6970   15.1880 C.3    65  GLY65       0.2017
     62  C          9.3520   24.9750   16.5360 C.2    65  GLY65       0.2678
     63  O          9.4960   23.7360   16.6060 O.2    65  GLY65      -0.2710
     64  N          9.1660   25.7750   17.5750 N.am   66  GLY66      -0.1716
     65  CA         9.0990   25.2920   18.9600 C.2    66  GLY66       0.1480
     66  C          8.9880   26.3760   20.0320 C.2    66  GLY66       0.2820
     67  O          8.9630   27.5870   19.7240 O.2    66  GLY66      -0.2669
     68  N          8.9290   25.9080   21.2690 N.am   67  TYR67      -0.1926
     69  CA         8.8310   26.7740   22.4520 C.3    67  TYR67       0.1759
     70  C          9.8350   26.3650   23.5310 C.2    67  TYR67       0.2462
     71  O          9.6290   25.3710   24.2590 O.2    67  TYR67      -0.2730
     72  CB         7.3940   26.7090   22.9980 C.3    67  TYR67       0.0574
     73  CG         6.3320   26.9410   21.9120 C.ar   67  TYR67      -0.0198
     74  CD1        5.4280   25.9720   21.5730 C.ar   67  TYR67      -0.0009
     75  CD2        6.2580   28.2180   21.3250 C.ar   67  TYR67      -0.0009
     76  CE1        4.4330   26.1930   20.5730 C.ar   67  TYR67       0.0417
     77  CE2        5.2470   28.4540   20.3010 C.ar   67  TYR67       0.0417
     78  CZ         4.3720   27.4710   20.0020 C.ar   67  TYR67       0.1957
     79  OH         3.3990   27.7010   19.0510 O.3    67  TYR67      -0.2866
     80  N         10.8960   27.1520   23.6070 N.am   68  PRO68      -0.2716
     81  CA        11.9780   26.9500   24.5800 C.3    68  PRO68       0.1536
     82  C         11.3700   26.7010   25.9610 C.2    68  PRO68       0.2598
     83  O         12.0210   26.1210   26.8570 O.2    68  PRO68      -0.2715
     84  CB        12.7810   28.2100   24.4960 C.3    68  PRO68       0.0310
     85  CG        11.8270   29.2750   23.9860 C.3    68  PRO68       0.0237
     86  CD        10.8580   28.5090   23.0890 C.3    68  PRO68       0.0939
     87  N         10.1290   27.1430   26.0940 N.am   69  TRP69      -0.1974
     88  CA         9.3520   26.9970   27.3310 C.3    69  TRP69       0.1640
     89  C          8.4600   25.7580   27.2600 C.2    69  TRP69       0.2290
     90  O          8.2420   25.0610   28.2750 O.2    69  TRP69      -0.2864
     91  CB         8.5270   28.2660   27.5450 C.3    69  TRP69       0.0576
     92  CG         7.5080   28.6430   26.4060 C.ar   69  TRP69       0.0006
     93  CD1        7.6360   29.5340   25.4140 C.ar   69  TRP69       0.0946
     94  CD2        6.2630   28.0410   26.1980 C.ar   69  TRP69       0.0152
     95  NE1        6.4260   29.5520   24.6130 N.ar   69  TRP69      -0.2442
     96  CE2        5.6520   28.6420   25.0590 C.ar   69  TRP69       0.0810
     97  CE3        5.5940   27.0440   26.8710 C.ar   69  TRP69       0.0012
     98  CZ2        4.4000   28.2990   24.5400 C.ar   69  TRP69       0.0191
     99  CZ3        4.3260   26.7160   26.3480 C.ar   69  TRP69       0.0001
    100  CH2        3.7760   27.2900   25.2100 C.ar   69  TRP69       0.0015
    101  N         14.6910   34.9370   23.3460 N.3   133  VAL133     -0.1245
    102  CA        14.3850   35.0340   21.9130 C.3   133  VAL133      0.1561
    103  C         14.8190   36.3810   21.3350 C.2   133  VAL133      0.2260
    104  O         15.3420   37.2550   22.0600 O.2   133  VAL133     -0.2867
    105  CB        12.8920   34.8330   21.6880 C.3   133  VAL133      0.0252
    106  CG1       12.3590   33.4300   22.0710 C.3   133  VAL133      0.0019
    107  CG2       12.0730   35.9440   22.2910 C.3   133  VAL133      0.0019
    108  N         10.2940   38.9520   16.6510 N.3   157  VAL157     -0.1231
    109  CA        10.9630   37.8210   17.3130 C.3   157  VAL157      0.1692
    110  C         10.6220   36.5140   16.5930 C.2   157  VAL157      0.2592
    111  O          9.4560   36.2770   16.2070 O.2   157  VAL157     -0.2718
    112  CB        10.5390   37.7490   18.7770 C.3   157  VAL157      0.0266
    113  CG1       10.1380   36.3330   19.2700 C.3   157  VAL157      0.0020
    114  CG2       11.5360   38.4160   19.6940 C.3   157  VAL157      0.0020
    115  N         11.6540   35.6940   16.4360 N.am  158  ASP158     -0.1960
    116  CA        11.5490   34.3800   15.7820 C.3   158  ASP158      0.1840
    117  C         12.6760   33.3430   15.7970 C.2   158  ASP158      0.2622
    118  O         12.6630   32.3690   15.0140 O.2   158  ASP158     -0.2715
    119  CB        11.2640   34.5690   14.2730 C.3   158  ASP158      0.1450
    120  CG        12.4700   35.1190   13.5510 C.2   158  ASP158      0.3671
    121  OD1       13.4940   35.5030   14.0950 O.co2 158  ASP158     -0.2456
    122  OD2       12.4020   35.1090   12.3500 O.co2 158  ASP158     -0.2456
    123  N         13.6220   33.5810   16.6960 N.am  159  HIS159     -0.1959
    124  CA        14.7900   32.7070   16.8900 C.3   159  HIS159      0.1787
    125  C         15.1110   32.7700   18.3860 C.2   159  HIS159      0.2620
    126  O         15.0920   33.8570   19.0030 O.2   159  HIS159     -0.2715
    127  CB        15.9370   33.2080   16.0110 C.3   159  HIS159      0.0785
    128  CG        17.1830   32.3570   16.0500 C.ar  159  HIS159      0.0821
    129  ND1       17.1320   30.9680   16.0350 N.ar  159  HIS159     -0.2267
    130  CD2       18.4990   32.6880   16.1320 C.ar  159  HIS159      0.1154
    131  CE1       18.3640   30.5020   16.1080 C.ar  159  HIS159      0.1986
    132  NE2       19.1990   31.5200   16.1420 N.ar  159  HIS159     -0.2212
    133  N         15.4050   31.5950   18.9290 N.am  160  ALA160     -0.1977
    134  CA        15.7560   31.4260   20.3480 C.3   160  ALA160      0.1597
    135  C         17.2450   31.0980   20.4880 C.2   160  ALA160      0.2287
    136  O         17.8030   30.2980   19.7060 O.2   160  ALA160     -0.2864
    137  CB        14.8900   30.3250   20.9540 C.3   160  ALA160      0.0319
    138  N         11.4720   40.1850   24.8020 N.3   204  THR204     -0.1203
    139  CA        10.1020   39.6860   24.6040 C.3   204  THR204      0.1994
    140  C          9.6190   38.6290   25.6010 C.2   204  THR204      0.2618
    141  O          8.7250   38.8930   26.4340 O.2   204  THR204     -0.2717
    142  CB        10.0280   39.1040   23.1760 C.3   204  THR204      0.1784
    143  OG1       10.5420   40.1480   22.3510 O.3   204  THR204     -0.2211
    144  CG2        8.6200   38.7540   22.7640 C.3   204  THR204      0.0376
    145  N         10.2310   37.4570   25.4910 N.am  205  SER205     -0.1951
    146  CA         9.9320   36.3050   26.3560 C.3   205  SER205      0.1924
    147  C         11.0930   35.3600   26.6760 C.2   205  SER205      0.2314
    148  O         11.5710   34.6090   25.7980 O.2   205  SER205     -0.2863
    149  CB         8.8570   35.4380   25.7310 C.3   205  SER205      0.2116
    150  OG         7.8300   36.2170   25.1200 O.3   205  SER205     -0.2180
@<TRIPOS>BOND
     1    58    57    2
     2    56    57    1
     3    56    53    1
     4    57    59   am
     5    10    11    1
     6    53    52    1
     7    53    54    1
     8   122   120   ar
     9    55    54    2
    10    11    12    1
    11    54    60   am
    12     4     3    2
    13     3     2    1
    14   120   121   ar
    15   120   119    1
    16    12    13    2
    17    12    14   am
    18    43    42    2
    19    60    61    1
    20   119   116    1
    21     6     7    1
    22     6     5    1
    23     9     7   am
    24    44    45    1
    25    44    41    1
    26     7     8    2
    27     2     1    1
    28     2     5    1
    29    14    15    1
    30   118   117    2
    31    61    62    1
    32    42    41    1
    33    46    45   ar
    34    46    48   ar
    35    45    47   ar
    36    41    40    1
    37   116   117    1
    38   116   115    1
    39   117   123   am
    40   127   128    1
    41   127   124    1
    42    19    18    1
    43   129   128   ar
    44   129   131   ar
    45   128   130   ar
    46    48    50   ar
    47   131   132   ar
    48   130   132   ar
    49   111   110    2
    50    15    18    1
    51    15    16    1
    52    47    49   ar
    53   115   110   am
    54    62    63    2
    55    62    64    1
    56   110   109    1
    57   108   109    1
    58   123   124    1
    59   124   125    1
    60    50    49   ar
    61    50    51    1
    62    25    24    1
    63    20    16   am
    64    20    21    1
    65   109   112    1
    66    24    21    1
    67    16    17    2
    68    64    65    2
    69    21    22    1
    70    34    32   ar
    71    34    35   ar
    72   125   133   am
    73   125   126    2
    74    32    31   ar
    75   112   113    1
    76   112   114    1
    77   133   134    1
    78    65    66    1
    79    79    78    1
    80    35    37   ar
    81    35    33   ar
    82    37    39   ar
    83    22    26   am
    84    22    23    2
    85   136   135    2
    86    67    66    2
    87    26    27    1
    88    31    33   ar
    89    31    30    1
    90    78    77   ar
    91    78    76   ar
    92    66    68   am
    93    77    75   ar
    94    33    36   ar
    95   134   135    1
    96   134   137    1
    97    76    74   ar
    98    30    27    1
    99    39    38   ar
   100    27    28    1
   101    68    69    1
   102    75    73   ar
   103   103   102    1
   104   103   104    2
   105    74    73   ar
   106    36    38   ar
   107   105   102    1
   108   105   106    1
   109   105   107    1
   110    73    72    1
   111   102   101    1
   112    28    29    2
   113   143   142    1
   114    69    72    1
   115    69    70    1
   116   144   142    1
   117    86    80    1
   118    86    85    1
   119   142   139    1
   120    70    80   am
   121    70    71    2
   122    80    81    1
   123    85    84    1
   124    84    81    1
   125    98    96   ar
   126    98   100   ar
   127    81    82    1
   128   139   138    1
   129   139   140    1
   130    95    96   ar
   131    95    93   ar
   132    96    94   ar
   133   150   149    1
   134   100    99   ar
   135    93    92   ar
   136   145   140   am
   137   145   146    1
   138   140   141    2
   139   149   146    1
   140   148   147    2
   141    82    87   am
   142    82    83    2
   143    87    88    1
   144    94    92   ar
   145    94    97   ar
   146    99    97   ar
   147   146   147    1
   148    92    91    1
   149    89    88    1
   150    89    90    2
   151    88    91    1
