@<TRIPOS>MOLECULE
tmp/5pafB00.pdb
 165 162 0 0 0
SMALL
GASTEIGER

@<TRIPOS>ATOM
      1  N          4.8690   34.1580   17.3590 N.3    41  HIS41      -0.1241
      2  CA         4.5370   35.4890   17.9350 C.3    41  HIS41       0.1621
      3  C          5.6090   36.4850   17.5370 C.2    41  HIS41       0.2264
      4  O          5.3720   37.7280   17.6180 O.2    41  HIS41      -0.2867
      5  CB         4.3500   35.3840   19.4280 C.3    41  HIS41       0.0745
      6  CG         5.5910   35.4880   20.2460 C.ar   41  HIS41       0.0817
      7  ND1        6.1850   34.4150   20.8680 N.ar   41  HIS41      -0.2268
      8  CD2        6.3670   36.5630   20.5520 C.ar   41  HIS41       0.1154
      9  CE1        7.1950   34.8330   21.5950 C.ar   41  HIS41       0.1986
     10  NE2        7.3610   36.1190   21.3830 N.ar   41  HIS41      -0.2212
     11  N          4.2960   38.9450   14.4980 N.3    44  ASP44      -0.1225
     12  CA         2.9680   39.6830   14.5180 C.3    44  ASP44       0.1805
     13  C          3.0890   41.0970   13.9790 C.2    44  ASP44       0.2597
     14  O          2.1050   41.5950   13.4050 O.2    44  ASP44      -0.2718
     15  CB         2.4270   39.7910   15.9120 C.3    44  ASP44       0.1424
     16  CG         1.7830   38.5590   16.4170 C.2    44  ASP44       0.3668
     17  OD1        1.8250   37.4760   15.7690 O.co2  44  ASP44      -0.2456
     18  OD2        1.2250   38.6080   17.5340 O.co2  44  ASP44      -0.2456
     19  N          4.2390   41.7300   14.0920 N.am   45  LYS45      -0.1979
     20  CA         4.3290   43.1770   13.7760 C.3    45  LYS45       0.1596
     21  C          5.2730   43.4490   12.6340 C.2    45  LYS45       0.2287
     22  O          5.7640   44.5550   12.5110 O.2    45  LYS45      -0.2864
     23  CB         4.8170   43.9240   15.0140 C.3    45  LYS45       0.0298
     24  CG         4.0180   43.7270   16.2890 C.3    45  LYS45       0.0038
     25  CD         4.8790   44.0840   17.5130 C.3    45  LYS45       0.0206
     26  CE         4.3020   43.5030   18.8110 C.3    45  LYS45       0.1093
     27  NZ         4.9660   44.0080   20.0550 N.3    45  LYS45      -0.1314
     28  N         -2.7550   29.3690   15.0370 N.3    82  TYR82      -0.1241
     29  CA        -2.1620   30.4880   15.7570 C.3    82  TYR82       0.1605
     30  C         -2.9830   31.7450   15.5200 C.2    82  TYR82       0.2264
     31  O         -3.3850   32.0510   14.3970 O.2    82  TYR82      -0.2867
     32  CB        -0.7210   30.7000   15.2730 C.3    82  TYR82       0.0534
     33  CG        -0.1120   31.9330   15.8350 C.ar   82  TYR82      -0.0201
     34  CD1        0.2870   31.9760   17.1760 C.ar   82  TYR82      -0.0009
     35  CD2       -0.0580   33.0760   15.0830 C.ar   82  TYR82      -0.0009
     36  CE1        0.8080   33.1600   17.7000 C.ar   82  TYR82       0.0417
     37  CE2        0.4530   34.2610   15.5920 C.ar   82  TYR82       0.0417
     38  CZ         0.8970   34.2600   16.9250 C.ar   82  TYR82       0.1957
     39  OH         1.3950   35.4700   17.4360 O.3    82  TYR82      -0.2866
     40  N         -1.5630   37.8730   18.8790 N.3    85  GLY85      -0.1210
     41  CA        -1.9400   38.4910   20.1500 C.3    85  GLY85       0.1956
     42  C         -2.2750   37.5080   21.2070 C.2    85  GLY85       0.2613
     43  O         -2.6870   37.9240   22.2730 O.2    85  GLY85      -0.2717
     44  N         -2.1180   36.1880   20.9490 N.am   86  THR86      -0.1938
     45  CA        -2.3570   35.1640   21.8970 C.3    86  THR86       0.2028
     46  C         -1.1120   34.2140   21.9260 C.2    86  THR86       0.2642
     47  O         -0.1180   34.4810   21.2170 O.2    86  THR86      -0.2714
     48  CB        -3.5790   34.3450   21.6540 C.3    86  THR86       0.1808
     49  OG1       -3.4430   33.5710   20.4420 O.3    86  THR86      -0.2208
     50  CG2       -4.8540   35.2380   21.5470 C.3    86  THR86       0.0379
     51  N         -1.1390   33.2270   22.7970 N.am   87  THR87      -0.1950
     52  CA         0.1050   32.4370   23.1070 C.3    87  THR87       0.1897
     53  C          0.0840   31.0620   22.5040 C.2    87  THR87       0.2313
     54  O          1.1520   30.4650   22.3850 O.2    87  THR87      -0.2863
     55  CB         0.3340   32.2800   24.6240 C.3    87  THR87       0.1794
     56  OG1       -0.8280   31.6970   25.2530 O.3    87  THR87      -0.2208
     57  CG2        0.6800   33.5870   25.2680 C.3    87  THR87       0.0378
     58  N          2.5030   28.4480   19.1970 N.3    90  ASP90      -0.1239
     59  CA         3.5150   29.4650   18.9870 C.3    90  ASP90       0.1674
     60  C          4.7530   28.8640   18.2650 C.2    90  ASP90       0.2266
     61  O          5.8060   28.6530   18.8110 O.2    90  ASP90      -0.2867
     62  CB         3.9500   30.1240   20.2880 C.3    90  ASP90       0.1410
     63  CG         4.7410   31.3770   20.0650 C.2    90  ASP90       0.3668
     64  OD1        4.7540   31.8940   18.9340 O.co2  90  ASP90      -0.2456
     65  OD2        5.4140   31.8110   21.0500 O.co2  90  ASP90      -0.2456
     66  N         16.1590   31.5900   34.1840 N.3   182  ASP182     -0.1225
     67  CA        15.0430   31.5260   33.2940 C.3   182  ASP182      0.1805
     68  C         15.4480   31.9220   31.8720 C.2   182  ASP182      0.2598
     69  O         16.5220   32.5090   31.6560 O.2   182  ASP182     -0.2718
     70  CB        13.9730   32.4770   33.7770 C.3   182  ASP182      0.1424
     71  CG        12.5950   32.0660   33.4550 C.2   182  ASP182      0.3668
     72  OD1       12.2930   31.1830   32.5900 O.co2 182  ASP182     -0.2456
     73  OD2       11.6600   32.6580   34.0960 O.co2 182  ASP182     -0.2456
     74  N         14.5300   31.6570   30.9160 N.am  183  SER183     -0.1938
     75  CA        14.5770   32.3380   29.6530 C.3   183  SER183      0.2055
     76  C         13.9280   33.7080   29.8450 C.2   183  SER183      0.2643
     77  O         13.3600   33.9700   30.9360 O.2   183  SER183     -0.2714
     78  CB        13.8240   31.4920   28.6040 C.3   183  SER183      0.2130
     79  OG        12.5170   31.3430   28.9770 O.3   183  SER183     -0.2179
     80  N         14.0580   34.5740   28.8560 N.am  184  CYS184     -0.1953
     81  CA        13.4260   35.9090   28.9680 C.3   184  CYS184      0.1843
     82  C         13.0690   36.4610   27.6600 C.2   184  CYS184      0.2625
     83  O         13.4190   35.9520   26.5940 O.2   184  CYS184     -0.2714
     84  CB        14.4650   36.8220   29.6610 C.3   184  CYS184      0.0997
     85  SG        13.6500   38.3240   30.4500 S.3   184  CYS184     -0.0797
     86  N         12.4000   37.6070   27.6840 N.am  185  LYS185     -0.1977
     87  CA        12.1650   38.3560   26.4790 C.3   185  LYS185      0.1596
     88  C         13.3930   38.5240   25.6250 C.2   185  LYS185      0.2287
     89  O         14.4900   38.7830   26.1660 O.2   185  LYS185     -0.2864
     90  CB        11.6050   39.7590   26.7760 C.3   185  LYS185      0.0298
     91  CG        10.2030   39.7550   27.3450 C.3   185  LYS185      0.0038
     92  CD         9.6940   41.2070   27.5530 C.3   185  LYS185      0.0206
     93  CE        10.2940   42.2070   26.5550 C.3   185  LYS185      0.1093
     94  NZ         9.6670   43.5710   26.4780 N.3   185  LYS185     -0.1314
     95  N         12.7940   34.5040   22.7150 N.3   188  SER188     -0.1217
     96  CA        11.7110   33.9350   21.9710 C.3   188  SER188      0.1889
     97  C         12.1740   33.3710   20.6380 C.2   188  SER188      0.2288
     98  O         12.9030   34.0180   19.8870 O.2   188  SER188     -0.2866
     99  CB        10.6480   34.9630   21.6540 C.3   188  SER188      0.2089
    100  OG        10.0210   35.3830   22.8830 O.3   188  SER188     -0.2183
    101  N         11.4010   28.5760   22.7700 N.3   206  VAL206     -0.1231
    102  CA        11.1620   29.6140   23.8100 C.3   206  VAL206      0.1692
    103  C          9.9460   30.4350   23.4010 C.2   206  VAL206      0.2593
    104  O          9.8920   31.0130   22.2870 O.2   206  VAL206     -0.2718
    105  CB        12.3700   30.5110   23.9200 C.3   206  VAL206      0.0266
    106  CG1       12.0820   31.6530   24.9500 C.3   206  VAL206      0.0020
    107  CG2       13.6360   29.7960   24.2680 C.3   206  VAL206      0.0020
    108  N          8.9210   30.4930   24.2500 N.am  207  SER207     -0.1938
    109  CA         7.6550   31.1020   23.8390 C.3   207  SER207      0.2055
    110  C          7.2120   32.2780   24.7540 C.2   207  SER207      0.2643
    111  O          7.1350   33.3950   24.2610 O.2   207  SER207     -0.2714
    112  CB         6.5670   30.0240   23.7330 C.3   207  SER207      0.2130
    113  OG         5.3260   30.5120   23.3620 O.3   207  SER207     -0.2179
    114  N          6.9860   32.0130   26.0260 N.am  208  TRP208     -0.1959
    115  CA         6.4440   33.1090   26.8910 C.3   208  TRP208      0.1771
    116  C          6.6710   32.7730   28.3550 C.2   208  TRP208      0.2620
    117  O          7.2370   31.7880   28.7190 O.2   208  TRP208     -0.2715
    118  CB         4.9440   33.3530   26.6040 C.3   208  TRP208      0.0590
    119  CG         4.0380   32.2810   26.8690 C.ar  208  TRP208      0.0006
    120  CD1        3.7520   31.2470   26.0440 C.ar  208  TRP208      0.0946
    121  CD2        3.1810   32.0930   28.0300 C.ar  208  TRP208      0.0152
    122  NE1        2.8270   30.4160   26.5910 N.ar  208  TRP208     -0.2442
    123  CE2        2.4750   30.9080   27.8340 C.ar  208  TRP208      0.0810
    124  CE3        2.9900   32.8010   29.2150 C.ar  208  TRP208      0.0012
    125  CZ2        1.5220   30.4310   28.7410 C.ar  208  TRP208      0.0191
    126  CZ3        2.0450   32.2830   30.1350 C.ar  208  TRP208      0.0001
    127  CH2        1.3900   31.1350   29.9100 C.ar  208  TRP208      0.0015
    128  N          6.2310   33.7470   29.1850 N.am  209  GLY209     -0.1940
    129  CA         6.2890   33.5270   30.6320 C.3   209  GLY209      0.2014
    130  C          5.6820   34.7860   31.2400 C.2   209  GLY209      0.2639
    131  O          5.5390   35.8030   30.5530 O.2   209  GLY209     -0.2714
    132  N          5.4280   34.6970   32.5390 N.am  210  GLN210     -0.1963
    133  CA         4.9730   35.8740   33.3250 C.3   210  GLN210      0.1733
    134  C          6.1980   36.5680   33.8200 C.2   210  GLN210      0.2617
    135  O          6.8940   36.0530   34.7110 O.2   210  GLN210     -0.2715
    136  CB         4.0980   35.3720   34.5180 C.3   210  GLN210      0.0408
    137  CG         3.6480   36.5130   35.4180 C.3   210  GLN210      0.0908
    138  CD         2.6470   37.3600   34.7120 C.2   210  GLN210      0.2608
    139  OE1        1.6710   36.8440   34.1620 O.2   210  GLN210     -0.2717
    140  NE2        2.8780   38.6700   34.6990 N.am  210  GLN210     -0.0878
    141  N          6.5110   37.7110   33.2110 N.am  211  GLY211     -0.1940
    142  CA         7.7670   38.3380   33.4210 C.3   211  GLY211      0.2014
    143  C          8.8780   37.3590   33.0430 C.2   211  GLY211      0.2639
    144  O          8.6020   36.4240   32.2670 O.2   211  GLY211     -0.2714
    145  N         10.0380   37.5090   33.6600 N.am  212  CYS212     -0.1967
    146  CA        11.1980   36.5720   33.6160 C.3   212  CYS212      0.1712
    147  C         11.7960   36.3730   34.9440 C.2   212  CYS212      0.2296
    148  O         12.0140   37.3640   35.6620 O.2   212  CYS212     -0.2864
    149  CB        12.3690   37.1630   32.8560 C.3   212  CYS212      0.0983
    150  SG        11.8980   37.7240   31.2780 S.3   212  CYS212     -0.0798
    151  N          7.1640   29.7970   35.8460 N.3   218  PHE218     -0.1227
    152  CA         8.1470   29.0740   35.0520 C.3   218  PHE218      0.1736
    153  C          8.0730   29.6210   33.6140 C.2   218  PHE218      0.2596
    154  O          7.0850   30.1610   33.1860 O.2   218  PHE218     -0.2718
    155  CB         7.7090   27.6140   34.9730 C.3   218  PHE218      0.0547
    156  CG         7.9090   26.8710   36.2640 C.ar  218  PHE218     -0.0202
    157  CD1        9.0990   26.3530   36.5880 C.ar  218  PHE218     -0.0042
    158  CD2        6.8360   26.7870   37.1600 C.ar  218  PHE218     -0.0042
    159  CE1        9.2980   25.7090   37.7910 C.ar  218  PHE218     -0.0003
    160  CE2        7.0260   26.1350   38.3880 C.ar  218  PHE218     -0.0003
    161  CZ         8.2570   25.6110   38.6870 C.ar  218  PHE218     -0.0000
    162  N          9.1410   29.3630   32.8830 N.am  219  GLY219     -0.1957
    163  CA         9.0930   29.6530   31.4310 C.3   219  GLY219      0.1869
    164  C          8.2060   28.6350   30.6990 C.2   219  GLY219      0.2309
    165  O          8.0600   27.4640   31.1180 O.2   219  GLY219     -0.2863
@<TRIPOS>BOND
     1    22    21    2
     2    21    20    1
     3    14    13    2
     4    20    19    1
     5    20    23    1
     6    13    19   am
     7    13    12    1
     8    31    30    2
     9    11    12    1
    10    12    15    1
    11    23    24    1
    12    28    29    1
    13    35    37   ar
    14    35    33   ar
    15    32    29    1
    16    32    33    1
    17    30    29    1
    18    37    38   ar
    19    17    16   ar
    20    33    34   ar
    21    15    16    1
    22    24    25    1
    23    16    18   ar
    24    38    39    1
    25    38    36   ar
    26    34    36   ar
    27     1     2    1
    28    25    26    1
    29     3     4    2
    30     3     2    1
    31     2     5    1
    32    60    61    2
    33    60    59    1
    34    26    27    1
    35    40    41    1
    36    64    63   ar
    37    59    58    1
    38    59    62    1
    39     5     6    1
    40    98    97    2
    41    63    62    1
    42    63    65   ar
    43    41    42    1
    44     6     8   ar
    45     6     7   ar
    46    49    48    1
    47     8    10   ar
    48    97    96    1
    49     7     9   ar
    50    44    42   am
    51    44    45    1
    52    42    43    2
    53    47    46    2
    54    10     9   ar
    55    50    48    1
    56    99    96    1
    57    99   100    1
    58    48    45    1
    59    45    46    1
    60    46    51   am
    61    96    95    1
    62   104   103    2
    63    54    53    2
    64    53    52    1
    65   101   102    1
    66    51    52    1
    67    52    55    1
    68   113   112    1
    69   103   102    1
    70   103   108   am
    71   112   109    1
    72   102   105    1
    73   109   108    1
    74   109   110    1
    75   105   107    1
    76   105   106    1
    77   111   110    2
    78    55    56    1
    79    55    57    1
    80   110   114   am
    81    88    89    2
    82    88    87    1
    83   114   115    1
    84   120   122   ar
    85   120   119   ar
    86    94    93    1
    87    87    90    1
    88    87    86    1
    89    93    92    1
    90   122   123   ar
    91    83    82    2
    92   118   119    1
    93   118   115    1
    94    90    91    1
    95   119   121   ar
    96   115   116    1
    97    91    92    1
    98    82    86   am
    99    82    81    1
   100   123   121   ar
   101   123   125   ar
   102   121   124   ar
   103   116   117    2
   104   116   128   am
   105    78    79    1
   106    78    75    1
   107   125   127   ar
   108    80    81    1
   109    80    76   am
   110    81    84    1
   111   128   129    1
   112   124   126   ar
   113    75    76    1
   114    75    74    1
   115    84    85    1
   116    76    77    2
   117   127   126   ar
   118    85   150    1
   119   131   130    2
   120   129   130    1
   121   164   165    2
   122   164   163    1
   123    74    68   am
   124   130   132   am
   125   150   149    1
   126   163   162    1
   127    69    68    2
   128    68    67    1
   129   144   143    2
   130   132   133    1
   131    72    71   ar
   132   149   146    1
   133   162   153   am
   134   143   142    1
   135   143   145   am
   136   154   153    2
   137   141   142    1
   138   141   134   am
   139    67    70    1
   140    67    66    1
   141   133   134    1
   142   133   136    1
   143    71    70    1
   144    71    73   ar
   145   153   152    1
   146   146   145    1
   147   146   147    1
   148   134   135    2
   149   139   138    2
   150   136   137    1
   151   140   138   am
   152   138   137    1
   153   147   148    2
   154   155   152    1
   155   155   156    1
   156   152   151    1
   157   156   157   ar
   158   156   158   ar
   159   157   159   ar
   160   158   160   ar
   161   159   161   ar
   162   160   161   ar
