@<TRIPOS>MOLECULE
tmp/5pagB00.pdb
 143 141 0 0 0
SMALL
GASTEIGER

@<TRIPOS>ATOM
      1  N         15.2240   40.4470   16.4840 N.3    25  LEU25      -0.1231
      2  CA        13.8010   40.1180   16.5180 C.3    25  LEU25       0.1693
      3  C         13.5540   38.9700   17.4840 C.2    25  LEU25       0.2592
      4  O         12.7180   39.0490   18.3830 O.2    25  LEU25      -0.2718
      5  CB        13.2670   39.7450   15.1490 C.3    25  LEU25       0.0284
      6  CG        11.8200   39.3340   15.1060 C.3    25  LEU25       0.0019
      7  CD1       10.9840   40.5470   15.3570 C.3    25  LEU25       0.0001
      8  CD2       11.4660   38.7430   13.7940 C.3    25  LEU25       0.0001
      9  N         14.2750   37.8710   17.3130 N.am   26  CYS26      -0.1970
     10  CA        14.0010   36.5880   17.9670 C.3    26  CYS26       0.1712
     11  C         15.1360   35.6700   17.7000 C.2    26  CYS26       0.2296
     12  O         16.0120   35.9320   16.9040 O.2    26  CYS26      -0.2864
     13  CB        12.6970   35.9910   17.3680 C.3    26  CYS26       0.0983
     14  SG        11.1560   36.5620   18.2210 S.3    26  CYS26      -0.0798
     15  N          4.8000   34.0420   17.2350 N.3    41  HIS41      -0.1226
     16  CA         4.5440   35.4160   17.7370 C.3    41  HIS41       0.1752
     17  C          5.5940   36.3750   17.3230 C.2    41  HIS41       0.2596
     18  O          5.3770   37.6240   17.3590 O.2    41  HIS41      -0.2718
     19  CB         4.2790   35.4030   19.2280 C.3    41  HIS41       0.0759
     20  CG         5.4980   35.4360   20.0960 C.ar   41  HIS41       0.0818
     21  ND1        5.9520   34.3580   20.7850 N.ar   41  HIS41      -0.2268
     22  CD2        6.3350   36.4530   20.4050 C.ar   41  HIS41       0.1154
     23  CE1        6.9930   34.6950   21.5210 C.ar   41  HIS41       0.1986
     24  NE2        7.2760   35.9520   21.2580 N.ar   41  HIS41      -0.2212
     25  N          6.7900   35.9280   17.0090 N.am   42  CYS42      -0.1970
     26  CA         7.8500   36.7790   16.5380 C.3    42  CYS42       0.1712
     27  C          7.4550   37.5670   15.3230 C.2    42  CYS42       0.2296
     28  O          8.0830   38.5990   15.0250 O.2    42  CYS42      -0.2864
     29  CB         9.1050   35.9540   16.1660 C.3    42  CYS42       0.0983
     30  SG         9.8240   35.1290   17.6360 S.3    42  CYS42      -0.0798
     31  N          4.2420   38.7240   14.6520 N.3    44  ASP44      -0.1225
     32  CA         2.8770   39.3620   14.8180 C.3    44  ASP44       0.1805
     33  C          2.8930   40.7890   14.2740 C.2    44  ASP44       0.2597
     34  O          1.8300   41.2340   13.8260 O.2    44  ASP44      -0.2718
     35  CB         2.4760   39.4340   16.2690 C.3    44  ASP44       0.1424
     36  CG         1.9780   38.1420   16.8500 C.2    44  ASP44       0.3668
     37  OD1        1.8330   37.1140   16.1610 O.co2  44  ASP44      -0.2456
     38  OD2        1.7790   38.1570   18.1000 O.co2  44  ASP44      -0.2456
     39  N          4.0220   41.4800   14.2960 N.am   45  LYS45      -0.1979
     40  CA         4.0070   42.9330   13.9120 C.3    45  LYS45       0.1596
     41  C          4.8530   43.2600   12.7370 C.2    45  LYS45       0.2287
     42  O          5.0940   44.4390   12.4530 O.2    45  LYS45      -0.2864
     43  CB         4.4050   43.7900   15.0740 C.3    45  LYS45       0.0298
     44  CG         3.4890   43.6960   16.2730 C.3    45  LYS45       0.0038
     45  CD         2.0800   44.2010   16.0130 C.3    45  LYS45       0.0206
     46  CE         1.2530   44.2000   17.2840 C.3    45  LYS45       0.1093
     47  NZ        -0.1410   44.5570   16.9270 N.3    45  LYS45      -0.1314
     48  N         15.6590   31.6230   33.8500 N.3   179  ASP179     -0.1225
     49  CA        14.5630   31.5610   32.8660 C.3   179  ASP179      0.1805
     50  C         15.0730   31.9850   31.5010 C.2   179  ASP179      0.2598
     51  O         16.1340   32.5570   31.3290 O.2   179  ASP179     -0.2718
     52  CB        13.4150   32.4330   33.2580 C.3   179  ASP179      0.1424
     53  CG        12.0610   32.0900   32.6190 C.2   179  ASP179      0.3668
     54  OD1       11.8710   31.0450   31.9710 O.co2 179  ASP179     -0.2456
     55  OD2       11.1110   32.9340   32.8180 O.co2 179  ASP179     -0.2456
     56  N         14.2780   31.6840   30.4640 N.am  180  SER180     -0.1938
     57  CA        14.4280   32.3820   29.2240 C.3   180  SER180      0.2055
     58  C         13.6170   33.6850   29.3380 C.2   180  SER180      0.2643
     59  O         12.7640   33.8170   30.2330 O.2   180  SER180     -0.2714
     60  CB        14.0370   31.4330   28.0270 C.3   180  SER180      0.2130
     61  OG        12.7740   30.9700   28.2500 O.3   180  SER180     -0.2179
     62  N         13.8820   34.6320   28.4720 N.am  181  CYS181     -0.1953
     63  CA        13.3340   35.9930   28.6260 C.3   181  CYS181      0.1843
     64  C         13.0880   36.6240   27.2630 C.2   181  CYS181      0.2625
     65  O         13.5290   36.1140   26.2420 O.2   181  CYS181     -0.2714
     66  CB        14.3740   36.7910   29.4750 C.3   181  CYS181      0.0997
     67  SG        13.7970   38.3390   30.2520 S.3   181  CYS181     -0.0797
     68  N         12.4560   37.8140   27.2060 N.am  182  LYS182     -0.1963
     69  CA        12.2690   38.5240   25.9740 C.3   182  LYS182      0.1728
     70  C         13.5900   38.6620   25.2160 C.2   182  LYS182      0.2616
     71  O         14.6370   39.0040   25.8070 O.2   182  LYS182     -0.2715
     72  CB        11.6310   39.9370   26.2440 C.3   182  LYS182      0.0311
     73  CG        11.4930   40.7380   25.0140 C.3   182  LYS182      0.0038
     74  CD        10.8300   42.0730   25.4380 C.3   182  LYS182      0.0206
     75  CE        10.5050   42.9190   24.2680 C.3   182  LYS182      0.1093
     76  NZ        10.0050   44.2100   24.8660 N.3   182  LYS182     -0.1314
     77  N         13.5960   38.4030   23.9240 N.am  183  GLY183     -0.1955
     78  CA        14.7110   38.3450   23.1000 C.3   183  GLY183      0.1869
     79  C         15.1150   36.8770   22.7960 C.2   183  GLY183      0.2309
     80  O         15.8350   36.7310   21.8360 O.2   183  GLY183     -0.2863
     81  N         12.7350   34.3500   22.5330 N.3   185  SER185     -0.1217
     82  CA        11.6740   33.6210   21.8980 C.3   185  SER185      0.1889
     83  C         12.0690   33.1590   20.5430 C.2   185  SER185      0.2288
     84  O         12.7870   33.7860   19.7970 O.2   185  SER185     -0.2866
     85  CB        10.3920   34.4390   21.7300 C.3   185  SER185      0.2089
     86  OG         9.8480   34.7640   23.0470 O.3   185  SER185     -0.2183
     87  N         11.2480   28.3500   22.7280 N.3   203  VAL203     -0.1231
     88  CA        10.9650   29.4370   23.7080 C.3   203  VAL203      0.1692
     89  C          9.7550   30.2100   23.2000 C.2   203  VAL203      0.2593
     90  O          9.7610   30.8190   22.1080 O.2   203  VAL203     -0.2718
     91  CB        12.1590   30.3060   23.8480 C.3   203  VAL203      0.0266
     92  CG1       11.8210   31.4210   24.8540 C.3   203  VAL203      0.0020
     93  CG2       13.4360   29.6030   24.2390 C.3   203  VAL203      0.0020
     94  N          8.6980   30.2490   23.9940 N.am  204  SER204     -0.1938
     95  CA         7.4650   30.9420   23.6320 C.3   204  SER204      0.2055
     96  C          7.4080   32.2740   24.4260 C.2   204  SER204      0.2643
     97  O          8.3470   33.0050   24.3390 O.2   204  SER204     -0.2714
     98  CB         6.2990   29.9700   23.7820 C.3   204  SER204      0.2130
     99  OG         5.0500   30.5990   23.5110 O.3   204  SER204     -0.2179
    100  N          6.3280   32.5560   25.0830 N.am  205  TRP205     -0.1959
    101  CA         6.2370   33.8190   25.8940 C.3   205  TRP205      0.1771
    102  C          5.0870   33.6710   26.8540 C.2   205  TRP205      0.2620
    103  O          4.3780   32.7120   26.7920 O.2   205  TRP205     -0.2715
    104  CB         6.1170   35.0960   25.0410 C.3   205  TRP205      0.0590
    105  CG         4.9310   35.2230   24.1190 C.ar  205  TRP205      0.0006
    106  CD1        4.0990   34.2000   23.6640 C.ar  205  TRP205      0.0946
    107  CD2        4.5390   36.3890   23.4250 C.ar  205  TRP205      0.0152
    108  NE1        3.1780   34.7130   22.7820 N.ar  205  TRP205     -0.2442
    109  CE2        3.4120   36.0500   22.6250 C.ar  205  TRP205      0.0810
    110  CE3        4.9610   37.7330   23.4720 C.ar  205  TRP205      0.0012
    111  CZ2        2.7550   36.9640   21.8570 C.ar  205  TRP205      0.0191
    112  CZ3        4.3150   38.6380   22.6730 C.ar  205  TRP205      0.0001
    113  CH2        3.2390   38.2740   21.8840 C.ar  205  TRP205      0.0015
    114  N          5.0680   34.6690   27.7530 N.am  206  GLY206     -0.1940
    115  CA         4.1300   34.9020   28.8550 C.3   206  GLY206      0.2014
    116  C          4.5370   36.2650   29.4750 C.2   206  GLY206      0.2639
    117  O          5.4250   37.0040   28.9310 O.2   206  GLY206     -0.2714
    118  N          3.8880   36.5880   30.6060 N.am  207  GLN207     -0.1963
    119  CA         3.9190   37.9390   31.2630 C.3   207  GLN207      0.1733
    120  C          5.3150   38.5310   31.5070 C.2   207  GLN207      0.2617
    121  O          5.6720   39.5450   30.8880 O.2   207  GLN207     -0.2715
    122  CB         3.1270   37.9280   32.6120 C.3   207  GLN207      0.0408
    123  CG         1.6790   38.4280   32.5780 C.3   207  GLN207      0.0908
    124  CD         0.8970   37.9700   31.3560 C.2   207  GLN207      0.2608
    125  OE1        0.9750   38.5920   30.2860 O.2   207  GLN207     -0.2717
    126  NE2        0.1360   36.8800   31.5060 N.am  207  GLN207     -0.0878
    127  N          6.0860   37.9060   32.4060 N.am  208  GLY208     -0.1940
    128  CA         7.4250   38.3900   32.7270 C.3   208  GLY208      0.2014
    129  C          8.4530   37.3030   32.5920 C.2   208  GLY208      0.2639
    130  O          8.1460   36.1530   32.2300 O.2   208  GLY208     -0.2714
    131  N          9.6930   37.6560   32.9040 N.am  209  CYS209     -0.1967
    132  CA        10.7060   36.6650   32.9080 C.3   209  CYS209      0.1712
    133  C         11.3160   36.4850   34.2610 C.2   209  CYS209      0.2296
    134  O         11.4360   37.4420   35.0330 O.2   209  CYS209     -0.2864
    135  CB        11.6680   36.9240   31.7930 C.3   209  CYS209      0.0983
    136  SG        13.1310   37.8500   32.1690 S.3   209  CYS209     -0.0798
    137  N          7.4300   28.8470   29.6340 N.3   217  VAL217     -0.1245
    138  CA         6.5010   28.1360   28.7380 C.3   217  VAL217      0.1561
    139  C          7.1440   27.9560   27.3470 C.2   217  VAL217      0.2260
    140  O          7.7280   28.8810   26.7660 O.2   217  VAL217     -0.2867
    141  CB         5.2120   28.8690   28.5970 C.3   217  VAL217      0.0252
    142  CG1        4.2360   28.1120   27.6350 C.3   217  VAL217      0.0019
    143  CG2        4.5290   28.9560   29.9770 C.3   217  VAL217      0.0019
@<TRIPOS>BOND
     1    42    41    2
     2    41    40    1
     3     8     6    1
     4    34    33    2
     5    40    39    1
     6    40    43    1
     7    33    39   am
     8    33    32    1
     9    31    32    1
    10    32    35    1
    11    28    27    2
    12    43    44    1
    13     6     5    1
    14     6     7    1
    15     5     2    1
    16    27    26    1
    17    45    44    1
    18    45    46    1
    19    37    36   ar
    20    29    26    1
    21    29    30    1
    22    35    36    1
    23     1     2    1
    24     2     3    1
    25    26    25    1
    26    36    38   ar
    27    12    11    2
    28    47    46    1
    29    25    17   am
    30    15    16    1
    31     9     3   am
    32     9    10    1
    33    17    18    2
    34    17    16    1
    35    13    10    1
    36    13    14    1
    37     3     4    2
    38    30    14    1
    39    11    10    1
    40    16    19    1
    41    19    20    1
    42    84    83    2
    43    20    22   ar
    44    20    21   ar
    45    22    24   ar
    46    83    82    1
    47    21    23   ar
    48    24    23   ar
    49    85    82    1
    50    85    86    1
    51    80    79    2
    52   111   113   ar
    53   111   109   ar
    54   113   112   ar
    55    82    81    1
    56    90    89    2
    57   109   108   ar
    58   109   107   ar
    59   112   110   ar
    60    87    88    1
    61   108   106   ar
    62    79    78    1
    63    78    77    1
    64    89    88    1
    65    89    94   am
    66   107   110   ar
    67   107   105   ar
    68    99    98    1
    69    95    98    1
    70    95    94    1
    71    95    96    1
    72   106   105   ar
    73    88    91    1
    74    91    93    1
    75    91    92    1
    76    77    70   am
    77   105   104    1
    78    75    76    1
    79    75    74    1
    80    97    96    2
    81    96   100   am
    82    73    74    1
    83    73    72    1
    84   104   101    1
    85   100   101    1
    86    70    71    2
    87    70    69    1
    88   101   102    1
    89    69    72    1
    90    69    68    1
    91    65    64    2
    92   140   139    2
    93   103   102    2
    94   102   114   am
    95    68    64   am
    96    64    63    1
    97   139   138    1
    98   142   141    1
    99   114   115    1
   100    60    61    1
   101    60    57    1
   102    62    63    1
   103    62    58   am
   104   141   138    1
   105   141   143    1
   106    63    66    1
   107   138   137    1
   108   115   116    1
   109   117   116    2
   110    57    58    1
   111    57    56    1
   112    58    59    2
   113   116   118   am
   114    66    67    1
   115    67   136    1
   116   125   124    2
   117    56    50   am
   118   118   119    1
   119   121   120    2
   120   119   120    1
   121   119   122    1
   122    51    50    2
   123   124   126   am
   124   124   123    1
   125    50    49    1
   126   120   127   am
   127   135   136    1
   128   135   132    1
   129    54    53   ar
   130   130   129    2
   131   127   128    1
   132   123   122    1
   133   129   128    1
   134   129   131   am
   135    53    55   ar
   136    53    52    1
   137    49    52    1
   138    49    48    1
   139   131   132    1
   140   132   133    1
   141   133   134    2
