@<TRIPOS>MOLECULE
tmp/5pahA00.pdb
 115 114 0 0 0
SMALL
GASTEIGER

@<TRIPOS>ATOM
      1  N         -9.9690   18.4230    5.5960 N.3   132  LEU132     -0.1231
      2  CA       -10.1360   19.8680    5.6680 C.3   132  LEU132      0.1693
      3  C        -11.0530   20.3670    6.7360 C.2   132  LEU132      0.2591
      4  O        -12.2280   20.0960    6.6920 O.2   132  LEU132     -0.2718
      5  CB       -10.6610   20.4150    4.3350 C.3   132  LEU132      0.0284
      6  CG        -9.7620   21.3490    3.5320 C.3   132  LEU132      0.0019
      7  CD1       -9.5880   22.7020    4.2600 C.3   132  LEU132      0.0001
      8  CD2       -8.3530   20.6500    3.3190 C.3   132  LEU132      0.0001
      9  N        -10.5150   21.1320    7.6680 N.am  133  LEU133     -0.1980
     10  CA       -11.3470   21.7150    8.7180 C.3   133  LEU133      0.1596
     11  C        -11.8940   23.0240    8.1890 C.2   133  LEU133      0.2287
     12  O        -11.2400   23.6440    7.3560 O.2   133  LEU133     -0.2864
     13  CB       -10.4970   22.0860    9.9590 C.3   133  LEU133      0.0297
     14  CG       -10.0420   20.9980   10.9330 C.3   133  LEU133      0.0022
     15  CD1       -9.1590   21.6180   11.9870 C.3   133  LEU133      0.0001
     16  CD2      -11.2530   20.3360   11.6350 C.3   133  LEU133      0.0001
     17  N        -12.4310   27.0710    8.2540 N.3   135  SER135     -0.1217
     18  CA       -11.4940   28.0990    8.7200 C.3   135  SER135      0.1889
     19  C        -11.7560   28.4200   10.1860 C.2   135  SER135      0.2288
     20  O        -10.8280   28.6350   10.9780 O.2   135  SER135     -0.2866
     21  CB       -11.6060   29.4060    7.8790 C.3   135  SER135      0.2089
     22  OG       -11.1530   29.2080    6.5730 O.3   135  SER135     -0.2183
     23  N        -10.2650   25.5850   12.3610 N.3   138  PHE138     -0.1241
     24  CA        -8.8340   25.5620   12.2290 C.3   138  PHE138      0.1605
     25  C         -8.2030   26.7300   13.0430 C.2   138  PHE138      0.2264
     26  O         -7.2960   26.4900   13.8760 O.2   138  PHE138     -0.2867
     27  CB        -8.4400   25.6350   10.7540 C.3   138  PHE138      0.0534
     28  CG        -6.9650   25.6410   10.5570 C.ar  138  PHE138     -0.0203
     29  CD1       -6.2350   24.4470   10.6850 C.ar  138  PHE138     -0.0042
     30  CD2       -6.2850   26.8630   10.5070 C.ar  138  PHE138     -0.0042
     31  CE1       -4.8430   24.4630   10.8060 C.ar  138  PHE138     -0.0003
     32  CE2       -4.8860   26.8980   10.6300 C.ar  138  PHE138     -0.0003
     33  CZ        -4.1670   25.7100   10.7900 C.ar  138  PHE138     -0.0000
     34  N         -1.9690   23.1390   16.9630 N.3   147  PHE147     -0.1241
     35  CA        -1.9010   23.1630   15.5030 C.3   147  PHE147      0.1605
     36  C         -2.4240   21.8230   14.9080 C.2   147  PHE147      0.2264
     37  O         -1.8810   20.7570   15.2130 O.2   147  PHE147     -0.2867
     38  CB        -0.4730   23.3730   15.0500 C.3   147  PHE147      0.0534
     39  CG        -0.3310   23.4920   13.5730 C.ar  147  PHE147     -0.0203
     40  CD1       -0.9240   24.5690   12.8960 C.ar  147  PHE147     -0.0042
     41  CD2        0.3520   22.5320   12.8470 C.ar  147  PHE147     -0.0042
     42  CE1       -0.8330   24.6920   11.4550 C.ar  147  PHE147     -0.0003
     43  CE2        0.4510   22.6290   11.4320 C.ar  147  PHE147     -0.0003
     44  CZ        -0.1340   23.6990   10.7400 C.ar  147  PHE147     -0.0000
     45  N         -1.9290   20.3470    1.9090 N.3   165  PRO165     -0.2116
     46  CA        -0.8550   20.2010    2.9050 C.3   165  PRO165      0.1372
     47  C         -0.6020   18.7160    3.0720 C.2   165  PRO165      0.2244
     48  O         -1.5070   17.8890    2.8670 O.2   165  PRO165     -0.2868
     49  CB        -1.4520   20.7860    4.1840 C.3   165  PRO165      0.0268
     50  CG        -2.8860   20.6200    4.0200 C.3   165  PRO165      0.0207
     51  CD        -3.1150   20.9670    2.5060 C.3   165  PRO165      0.0892
     52  N          5.0520   19.5430    4.1990 N.3   169  HIS169     -0.1226
     53  CA         4.6690   20.9270    4.4120 C.3   169  HIS169      0.1752
     54  C          4.5380   21.2760    5.8990 C.2   169  HIS169      0.2595
     55  O          5.0350   22.3270    6.3310 O.2   169  HIS169     -0.2718
     56  CB         3.3250   21.2130    3.7130 C.3   169  HIS169      0.0759
     57  CG         2.7170   22.5300    4.0770 C.ar  169  HIS169      0.0818
     58  ND1        3.1870   23.7240    3.5750 N.ar  169  HIS169     -0.2268
     59  CD2        1.6480   22.8440    4.8600 C.ar  169  HIS169      0.1154
     60  CE1        2.4390   24.7120    4.0230 C.ar  169  HIS169      0.1986
     61  NE2        1.5020   24.2050    4.8000 N.ar  169  HIS169     -0.2212
     62  N          3.9090   20.4230    6.7040 N.am  170  GLU170     -0.1979
     63  CA         3.7610   20.7090    8.1360 C.3   170  GLU170      0.1602
     64  C          5.1410   20.7620    8.8490 C.2   170  GLU170      0.2287
     65  O          5.4260   21.7020    9.6390 O.2   170  GLU170     -0.2864
     66  CB         2.9430   19.5820    8.8870 C.3   170  GLU170      0.0415
     67  CG         1.6390   19.0870    8.1720 C.3   170  GLU170      0.1163
     68  CD         0.5180   20.1850    8.0400 C.2   170  GLU170      0.3649
     69  OE1        0.8010   21.3770    7.9820 O.co2 170  GLU170     -0.2457
     70  OE2       -0.6800   19.8340    8.0160 O.co2 170  GLU170     -0.2457
     71  N          5.7200   24.6440    8.7950 N.3   174  HIS174     -0.1241
     72  CA         5.1770   25.2140   10.0210 C.3   174  HIS174      0.1621
     73  C          5.9270   25.0480   11.3440 C.2   174  HIS174      0.2264
     74  O          6.1260   26.0260   12.1070 O.2   174  HIS174     -0.2867
     75  CB         3.7740   24.6460   10.2740 C.3   174  HIS174      0.0745
     76  CG         2.7520   25.1330    9.3060 C.ar  174  HIS174      0.0817
     77  ND1        2.1560   26.3740    9.4310 N.ar  174  HIS174     -0.2268
     78  CD2        2.1670   24.5330    8.2310 C.ar  174  HIS174      0.1154
     79  CE1        1.2280   26.5140    8.4880 C.ar  174  HIS174      0.1986
     80  NE2        1.2180   25.4050    7.7510 N.ar  174  HIS174     -0.2212
     81  N         -4.2430   35.2130    7.8720 N.3   209  TYR209     -0.1227
     82  CA        -3.4540   34.0050    8.1310 C.3   209  TYR209      0.1736
     83  C         -2.6510   33.5570    6.8810 C.2   209  TYR209      0.2595
     84  O         -1.4500   33.2340    6.9240 O.2   209  TYR209     -0.2718
     85  CB        -4.3820   32.8800    8.6430 C.3   209  TYR209      0.0548
     86  CG        -3.6860   31.5300    8.7830 C.ar  209  TYR209     -0.0200
     87  CD1       -3.4990   30.7130    7.6670 C.ar  209  TYR209     -0.0009
     88  CD2       -3.2770   31.0360   10.0490 C.ar  209  TYR209     -0.0009
     89  CE1       -2.9080   29.3970    7.8010 C.ar  209  TYR209      0.0417
     90  CE2       -2.7090   29.7580   10.1890 C.ar  209  TYR209      0.0417
     91  CZ        -2.5250   28.9730    9.0890 C.ar  209  TYR209      0.1957
     92  OH        -1.8780   27.7970    9.2490 O.3   209  TYR209     -0.2866
     93  N         -3.3120   33.5940    5.7420 N.am  210  TRP210     -0.1976
     94  CA        -2.6800   33.2280    4.4860 C.3   210  TRP210      0.1640
     95  C         -1.4830   34.1240    4.1350 C.2   210  TRP210      0.2290
     96  O         -0.4380   33.6240    3.6680 O.2   210  TRP210     -0.2864
     97  CB        -3.7310   33.3120    3.3670 C.3   210  TRP210      0.0576
     98  CG        -3.1890   33.0530    2.0870 C.ar  210  TRP210      0.0006
     99  CD1       -2.6080   33.9780    1.1880 C.ar  210  TRP210      0.0946
    100  CD2       -3.1250   31.7850    1.4520 C.ar  210  TRP210      0.0152
    101  NE1       -2.2190   33.3210    0.0390 N.ar  210  TRP210     -0.2442
    102  CE2       -2.5220   31.9820    0.1720 C.ar  210  TRP210      0.0810
    103  CE3       -3.5180   30.4980    1.8340 C.ar  210  TRP210      0.0012
    104  CZ2       -2.3100   30.9170   -0.7350 C.ar  210  TRP210      0.0191
    105  CZ3       -3.2990   29.4180    0.9230 C.ar  210  TRP210      0.0001
    106  CH2       -2.7080   29.6420   -0.3390 C.ar  210  TRP210      0.0015
    107  N          1.1750   31.5330    6.2810 N.3   214  GLU214     -0.1245
    108  CA         1.4660   30.7190    5.0940 C.3   214  GLU214      0.1567
    109  C          2.4090   31.3420    4.1120 C.2   214  GLU214      0.2260
    110  O          3.3240   30.6360    3.6540 O.2   214  GLU214     -0.2867
    111  CB         0.1750   30.3020    4.3320 C.3   214  GLU214      0.0388
    112  CG        -0.5810   29.1210    4.9930 C.3   214  GLU214      0.1160
    113  CD         0.2240   27.8340    4.8450 C.2   214  GLU214      0.3649
    114  OE1        0.8200   27.5610    3.7930 O.co2 214  GLU214     -0.2457
    115  OE2        0.2650   27.0780    5.7590 O.co2 214  GLU214     -0.2457
@<TRIPOS>BOND
     1   104   106   ar
     2   104   102   ar
     3   106   105   ar
     4   101   102   ar
     5   101    99   ar
     6   102   100   ar
     7   105   103   ar
     8    99    98   ar
     9   100   103   ar
    10   100    98   ar
    11    45    51    1
    12    45    46    1
    13    98    97    1
    14    51    50    1
    15    48    47    2
    16    46    47    1
    17    46    49    1
    18     8     6    1
    19    97    94    1
    20     6     7    1
    21     6     5    1
    22    58    60   ar
    23    58    57   ar
    24   110   109    2
    25    96    95    2
    26    56    57    1
    27    56    53    1
    28   114   113   ar
    29    50    49    1
    30    60    61   ar
    31    57    59   ar
    32   109   108    1
    33    95    94    1
    34    52    53    1
    35   111   112    1
    36   111   108    1
    37     5     2    1
    38    53    54    1
    39    94    93    1
    40    61    59   ar
    41   113   112    1
    42   113   115   ar
    43   108   107    1
    44     1     2    1
    45     2     3    1
    46    93    83   am
    47    54    55    2
    48    54    62   am
    49    22    21    1
    50     4     3    2
    51    62    63    1
    52     3     9   am
    53    83    84    2
    54    83    82    1
    55    12    11    2
    56    87    89   ar
    57    87    86   ar
    58     9    10    1
    59    80    78   ar
    60    80    79   ar
    61    89    91   ar
    62    81    82    1
    63    21    18    1
    64    69    68   ar
    65    70    68   ar
    66    68    67    1
    67    82    85    1
    68    63    64    1
    69    63    66    1
    70    67    66    1
    71    11    10    1
    72    78    76   ar
    73    17    18    1
    74    79    77   ar
    75    85    86    1
    76    10    13    1
    77    18    19    1
    78    86    88   ar
    79    71    72    1
    80    64    65    2
    81    91    92    1
    82    91    90   ar
    83    76    77   ar
    84    76    75    1
    85    13    14    1
    86    72    75    1
    87    72    73    1
    88    88    90   ar
    89    19    20    2
    90    30    28   ar
    91    30    32   ar
    92    28    29   ar
    93    28    27    1
    94    32    33   ar
    95    29    31   ar
    96    44    43   ar
    97    44    42   ar
    98    27    24    1
    99    33    31   ar
   100    14    16    1
   101    14    15    1
   102    73    74    2
   103    43    41   ar
   104    42    40   ar
   105    24    23    1
   106    24    25    1
   107    41    39   ar
   108    40    39   ar
   109    25    26    2
   110    39    38    1
   111    36    37    2
   112    36    35    1
   113    38    35    1
   114    35    34    1
