@<TRIPOS>MOLECULE
tmp/5paiB00.pdb
 170 169 0 0 0
SMALL
GASTEIGER

@<TRIPOS>ATOM
      1  N         15.3280   40.7160   16.3380 N.3    25  LEU25      -0.1231
      2  CA        13.8970   40.3960   16.3920 C.3    25  LEU25       0.1693
      3  C         13.5940   39.2500   17.3580 C.2    25  LEU25       0.2592
      4  O         12.7190   39.3560   18.2240 O.2    25  LEU25      -0.2718
      5  CB        13.3890   40.0330   15.0080 C.3    25  LEU25       0.0284
      6  CG        11.9410   39.6130   14.9140 C.3    25  LEU25       0.0019
      7  CD1       11.0160   40.7690   15.2870 C.3    25  LEU25       0.0001
      8  CD2       11.6440   39.0590   13.5230 C.3    25  LEU25       0.0001
      9  N         14.3350   38.1560   17.1980 N.am   26  CYS26      -0.1970
     10  CA        14.0120   36.8910   17.8530 C.3    26  CYS26       0.1712
     11  C         15.1660   35.9200   17.6360 C.2    26  CYS26       0.2296
     12  O         16.0610   36.1740   16.8180 O.2    26  CYS26      -0.2864
     13  CB        12.7410   36.3200   17.2780 C.3    26  CYS26       0.0983
     14  SG        11.2240   36.8250   18.1480 S.3    26  CYS26      -0.0798
     15  N          4.9120   34.3520   17.1390 N.3    41  HIS41      -0.1226
     16  CA         4.6480   35.7150   17.6330 C.3    41  HIS41       0.1752
     17  C          5.7200   36.7160   17.2170 C.2    41  HIS41       0.2596
     18  O          5.4910   37.9420   17.2390 O.2    41  HIS41      -0.2718
     19  CB         4.3460   35.7380   19.1350 C.3    41  HIS41       0.0759
     20  CG         5.5550   35.7970   20.0080 C.ar   41  HIS41       0.0818
     21  ND1        6.0170   34.7030   20.7110 N.ar   41  HIS41      -0.2268
     22  CD2        6.3930   36.8190   20.2990 C.ar   41  HIS41       0.1154
     23  CE1        7.0720   35.0640   21.4220 C.ar   41  HIS41       0.1986
     24  NE2        7.3280   36.3350   21.1850 N.ar   41  HIS41      -0.2212
     25  N          6.8900   36.2110   16.8370 N.am   42  CYS42      -0.1970
     26  CA         7.9640   37.0330   16.3340 C.3    42  CYS42       0.1712
     27  C          7.5560   37.8300   15.1150 C.2    42  CYS42       0.2296
     28  O          8.1850   38.8570   14.7810 O.2    42  CYS42      -0.2864
     29  CB         9.1910   36.1490   16.0220 C.3    42  CYS42       0.0983
     30  SG         9.8940   35.4080   17.5070 S.3    42  CYS42      -0.0798
     31  N          4.2490   38.9080   14.3450 N.3    44  ASP44      -0.1225
     32  CA         2.9010   39.5060   14.4640 C.3    44  ASP44       0.1805
     33  C          2.8560   40.9200   13.8540 C.2    44  ASP44       0.2597
     34  O          1.7940   41.3420   13.3640 O.2    44  ASP44      -0.2718
     35  CB         2.4350   39.6370   15.9180 C.3    44  ASP44       0.1424
     36  CG         2.1270   38.3370   16.6010 C.2    44  ASP44       0.3668
     37  OD1        1.9530   37.2660   15.9630 O.co2  44  ASP44      -0.2456
     38  OD2        2.0300   38.3880   17.8570 O.co2  44  ASP44      -0.2456
     39  N          3.9800   41.6340   13.8740 N.am   45  LYS45      -0.1979
     40  CA         3.9860   43.0580   13.5140 C.3    45  LYS45       0.1596
     41  C          4.8760   43.4080   12.3360 C.2    45  LYS45       0.2287
     42  O          5.1440   44.5950   12.1030 O.2    45  LYS45      -0.2864
     43  CB         4.3880   43.9120   14.7170 C.3    45  LYS45       0.0298
     44  CG         3.5050   43.7870   15.9590 C.3    45  LYS45       0.0038
     45  CD         2.0520   44.0430   15.6320 C.3    45  LYS45       0.0206
     46  CE         1.3200   44.8210   16.6880 C.3    45  LYS45       0.1093
     47  NZ        -0.0930   45.0210   16.2160 N.3    45  LYS45      -0.1314
     48  N         -2.5630   35.7600   16.5300 N.3    84  PRO84      -0.2102
     49  CA        -1.5680   36.7730   16.8800 C.3    84  PRO84       0.1504
     50  C         -1.7140   37.3380   18.2830 C.2    84  PRO84       0.2576
     51  O         -2.8510   37.6120   18.7390 O.2    84  PRO84      -0.2718
     52  CB        -1.7770   37.8430   15.8100 C.3    84  PRO84       0.0282
     53  CG        -2.1050   37.0280   14.6360 C.3    84  PRO84       0.0208
     54  CD        -2.9840   35.9090   15.1320 C.3    84  PRO84       0.0893
     55  N         -0.5870   37.4620   18.9750 N.am   85  GLY85      -0.1957
     56  CA        -0.5330   38.0520   20.3080 C.3    85  GLY85       0.1869
     57  C         -0.8360   37.0990   21.4290 C.2    85  GLY85       0.2309
     58  O         -1.0370   37.5260   22.5750 O.2    85  GLY85      -0.2863
     59  N         15.8900   31.8750   33.9450 N.3   179  ASP179     -0.1225
     60  CA        14.7360   31.8080   33.0340 C.3   179  ASP179      0.1805
     61  C         15.1700   32.2150   31.6430 C.2   179  ASP179      0.2598
     62  O         16.2310   32.7980   31.4300 O.2   179  ASP179     -0.2718
     63  CB        13.6600   32.7930   33.4890 C.3   179  ASP179      0.1424
     64  CG        12.2360   32.4100   33.0930 C.2   179  ASP179      0.3668
     65  OD1       11.9680   31.3870   32.4170 O.co2 179  ASP179     -0.2456
     66  OD2       11.3130   33.1960   33.4840 O.co2 179  ASP179     -0.2456
     67  N         14.3050   31.9240   30.6850 N.am  180  SER180     -0.1938
     68  CA        14.3760   32.5510   29.3870 C.3   180  SER180      0.2055
     69  C         13.7760   33.9480   29.5740 C.2   180  SER180      0.2643
     70  O         13.0920   34.2010   30.5650 O.2   180  SER180     -0.2714
     71  CB        13.5480   31.7470   28.3620 C.3   180  SER180      0.2130
     72  OG        12.2060   31.6600   28.7820 O.3   180  SER180     -0.2179
     73  N         13.9710   34.8110   28.6100 N.am  181  CYS181     -0.1953
     74  CA        13.4870   36.2070   28.7600 C.3   181  CYS181      0.1843
     75  C         13.2590   36.8860   27.4470 C.2   181  CYS181      0.2625
     76  O         13.6970   36.4310   26.3940 O.2   181  CYS181     -0.2714
     77  CB        14.5120   36.9880   29.5790 C.3   181  CYS181      0.0997
     78  SG        13.7810   38.4620   30.4570 S.3   181  CYS181     -0.0797
     79  N         12.6040   38.0400   27.4930 N.am  182  LYS182     -0.1963
     80  CA        12.3910   38.8010   26.2880 C.3   182  LYS182      0.1728
     81  C         13.6710   38.9640   25.4800 C.2   182  LYS182      0.2616
     82  O         14.7360   39.3600   26.0050 O.2   182  LYS182     -0.2715
     83  CB        11.7890   40.1800   26.6250 C.3   182  LYS182      0.0311
     84  CG        11.5420   41.0260   25.4030 C.3   182  LYS182      0.0038
     85  CD        10.7520   42.2980   25.8630 C.3   182  LYS182      0.0206
     86  CE        10.4280   43.2360   24.7380 C.3   182  LYS182      0.1093
     87  NZ         9.7000   44.4430   25.3310 N.3   182  LYS182     -0.1314
     88  N         13.5610   38.6840   24.1830 N.am  183  GLY183     -0.1955
     89  CA        14.6730   38.6410   23.2780 C.3   183  GLY183      0.1869
     90  C         15.1220   37.2130   22.8980 C.2   183  GLY183      0.2309
     91  O         15.8340   37.0560   21.9110 O.2   183  GLY183     -0.2863
     92  N         12.7680   34.6760   22.5270 N.3   185  SER185     -0.1217
     93  CA        11.6840   33.9580   21.8300 C.3   185  SER185      0.1889
     94  C         12.1350   33.4260   20.5010 C.2   185  SER185      0.2288
     95  O         12.8380   34.1010   19.7280 O.2   185  SER185     -0.2866
     96  CB        10.4600   34.8430   21.5890 C.3   185  SER185      0.2089
     97  OG         9.8320   35.2160   22.8290 O.3   185  SER185     -0.2183
     98  N         11.2850   28.5860   22.6290 N.3   203  VAL203     -0.1231
     99  CA        11.0170   29.6800   23.6120 C.3   203  VAL203      0.1692
    100  C          9.7970   30.4700   23.1260 C.2   203  VAL203      0.2593
    101  O          9.7710   31.0380   22.0270 O.2   203  VAL203     -0.2718
    102  CB        12.2040   30.6080   23.8060 C.3   203  VAL203      0.0266
    103  CG1       11.8460   31.7430   24.8200 C.3   203  VAL203      0.0020
    104  CG2       13.4560   29.8330   24.2950 C.3   203  VAL203      0.0020
    105  N          8.7490   30.4570   23.9120 N.am  204  SER204     -0.1938
    106  CA         7.5380   31.2280   23.5670 C.3   204  SER204      0.2055
    107  C          7.6100   32.5720   24.3410 C.2   204  SER204      0.2643
    108  O          8.5750   33.3130   24.1650 O.2   204  SER204     -0.2714
    109  CB         6.3010   30.3540   23.7890 C.3   204  SER204      0.2130
    110  OG         5.0640   30.9970   23.4790 O.3   204  SER204     -0.2179
    111  N          6.5980   32.9060   25.1270 N.am  205  TRP205     -0.1959
    112  CA         6.6090   34.2130   25.8520 C.3   205  TRP205      0.1771
    113  C          5.6320   34.1970   26.9990 C.2   205  TRP205      0.2620
    114  O          4.9210   33.1920   27.1790 O.2   205  TRP205     -0.2715
    115  CB         6.3670   35.4120   24.9160 C.3   205  TRP205      0.0590
    116  CG         5.1360   35.4420   24.0490 C.ar  205  TRP205      0.0006
    117  CD1        4.3320   34.4100   23.6580 C.ar  205  TRP205      0.0946
    118  CD2        4.6510   36.6060   23.3770 C.ar  205  TRP205      0.0152
    119  NE1        3.3520   34.8780   22.7900 N.ar  205  TRP205     -0.2442
    120  CE2        3.5300   36.2210   22.6130 C.ar  205  TRP205      0.0810
    121  CE3        5.0730   37.9420   23.3490 C.ar  205  TRP205      0.0012
    122  CZ2        2.8290   37.1100   21.8530 C.ar  205  TRP205      0.0191
    123  CZ3        4.3740   38.8300   22.6050 C.ar  205  TRP205      0.0001
    124  CH2        3.2420   38.4250   21.8760 C.ar  205  TRP205      0.0015
    125  N          5.6940   35.2990   27.7700 N.am  206  GLY206     -0.1954
    126  CA         4.8720   35.5860   28.9660 C.3   206  GLY206      0.1869
    127  C          5.0370   37.0580   29.2960 C.2   206  GLY206      0.2309
    128  O          5.7650   37.7800   28.6020 O.2   206  GLY206     -0.2863
    129  N          6.8170   39.5510   31.1850 N.3   208  GLY208     -0.1210
    130  CA         8.0570   39.6050   31.9420 C.3   208  GLY208      0.1956
    131  C          8.6720   38.2260   32.1030 C.2   208  GLY208      0.2612
    132  O          8.1770   37.2480   31.5570 O.2   208  GLY208     -0.2717
    133  N          9.7600   38.1620   32.8580 N.am  209  CYS209     -0.1970
    134  CA        10.4930   36.9200   32.9990 C.3   209  CYS209      0.1712
    135  C         11.1220   36.8960   34.3480 C.2   209  CYS209      0.2296
    136  O         11.1070   37.9130   35.0450 O.2   209  CYS209     -0.2864
    137  CB        11.5400   36.8220   31.8990 C.3   209  CYS209      0.0983
    138  SG        13.0900   37.7020   32.2600 S.3   209  CYS209     -0.0798
    139  N          6.4400   31.6510   38.6440 N.3   214  HIS214     -0.1226
    140  CA         6.1320   31.4230   37.2320 C.3   214  HIS214      0.1752
    141  C          7.3020   30.7490   36.5310 C.2   214  HIS214      0.2596
    142  O          8.4600   31.0610   36.7880 O.2   214  HIS214     -0.2718
    143  CB         5.7780   32.7310   36.5280 C.3   214  HIS214      0.0759
    144  CG         4.4600   33.2910   36.9550 C.ar  214  HIS214      0.0818
    145  ND1        3.2590   32.7300   36.5760 N.ar  214  HIS214     -0.2268
    146  CD2        4.1530   34.3120   37.7910 C.ar  214  HIS214      0.1154
    147  CE1        2.2660   33.4140   37.1220 C.ar  214  HIS214      0.1986
    148  NE2        2.7830   34.3790   37.8630 N.ar  214  HIS214     -0.2212
    149  N          6.9580   29.7850   35.6800 N.am  215  PHE215     -0.1962
    150  CA         7.9370   29.0690   34.8710 C.3   215  PHE215      0.1771
    151  C          7.8860   29.5780   33.4430 C.2   215  PHE215      0.2620
    152  O          6.8600   30.0860   32.9980 O.2   215  PHE215     -0.2715
    153  CB         7.5830   27.5940   34.8340 C.3   215  PHE215      0.0574
    154  CG         7.7750   26.9120   36.1390 C.ar  215  PHE215     -0.0200
    155  CD1        9.0100   26.4340   36.4980 C.ar  215  PHE215     -0.0042
    156  CD2        6.7150   26.7890   37.0210 C.ar  215  PHE215     -0.0042
    157  CE1        9.1990   25.8150   37.7340 C.ar  215  PHE215     -0.0003
    158  CE2        6.8980   26.1750   38.2500 C.ar  215  PHE215     -0.0003
    159  CZ         8.1400   25.6950   38.6020 C.ar  215  PHE215     -0.0000
    160  N          8.9820   29.3910   32.7120 N.am  216  GLY216     -0.1940
    161  CA         8.9530   29.6620   31.2730 C.3   216  GLY216      0.2014
    162  C          8.0480   28.6990   30.5180 C.2   216  GLY216      0.2638
    163  O          7.9120   27.5270   30.8740 O.2   216  GLY216     -0.2714
    164  N          7.4530   29.2180   29.4440 N.am  217  VAL217     -0.1977
    165  CA         6.5370   28.4670   28.5950 C.3   217  VAL217      0.1596
    166  C          7.2310   28.2370   27.2500 C.2   217  VAL217      0.2287
    167  O          7.8580   29.1610   26.7160 O.2   217  VAL217     -0.2864
    168  CB         5.2330   29.2060   28.3720 C.3   217  VAL217      0.0276
    169  CG1        4.2760   28.3780   27.4510 C.3   217  VAL217      0.0022
    170  CG2        4.5200   29.5020   29.7420 C.3   217  VAL217      0.0022
@<TRIPOS>BOND
     1    42    41    2
     2    41    40    1
     3    34    33    2
     4    40    39    1
     5    40    43    1
     6     8     6    1
     7    33    39   am
     8    33    32    1
     9    31    32    1
    10    32    35    1
    11    53    54    1
    12    53    52    1
    13    43    44    1
    14    28    27    2
    15     6     5    1
    16     6     7    1
    17     5     2    1
    18    27    26    1
    19    54    48    1
    20    45    44    1
    21    45    46    1
    22    52    49    1
    23    35    36    1
    24    37    36   ar
    25    29    26    1
    26    29    30    1
    27    47    46    1
    28    26    25    1
    29     1     2    1
    30     2     3    1
    31    48    49    1
    32    36    38   ar
    33    12    11    2
    34    25    17   am
    35    49    50    1
    36    15    16    1
    37     9     3   am
    38     9    10    1
    39    17    18    2
    40    17    16    1
    41    13    10    1
    42    13    14    1
    43     3     4    2
    44    30    14    1
    45    16    19    1
    46    11    10    1
    47    50    51    2
    48    50    55   am
    49    55    56    1
    50    19    20    1
    51    95    94    2
    52    20    22   ar
    53    20    21   ar
    54    22    24   ar
    55    56    57    1
    56    94    93    1
    57    21    23   ar
    58    24    23   ar
    59    57    58    2
    60    96    93    1
    61    96    97    1
    62    93    92    1
    63   122   124   ar
    64   122   120   ar
    65   124   123   ar
    66    91    90    2
    67   101   100    2
    68   123   121   ar
    69   120   119   ar
    70   120   118   ar
    71    98    99    1
    72   119   117   ar
    73    90    89    1
    74   100    99    1
    75   100   105   am
    76    89    88    1
    77   121   118   ar
    78   118   116   ar
    79   110   109    1
    80   106   109    1
    81   106   105    1
    82   106   107    1
    83    99   102    1
    84   117   116   ar
    85   102   104    1
    86   102   103    1
    87   116   115    1
    88   108   107    2
    89    88    81   am
    90   107   111   am
    91    86    87    1
    92    86    85    1
    93   115   112    1
    94   111   112    1
    95    84    85    1
    96    84    83    1
    97    81    82    2
    98    81    80    1
    99   112   113    1
   100    80    83    1
   101    80    79    1
   102    76    75    2
   103   167   166    2
   104   113   114    2
   105   113   125   am
   106   166   165    1
   107    75    79   am
   108    75    74    1
   109   169   168    1
   110   125   126    1
   111    71    72    1
   112    71    68    1
   113   168   165    1
   114   168   170    1
   115   165   164    1
   116   128   127    2
   117    73    74    1
   118    73    69   am
   119    74    77    1
   120   126   127    1
   121    68    69    1
   122    68    67    1
   123   164   162   am
   124    69    70    2
   125    77    78    1
   126    78   138    1
   127   162   163    2
   128   162   161    1
   129    67    61   am
   130   129   130    1
   131   161   160    1
   132    62    61    2
   133   132   131    2
   134    61    60    1
   135   137   138    1
   136   137   134    1
   137   130   131    1
   138   131   133   am
   139    65    64   ar
   140   160   151   am
   141   133   134    1
   142   152   151    2
   143   134   135    1
   144    60    63    1
   145    60    59    1
   146    64    66   ar
   147    64    63    1
   148   151   150    1
   149   135   136    2
   150   153   150    1
   151   153   154    1
   152   150   149    1
   153   149   141   am
   154   154   155   ar
   155   154   156   ar
   156   155   157   ar
   157   143   144    1
   158   143   140    1
   159   141   142    2
   160   141   140    1
   161   145   144   ar
   162   145   147   ar
   163   144   146   ar
   164   156   158   ar
   165   147   148   ar
   166   140   139    1
   167   157   159   ar
   168   146   148   ar
   169   158   159   ar
