@<TRIPOS>MOLECULE
tmp/5pajB00.pdb
 163 161 0 0 0
SMALL
GASTEIGER

@<TRIPOS>ATOM
      1  N          4.7500   33.9910   17.4260 N.3    41  HIS41      -0.1241
      2  CA         4.4990   35.3260   17.9960 C.3    41  HIS41       0.1621
      3  C          5.5600   36.3610   17.6240 C.2    41  HIS41       0.2264
      4  O          5.2760   37.5580   17.6200 O.2    41  HIS41      -0.2867
      5  CB         4.2580   35.2370   19.5150 C.3    41  HIS41       0.0745
      6  CG         5.5030   35.2400   20.3390 C.ar   41  HIS41       0.0817
      7  ND1        5.9620   34.1170   20.9850 N.ar   41  HIS41      -0.2268
      8  CD2        6.4040   36.2180   20.6050 C.ar   41  HIS41       0.1154
      9  CE1        7.0750   34.4030   21.6260 C.ar   41  HIS41       0.1986
     10  NE2        7.3640   35.6720   21.4130 N.ar   41  HIS41      -0.2212
     11  N          4.1660   38.7720   14.7790 N.3    44  ASP44      -0.1239
     12  CA         2.8600   39.4220   14.9120 C.3    44  ASP44       0.1674
     13  C          2.8450   40.8510   14.3320 C.2    44  ASP44       0.2266
     14  O          1.8260   41.2940   13.8020 O.2    44  ASP44      -0.2867
     15  CB         2.4140   39.4700   16.3740 C.3    44  ASP44       0.1410
     16  CG         1.8250   38.1630   16.8630 C.2    44  ASP44       0.3668
     17  OD1        1.6900   37.1720   16.0780 O.co2  44  ASP44      -0.2456
     18  OD2        1.5020   38.1310   18.0710 O.co2  44  ASP44      -0.2456
     19  N         -1.2860   37.4580   18.9490 N.3    85  GLY85      -0.1210
     20  CA        -1.4650   38.0620   20.2530 C.3    85  GLY85       0.1956
     21  C         -1.8200   37.1050   21.3680 C.2    85  GLY85       0.2613
     22  O         -1.9330   37.5380   22.5040 O.2    85  GLY85      -0.2717
     23  N         -2.0100   35.8190   21.0550 N.am   86  THR86      -0.1938
     24  CA        -2.2550   34.7840   22.0530 C.3    86  THR86       0.2028
     25  C         -1.0930   33.7690   22.0830 C.2    86  THR86       0.2642
     26  O         -0.1160   33.9150   21.3400 O.2    86  THR86      -0.2714
     27  CB        -3.5820   34.0890   21.7900 C.3    86  THR86       0.1808
     28  OG1       -3.4710   33.3080   20.6100 O.3    86  THR86      -0.2208
     29  CG2       -4.6830   35.1040   21.5830 C.3    86  THR86       0.0379
     30  N         -1.1730   32.7740   22.9640 N.am   87  THR87      -0.1950
     31  CA        -0.0060   31.9330   23.2860 C.3    87  THR87       0.1897
     32  C          0.0100   30.5380   22.6440 C.2    87  THR87       0.2313
     33  O          1.0830   29.9550   22.4950 O.2    87  THR87      -0.2863
     34  CB         0.1850   31.7850   24.8140 C.3    87  THR87       0.1794
     35  OG1       -0.9970   31.2320   25.4280 O.3    87  THR87      -0.2208
     36  CG2        0.5120   33.1270   25.4170 C.3    87  THR87       0.0378
     37  N          2.4010   28.1790   19.2440 N.3    90  ASP90      -0.1239
     38  CA         3.4020   29.2160   19.0330 C.3    90  ASP90       0.1674
     39  C          4.6450   28.6610   18.3230 C.2    90  ASP90       0.2266
     40  O          5.6820   28.4170   18.9470 O.2    90  ASP90      -0.2867
     41  CB         3.7650   29.8790   20.3730 C.3    90  ASP90       0.1410
     42  CG         4.5320   31.1740   20.2140 C.2    90  ASP90       0.3668
     43  OD1        4.6040   31.7110   19.0790 O.co2  90  ASP90      -0.2456
     44  OD2        5.0790   31.6670   21.2480 O.co2  90  ASP90      -0.2456
     45  N         15.8230   31.6480   34.1180 N.3   182  ASP182     -0.1225
     46  CA        14.7380   31.5950   33.1320 C.3   182  ASP182      0.1805
     47  C         15.2550   32.0280   31.7580 C.2   182  ASP182      0.2598
     48  O         16.3280   32.6430   31.6330 O.2   182  ASP182     -0.2718
     49  CB        13.6090   32.5430   33.5480 C.3   182  ASP182      0.1424
     50  CG        12.2560   32.2170   32.8970 C.2   182  ASP182      0.3668
     51  OD1       12.0950   31.1470   32.2640 O.co2 182  ASP182     -0.2456
     52  OD2       11.3300   33.0640   33.0360 O.co2 182  ASP182     -0.2456
     53  N         14.4890   31.6810   30.7290 N.am  183  SER183     -0.1938
     54  CA        14.5660   32.3770   29.4580 C.3   183  SER183      0.2055
     55  C         13.6290   33.5930   29.5600 C.2   183  SER183      0.2643
     56  O         12.7540   33.6490   30.4460 O.2   183  SER183     -0.2714
     57  CB        14.2250   31.4460   28.2880 C.3   183  SER183      0.2130
     58  OG        12.9680   30.8260   28.4200 O.3   183  SER183     -0.2179
     59  N         13.8310   34.5520   28.6640 N.am  184  CYS184     -0.1953
     60  CA        13.2610   35.9120   28.7310 C.3   184  CYS184      0.1843
     61  C         12.7690   36.3560   27.3710 C.2   184  CYS184      0.2625
     62  O         13.0630   35.7280   26.3610 O.2   184  CYS184     -0.2714
     63  CB        14.3450   36.9200   29.1710 C.3   184  CYS184      0.0997
     64  SG        15.0010   36.6860   30.8090 S.3   184  CYS184     -0.0797
     65  N         11.9790   37.4280   27.3340 N.am  185  LYS185     -0.1977
     66  CA        11.3820   37.9570   26.0870 C.3   185  LYS185      0.1596
     67  C         12.2450   37.8120   24.8260 C.2   185  LYS185      0.2287
     68  O         11.8150   37.2210   23.8280 O.2   185  LYS185     -0.2864
     69  CB        11.0800   39.4600   26.2600 C.3   185  LYS185      0.0298
     70  CG         9.9020   39.8050   27.1590 C.3   185  LYS185      0.0038
     71  CD         9.9490   41.2700   27.6490 C.3   185  LYS185      0.0206
     72  CE        10.3740   42.2550   26.5650 C.3   185  LYS185      0.1093
     73  NZ         9.9350   43.6700   26.8400 N.3   185  LYS185     -0.1314
     74  N         12.7930   34.5340   22.8460 N.3   188  SER188     -0.1217
     75  CA        11.6720   33.9650   22.1290 C.3   188  SER188      0.1889
     76  C         12.1200   33.3710   20.8250 C.2   188  SER188      0.2288
     77  O         12.9000   33.9930   20.0600 O.2   188  SER188     -0.2866
     78  CB        10.5770   35.0010   21.8730 C.3   188  SER188      0.2089
     79  OG        10.0200   35.4310   23.1160 O.3   188  SER188     -0.2183
     80  N         11.2740   28.5280   22.9810 N.3   206  VAL206     -0.1231
     81  CA        11.0460   29.6310   23.9290 C.3   206  VAL206      0.1692
     82  C          9.7970   30.4060   23.5060 C.2   206  VAL206      0.2593
     83  O          9.7610   30.9980   22.4450 O.2   206  VAL206     -0.2718
     84  CB        12.2600   30.5710   24.0400 C.3   206  VAL206      0.0266
     85  CG1       11.9560   31.7340   25.0410 C.3   206  VAL206      0.0020
     86  CG2       13.5370   29.8170   24.4300 C.3   206  VAL206      0.0020
     87  N          8.7630   30.3820   24.3420 N.am  207  SER207     -0.1938
     88  CA         7.4460   30.8990   23.9510 C.3   207  SER207      0.2055
     89  C          6.9290   32.0210   24.8570 C.2   207  SER207      0.2643
     90  O          6.7780   33.1300   24.3930 O.2   207  SER207     -0.2714
     91  CB         6.4190   29.7680   23.8660 C.3   207  SER207      0.2130
     92  OG         5.1520   30.2430   23.4470 O.3   207  SER207     -0.2179
     93  N          6.6200   31.7410   26.1150 N.am  208  TRP208     -0.1959
     94  CA         6.0590   32.7930   26.9930 C.3   208  TRP208      0.1771
     95  C          6.2780   32.5080   28.4650 C.2   208  TRP208      0.2620
     96  O          6.7370   31.4470   28.8210 O.2   208  TRP208     -0.2715
     97  CB         4.5670   33.0020   26.7420 C.3   208  TRP208      0.0590
     98  CG         3.6510   31.8130   27.0050 C.ar  208  TRP208      0.0006
     99  CD1        3.4060   30.7720   26.1610 C.ar  208  TRP208      0.0946
    100  CD2        2.8320   31.5820   28.1690 C.ar  208  TRP208      0.0152
    101  NE1        2.5070   29.8980   26.7180 N.ar  208  TRP208     -0.2442
    102  CE2        2.1380   30.3680   27.9550 C.ar  208  TRP208      0.0810
    103  CE3        2.6200   32.2780   29.3570 C.ar  208  TRP208      0.0012
    104  CZ2        1.2410   29.8390   28.8800 C.ar  208  TRP208      0.0191
    105  CZ3        1.7450   31.7290   30.3010 C.ar  208  TRP208      0.0001
    106  CH2        1.0540   30.5270   30.0450 C.ar  208  TRP208      0.0015
    107  N          5.9470   33.4910   29.2970 N.am  209  GLY209     -0.1940
    108  CA         5.8970   33.3130   30.7570 C.3   209  GLY209      0.2014
    109  C          5.3870   34.5890   31.4270 C.2   209  GLY209      0.2639
    110  O          4.9460   35.5060   30.7390 O.2   209  GLY209     -0.2714
    111  N          5.4600   34.6390   32.7600 N.am  210  GLN210     -0.1963
    112  CA         5.0850   35.8370   33.5310 C.3   210  GLN210      0.1733
    113  C          6.3360   36.6550   33.8520 C.2   210  GLN210      0.2617
    114  O          7.1180   36.2840   34.7260 O.2   210  GLN210     -0.2715
    115  CB         4.3840   35.4360   34.8350 C.3   210  GLN210      0.0408
    116  CG         3.2280   34.4580   34.6560 C.3   210  GLN210      0.0908
    117  CD         2.0300   35.0510   33.9410 C.2   210  GLN210      0.2608
    118  OE1        1.0920   34.3290   33.5970 O.2   210  GLN210     -0.2717
    119  NE2        2.0430   36.3690   33.7240 N.am  210  GLN210     -0.0878
    120  N          6.5340   37.7710   33.1450 N.am  211  GLY211     -0.1940
    121  CA         7.7540   38.5760   33.3300 C.3   211  GLY211      0.2014
    122  C          8.8910   37.6220   33.0320 C.2   211  GLY211      0.2639
    123  O          8.6300   36.5960   32.3830 O.2   211  GLY211     -0.2714
    124  N         10.1270   37.8890   33.4810 N.am  212  CYS212     -0.1967
    125  CA        11.2410   36.9300   33.3410 C.3   212  CYS212      0.1712
    126  C         11.8230   36.6130   34.7050 C.2   212  CYS212      0.2296
    127  O         12.1370   37.5330   35.4560 O.2   212  CYS212     -0.2864
    128  CB        12.3750   37.4320   32.4150 C.3   212  CYS212      0.0983
    129  SG        13.3720   36.0070   31.8280 S.3   212  CYS212     -0.0798
    130  N          7.0640   29.4460   36.0640 N.3   218  PHE218     -0.1227
    131  CA         8.0150   28.7520   35.1880 C.3   218  PHE218      0.1736
    132  C          7.9430   29.2880   33.7610 C.2   218  PHE218      0.2596
    133  O          6.9930   29.9690   33.4050 O.2   218  PHE218     -0.2718
    134  CB         7.6900   27.2630   35.1650 C.3   218  PHE218      0.0547
    135  CG         7.8660   26.5970   36.4850 C.ar  218  PHE218     -0.0202
    136  CD1        9.0950   26.0800   36.8390 C.ar  218  PHE218     -0.0042
    137  CD2        6.8150   26.4960   37.3680 C.ar  218  PHE218     -0.0042
    138  CE1        9.2990   25.4590   38.0560 C.ar  218  PHE218     -0.0003
    139  CE2        6.9930   25.8840   38.6010 C.ar  218  PHE218     -0.0003
    140  CZ         8.2490   25.3630   38.9480 C.ar  218  PHE218     -0.0000
    141  N          8.9550   28.9630   32.9520 N.am  219  GLY219     -0.1942
    142  CA         8.9540   29.2850   31.5060 C.3   219  GLY219      0.2014
    143  C          8.0190   28.3430   30.7850 C.2   219  GLY219      0.2639
    144  O          7.8490   27.1960   31.1940 O.2   219  GLY219     -0.2714
    145  N          7.3410   28.8320   29.7590 N.am  220  VAL220     -0.1963
    146  CA         6.4650   27.9790   28.9840 C.3   220  VAL220      0.1727
    147  C          7.0160   27.8900   27.5590 C.2   220  VAL220      0.2616
    148  O          7.4370   28.8990   26.9560 O.2   220  VAL220     -0.2715
    149  CB         4.9800   28.4410   29.0260 C.3   220  VAL220      0.0290
    150  CG1        4.0920   27.4030   28.3550 C.3   220  VAL220      0.0023
    151  CG2        4.5210   28.6560   30.5150 C.3   220  VAL220      0.0023
    152  N          7.0310   26.6590   27.0520 N.am  221  TYR221     -0.1974
    153  CA         7.7010   26.3070   25.8050 C.3   221  TYR221      0.1639
    154  C          6.7230   25.5970   24.8960 C.2   221  TYR221      0.2290
    155  O          5.8860   24.8320   25.3480 O.2   221  TYR221     -0.2864
    156  CB         8.9110   25.3890   26.0730 C.3   221  TYR221      0.0560
    157  CG         9.9650   26.0760   26.9050 C.ar  221  TYR221     -0.0198
    158  CD1        9.8720   26.1070   28.3130 C.ar  221  TYR221     -0.0009
    159  CD2       11.0250   26.7400   26.3020 C.ar  221  TYR221     -0.0009
    160  CE1       10.8290   26.7780   29.0870 C.ar  221  TYR221      0.0417
    161  CE2       11.9730   27.3940   27.0510 C.ar  221  TYR221      0.0417
    162  CZ        11.8740   27.4260   28.4490 C.ar  221  TYR221      0.1957
    163  OH        12.8610   28.1250   29.1230 O.3   221  TYR221     -0.2866
@<TRIPOS>BOND
     1    14    13    2
     2    13    12    1
     3    11    12    1
     4    12    15    1
     5    17    16   ar
     6    15    16    1
     7    16    18   ar
     8     1     2    1
     9     4     3    2
    10     3     2    1
    11     2     5    1
    12    39    40    2
    13    39    38    1
    14    19    20    1
    15    38    37    1
    16    38    41    1
    17    43    42   ar
    18     5     6    1
    19    77    76    2
    20    42    41    1
    21    42    44   ar
    22    20    21    1
    23     6     8   ar
    24     6     7   ar
    25     8    10   ar
    26    28    27    1
    27    76    75    1
    28     7     9   ar
    29    23    21   am
    30    23    24    1
    31    26    25    2
    32    21    22    2
    33    10     9   ar
    34    29    27    1
    35    27    24    1
    36    78    75    1
    37    78    79    1
    38    24    25    1
    39    25    30   am
    40    75    74    1
    41    83    82    2
    42    33    32    2
    43    32    31    1
    44    30    31    1
    45    80    81    1
    46    31    34    1
    47    92    91    1
    48    82    81    1
    49    82    87   am
    50    68    67    2
    51    91    88    1
    52    81    84    1
    53    88    87    1
    54    88    89    1
    55    84    86    1
    56    84    85    1
    57    90    89    2
    58    34    36    1
    59    34    35    1
    60    67    66    1
    61    89    93   am
    62   154   155    2
    63   154   153    1
    64   153   156    1
    65   153   152    1
    66   156   157    1
    67    66    69    1
    68    66    65    1
    69    93    94    1
    70    99   101   ar
    71    99    98   ar
    72    69    70    1
    73   159   157   ar
    74   159   161   ar
    75    62    61    2
    76    72    73    1
    77    72    71    1
    78   101   102   ar
    79    97    94    1
    80    97    98    1
    81   157   158   ar
    82   148   147    2
    83    94    95    1
    84    98   100   ar
    85   161   162   ar
    86   152   147   am
    87    70    71    1
    88    65    61   am
    89    61    60    1
    90   147   146    1
    91   102   100   ar
    92   102   104   ar
    93   100   103   ar
    94    57    58    1
    95    57    54    1
    96   158   160   ar
    97   150   149    1
    98   162   160   ar
    99   162   163    1
   100    95    96    2
   101    95   107   am
   102    59    60    1
   103    59    55   am
   104    60    63    1
   105   104   106   ar
   106   146   149    1
   107   146   145    1
   108   149   151    1
   109    63    64    1
   110   107   108    1
   111   103   105   ar
   112    54    55    1
   113    54    53    1
   114    55    56    2
   115   145   143   am
   116   106   105   ar
   117    53    47   am
   118   110   109    2
   119   108   109    1
   120   143   144    2
   121   143   142    1
   122    64   129    1
   123   109   111   am
   124   142   141    1
   125    48    47    2
   126    47    46    1
   127   129   128    1
   128    51    50   ar
   129   123   122    2
   130   128   125    1
   131   111   112    1
   132    50    52   ar
   133    50    49    1
   134   141   132   am
   135   122   121    1
   136   122   124   am
   137    46    49    1
   138    46    45    1
   139   120   121    1
   140   120   113   am
   141   125   124    1
   142   125   126    1
   143   133   132    2
   144   112   113    1
   145   112   115    1
   146   118   117    2
   147   119   117   am
   148   132   131    1
   149   113   114    2
   150   117   116    1
   151   116   115    1
   152   126   127    2
   153   134   131    1
   154   134   135    1
   155   131   130    1
   156   135   136   ar
   157   135   137   ar
   158   136   138   ar
   159   137   139   ar
   160   138   140   ar
   161   139   140   ar
