@<TRIPOS>MOLECULE
tmp/5pakB00.pdb
 151 149 0 0 0
SMALL
GASTEIGER

@<TRIPOS>ATOM
      1  N          4.8470   34.1140   17.4230 N.3    41  HIS41      -0.1241
      2  CA         4.5960   35.4480   18.0070 C.3    41  HIS41       0.1621
      3  C          5.6650   36.4820   17.6410 C.2    41  HIS41       0.2264
      4  O          5.4190   37.6910   17.7160 O.2    41  HIS41      -0.2867
      5  CB         4.3530   35.3670   19.5240 C.3    41  HIS41       0.0745
      6  CG         5.5910   35.3980   20.3640 C.ar   41  HIS41       0.0817
      7  ND1        6.1120   34.2720   20.9650 N.ar   41  HIS41      -0.2268
      8  CD2        6.3750   36.4300   20.7540 C.ar   41  HIS41       0.1154
      9  CE1        7.1820   34.6070   21.6640 C.ar   41  HIS41       0.1986
     10  NE2        7.3680   35.9110   21.5460 N.ar   41  HIS41      -0.2212
     11  N         -1.1350   37.7320   19.1260 N.3    85  GLY85      -0.1210
     12  CA        -1.3390   38.3320   20.4430 C.3    85  GLY85       0.1956
     13  C         -1.6450   37.3470   21.5560 C.2    85  GLY85       0.2613
     14  O         -1.7550   37.7440   22.7240 O.2    85  GLY85      -0.2717
     15  N         -1.7850   36.0660   21.2120 N.am   86  THR86      -0.1938
     16  CA        -2.0830   35.0170   22.1940 C.3    86  THR86       0.2028
     17  C         -0.9280   34.0070   22.2740 C.2    86  THR86       0.2642
     18  O          0.1100   34.2030   21.6500 O.2    86  THR86      -0.2714
     19  CB        -3.4090   34.3150   21.8770 C.3    86  THR86       0.1808
     20  OG1       -3.2710   33.5250   20.6910 O.3    86  THR86      -0.2208
     21  CG2       -4.5220   35.3470   21.6860 C.3    86  THR86       0.0379
     22  N         -1.1100   32.9420   23.0530 N.am   87  THR87      -0.1950
     23  CA        -0.0010   32.0590   23.4430 C.3    87  THR87       0.1897
     24  C          0.0420   30.6930   22.7480 C.2    87  THR87       0.2313
     25  O          1.1170   30.1260   22.5950 O.2    87  THR87      -0.2863
     26  CB        -0.0170   31.8090   24.9630 C.3    87  THR87       0.1794
     27  OG1       -1.3170   31.3610   25.3680 O.3    87  THR87      -0.2208
     28  CG2        0.3330   33.0800   25.7060 C.3    87  THR87       0.0378
     29  N          2.4520   28.3770   19.2530 N.3    90  ASP90      -0.1239
     30  CA         3.4990   29.3650   19.0410 C.3    90  ASP90       0.1674
     31  C          4.7160   28.7670   18.3400 C.2    90  ASP90       0.2266
     32  O          5.7600   28.5310   18.9490 O.2    90  ASP90      -0.2867
     33  CB         3.8960   30.0040   20.3770 C.3    90  ASP90       0.1410
     34  CG         4.6670   31.3000   20.2040 C.2    90  ASP90       0.3668
     35  OD1        4.6820   31.8510   19.0760 O.co2  90  ASP90      -0.2456
     36  OD2        5.2570   31.7770   21.2000 O.co2  90  ASP90      -0.2456
     37  N         -2.9090   32.8260   31.0280 N.3   165  PRO165     -0.2116
     38  CA        -3.2040   31.8250   29.9990 C.3   165  PRO165      0.1372
     39  C         -3.0830   30.3740   30.4650 C.2   165  PRO165      0.2244
     40  O         -2.2810   30.0620   31.3500 O.2   165  PRO165     -0.2868
     41  CB        -2.1600   32.1200   28.9120 C.3   165  PRO165      0.0268
     42  CG        -1.6950   33.4950   29.1720 C.3   165  PRO165      0.0207
     43  CD        -1.7560   33.6610   30.6490 C.3   165  PRO165      0.0892
     44  N         15.7290   31.7500   33.9620 N.3   182  ASP182     -0.1225
     45  CA        14.6330   31.6890   32.9930 C.3   182  ASP182      0.1805
     46  C         15.1470   32.1360   31.6230 C.2   182  ASP182      0.2598
     47  O         16.2110   32.7390   31.5120 O.2   182  ASP182     -0.2718
     48  CB        13.4840   32.6030   33.4440 C.3   182  ASP182      0.1424
     49  CG        12.1350   32.2760   32.7880 C.2   182  ASP182      0.3668
     50  OD1       12.0100   31.2770   32.0340 O.co2 182  ASP182     -0.2456
     51  OD2       11.1740   33.0400   33.0530 O.co2 182  ASP182     -0.2456
     52  N         14.3980   31.8180   30.5780 N.am  183  SER183     -0.1938
     53  CA        14.5920   32.4770   29.2950 C.3   183  SER183      0.2055
     54  C         13.7400   33.7430   29.3580 C.2   183  SER183      0.2643
     55  O         12.8780   33.8590   30.2360 O.2   183  SER183     -0.2714
     56  CB        14.1770   31.5570   28.1480 C.3   183  SER183      0.2130
     57  OG        12.8600   31.1010   28.3400 O.3   183  SER183     -0.2179
     58  N         13.9850   34.6990   28.4650 N.am  184  CYS184     -0.1953
     59  CA        13.2830   35.9790   28.5100 C.3   184  CYS184      0.1843
     60  C         12.7860   36.3900   27.1270 C.2   184  CYS184      0.2625
     61  O         12.9810   35.6720   26.1390 O.2   184  CYS184     -0.2714
     62  CB        14.2140   37.0570   29.0880 C.3   184  CYS184      0.0997
     63  SG        13.3950   38.5090   29.8430 S.3   184  CYS184     -0.0797
     64  N         12.2160   37.5930   27.0870 N.am  185  LYS185     -0.1977
     65  CA        11.6090   38.1810   25.8910 C.3   185  LYS185      0.1596
     66  C         12.4060   37.9640   24.6070 C.2   185  LYS185      0.2287
     67  O         11.9130   37.3500   23.6560 O.2   185  LYS185     -0.2864
     68  CB        11.3910   39.6870   26.1150 C.3   185  LYS185      0.0298
     69  CG        10.1830   39.9780   26.9960 C.3   185  LYS185      0.0038
     70  CD        10.0900   41.4340   27.4480 C.3   185  LYS185      0.0206
     71  CE        10.2940   42.4240   26.3110 C.3   185  LYS185      0.1093
     72  NZ         9.6480   43.7360   26.6280 N.3   185  LYS185     -0.1314
     73  N         12.8850   34.5470   22.6480 N.3   188  SER188     -0.1217
     74  CA        11.7480   33.9430   21.9490 C.3   188  SER188      0.1889
     75  C         12.1610   33.3230   20.6180 C.2   188  SER188      0.2288
     76  O         12.9140   33.9060   19.8420 O.2   188  SER188     -0.2866
     77  CB        10.6510   34.9790   21.6770 C.3   188  SER188      0.2089
     78  OG        10.0120   35.3980   22.8720 O.3   188  SER188     -0.2183
     79  N         11.3780   28.6170   22.8900 N.3   206  VAL206     -0.1231
     80  CA        11.1410   29.6750   23.8770 C.3   206  VAL206      0.1692
     81  C          9.8880   30.4390   23.4440 C.2   206  VAL206      0.2593
     82  O          9.8300   30.9650   22.3250 O.2   206  VAL206     -0.2718
     83  CB        12.3360   30.6330   23.9890 C.3   206  VAL206      0.0266
     84  CG1       12.0260   31.7670   24.9750 C.3   206  VAL206      0.0020
     85  CG2       13.5970   29.8910   24.4060 C.3   206  VAL206      0.0020
     86  N          8.8760   30.4740   24.3090 N.am  207  SER207     -0.1938
     87  CA         7.5470   30.9770   23.9230 C.3   207  SER207      0.2055
     88  C          7.0300   32.0860   24.8350 C.2   207  SER207      0.2643
     89  O          6.9390   33.2290   24.4090 O.2   207  SER207     -0.2714
     90  CB         6.5400   29.8160   23.8350 C.3   207  SER207      0.2130
     91  OG         5.2450   30.2510   23.4410 O.3   207  SER207     -0.2179
     92  N          6.6980   31.7680   26.0840 N.am  208  TRP208     -0.1959
     93  CA         6.1190   32.7890   26.9650 C.3   208  TRP208      0.1771
     94  C          6.2980   32.5010   28.4490 C.2   208  TRP208      0.2620
     95  O          6.9490   31.5470   28.8380 O.2   208  TRP208     -0.2715
     96  CB         4.6320   33.0130   26.6340 C.3   208  TRP208      0.0590
     97  CG         3.7190   31.8580   26.9200 C.ar  208  TRP208      0.0006
     98  CD1        3.5260   30.7590   26.1360 C.ar  208  TRP208      0.0946
     99  CD2        2.8390   31.7080   28.0440 C.ar  208  TRP208      0.0152
    100  NE1        2.6050   29.9190   26.7110 N.ar  208  TRP208     -0.2442
    101  CE2        2.1650   30.4790   27.8840 C.ar  208  TRP208      0.0810
    102  CE3        2.5660   32.4850   29.1770 C.ar  208  TRP208      0.0012
    103  CZ2        1.2250   30.0100   28.8100 C.ar  208  TRP208      0.0191
    104  CZ3        1.6360   32.0140   30.0990 C.ar  208  TRP208      0.0001
    105  CH2        0.9820   30.7870   29.9110 C.ar  208  TRP208      0.0015
    106  N          5.7310   33.3840   29.2630 N.am  209  GLY209     -0.1940
    107  CA         5.6680   33.2080   30.7060 C.3   209  GLY209      0.2014
    108  C          5.1600   34.5010   31.3120 C.2   209  GLY209      0.2639
    109  O          4.7910   35.4190   30.5830 O.2   209  GLY209     -0.2714
    110  N          5.1240   34.5580   32.6410 N.am  210  GLN210     -0.1963
    111  CA         4.7530   35.7770   33.3580 C.3   210  GLN210      0.1733
    112  C          6.0280   36.5630   33.6320 C.2   210  GLN210      0.2617
    113  O          6.7580   36.2630   34.5740 O.2   210  GLN210     -0.2715
    114  CB         4.0480   35.4310   34.6720 C.3   210  GLN210      0.0408
    115  CG         2.8150   34.5460   34.5150 C.3   210  GLN210      0.0908
    116  CD         1.6550   35.2440   33.8230 C.2   210  GLN210      0.2608
    117  OE1        0.9030   34.6200   33.0680 O.2   210  GLN210     -0.2717
    118  NE2        1.5000   36.5430   34.0790 N.am  210  GLN210     -0.0878
    119  N          6.3170   37.5600   32.7980 N.am  211  GLY211     -0.1940
    120  CA         7.5900   38.2750   32.8970 C.3   211  GLY211      0.2014
    121  C          8.7370   37.2950   32.6980 C.2   211  GLY211      0.2639
    122  O          8.5260   36.2190   32.1180 O.2   211  GLY211     -0.2714
    123  N          9.9310   37.6530   33.1840 N.am  212  CYS212     -0.1967
    124  CA        11.0970   36.7710   33.1310 C.3   212  CYS212      0.1712
    125  C         11.6430   36.4970   34.5220 C.2   212  CYS212      0.2296
    126  O         11.9140   37.4270   35.2840 O.2   212  CYS212     -0.2864
    127  CB        12.1900   37.4050   32.2930 C.3   212  CYS212      0.0983
    128  SG        11.6790   37.7670   30.6270 S.3   212  CYS212     -0.0798
    129  N          9.0010   29.0960   32.9880 N.3   219  GLY219     -0.1210
    130  CA         8.9850   29.3970   31.5630 C.3   219  GLY219      0.1956
    131  C          8.0580   28.4330   30.8540 C.2   219  GLY219      0.2612
    132  O          7.9350   27.2760   31.2560 O.2   219  GLY219     -0.2717
    133  N          7.4080   28.8990   29.7910 N.am  220  VAL220     -0.1965
    134  CA         6.5240   28.0500   29.0020 C.3   220  VAL220      0.1727
    135  C          7.0720   27.9560   27.5780 C.2   220  VAL220      0.2616
    136  O          7.4430   28.9680   26.9700 O.2   220  VAL220     -0.2715
    137  CB         5.0850   28.5620   28.9980 C.3   220  VAL220      0.0290
    138  CG1        4.1580   27.5550   28.3380 C.3   220  VAL220      0.0023
    139  CG2        4.6230   28.8290   30.4270 C.3   220  VAL220      0.0023
    140  N          7.1170   26.7300   27.0720 N.am  221  TYR221     -0.1974
    141  CA         7.7620   26.4190   25.7980 C.3   221  TYR221      0.1639
    142  C          6.7770   25.7160   24.8860 C.2   221  TYR221      0.2290
    143  O          5.9320   24.9560   25.3460 O.2   221  TYR221     -0.2864
    144  CB         8.9780   25.5160   26.0550 C.3   221  TYR221      0.0560
    145  CG        10.0240   26.2070   26.8890 C.ar  221  TYR221     -0.0198
    146  CD1        9.9490   26.2160   28.2820 C.ar  221  TYR221     -0.0009
    147  CD2       11.0720   26.8960   26.2850 C.ar  221  TYR221     -0.0009
    148  CE1       10.9000   26.8980   29.0430 C.ar  221  TYR221      0.0417
    149  CE2       12.0180   27.5680   27.0290 C.ar  221  TYR221      0.0417
    150  CZ        11.9310   27.5770   28.4040 C.ar  221  TYR221      0.1957
    151  OH        12.9000   28.2680   29.1170 O.3   221  TYR221     -0.2866
@<TRIPOS>BOND
     1     1     2    1
     2     3     4    2
     3     3     2    1
     4     2     5    1
     5    31    32    2
     6    31    30    1
     7    30    29    1
     8    30    33    1
     9    35    34   ar
    10    11    12    1
    11     5     6    1
    12    76    75    2
    13    34    33    1
    14    34    36   ar
    15     6     8   ar
    16     6     7   ar
    17    12    13    1
    18    75    74    1
    19    20    19    1
    20     8    10   ar
    21     7     9   ar
    22    15    13   am
    23    15    16    1
    24    10     9   ar
    25    13    14    2
    26    18    17    2
    27    77    74    1
    28    77    78    1
    29    21    19    1
    30    19    16    1
    31    74    73    1
    32    16    17    1
    33    17    22   am
    34    82    81    2
    35    25    24    2
    36    24    23    1
    37    79    80    1
    38    22    23    1
    39    91    90    1
    40    23    26    1
    41    81    80    1
    42    81    86   am
    43    67    66    2
    44    90    87    1
    45    80    83    1
    46    87    86    1
    47    87    88    1
    48    83    85    1
    49    83    84    1
    50    89    88    2
    51    66    65    1
    52    88    92   am
    53   142   143    2
    54   142   141    1
    55    26    27    1
    56    26    28    1
    57   141   144    1
    58   141   140    1
    59    65    68    1
    60    65    64    1
    61   144   145    1
    62    92    93    1
    63    68    69    1
    64    98   100   ar
    65    98    97   ar
    66    61    60    2
    67   147   145   ar
    68   147   149   ar
    69    71    72    1
    70    71    70    1
    71    96    97    1
    72    96    93    1
    73   100   101   ar
    74   145   146   ar
    75    97    99   ar
    76    93    94    1
    77   136   135    2
    78    69    70    1
    79   149   150   ar
    80   140   135   am
    81    64    60   am
    82    60    59    1
    83   135   134    1
    84   101    99   ar
    85   101   103   ar
    86    99   102   ar
    87    56    57    1
    88    56    53    1
    89   146   148   ar
    90   138   137    1
    91   150   148   ar
    92   150   151    1
    93    94    95    2
    94    94   106   am
    95    58    59    1
    96    58    54   am
    97    59    62    1
    98   103   105   ar
    99    41    42    1
   100    41    38    1
   101   137   134    1
   102   137   139    1
   103   134   133    1
   104    62    63    1
   105    42    43    1
   106   102   104   ar
   107   106   107    1
   108    53    54    1
   109    53    52    1
   110    54    55    2
   111   133   131   am
   112    63   128    1
   113   105   104   ar
   114    38    39    1
   115    38    37    1
   116    39    40    2
   117    52    46   am
   118   109   108    2
   119   128   127    1
   120    43    37    1
   121   107   108    1
   122   131   132    2
   123   131   130    1
   124   108   110   am
   125    47    46    2
   126   130   129    1
   127    46    45    1
   128    50    49   ar
   129   122   121    2
   130   127   124    1
   131   110   111    1
   132   121   120    1
   133   121   123   am
   134    49    51   ar
   135    49    48    1
   136   119   120    1
   137   119   112   am
   138    45    48    1
   139    45    44    1
   140   117   116    2
   141   124   123    1
   142   124   125    1
   143   111   112    1
   144   111   114    1
   145   112   113    2
   146   116   118   am
   147   116   115    1
   148   115   114    1
   149   125   126    2
