@<TRIPOS>MOLECULE
tmp/5pamB00.pdb
 185 183 0 0 0
SMALL
GASTEIGER

@<TRIPOS>ATOM
      1  N          4.7720   33.7540   17.3020 N.3    41  HIS41      -0.1226
      2  CA         4.5280   35.0750   17.8950 C.3    41  HIS41       0.1752
      3  C          5.5940   36.0640   17.5570 C.2    41  HIS41       0.2596
      4  O          5.3550   37.2930   17.5680 O.2    41  HIS41      -0.2718
      5  CB         4.2920   34.9680   19.3980 C.3    41  HIS41       0.0759
      6  CG         5.5340   34.9670   20.2360 C.ar   41  HIS41       0.0818
      7  ND1        6.0180   33.8330   20.8180 N.ar   41  HIS41      -0.2268
      8  CD2        6.3660   35.9580   20.6050 C.ar   41  HIS41       0.1154
      9  CE1        7.1040   34.1110   21.4990 C.ar   41  HIS41       0.1986
     10  NE2        7.3060   35.4040   21.4280 N.ar   41  HIS41      -0.2212
     11  N          6.7670   35.5800   17.1340 N.am   42  CYS42      -0.1970
     12  CA         7.8190   36.4170   16.5910 C.3    42  CYS42       0.1712
     13  C          7.4030   37.2870   15.4070 C.2    42  CYS42       0.2296
     14  O          8.0480   38.2910   15.1340 O.2    42  CYS42      -0.2864
     15  CB         9.0770   35.6090   16.1990 C.3    42  CYS42       0.0983
     16  SG         9.8390   34.8710   17.6790 S.3    42  CYS42      -0.0798
     17  N          4.1490   38.4990   14.7500 N.3    44  ASP44      -0.1225
     18  CA         2.8090   39.1360   14.8920 C.3    44  ASP44       0.1805
     19  C          2.8690   40.6190   14.4320 C.2    44  ASP44       0.2597
     20  O          1.8610   41.1340   13.9250 O.2    44  ASP44      -0.2718
     21  CB         2.3380   39.1750   16.3350 C.3    44  ASP44       0.1424
     22  CG         1.8160   37.8870   16.8480 C.2    44  ASP44       0.3668
     23  OD1        1.7490   36.8700   16.1200 O.co2  44  ASP44      -0.2456
     24  OD2        1.4550   37.8570   18.0370 O.co2  44  ASP44      -0.2456
     25  N          4.0300   41.2540   14.5470 N.am   45  LYS45      -0.1979
     26  CA         4.1360   42.7250   14.1970 C.3    45  LYS45       0.1596
     27  C          4.9900   43.0110   12.9870 C.2    45  LYS45       0.2287
     28  O          5.3640   44.1450   12.7290 O.2    45  LYS45      -0.2864
     29  CB         4.6570   43.4950   15.3850 C.3    45  LYS45       0.0298
     30  CG         3.7780   43.3620   16.6120 C.3    45  LYS45       0.0038
     31  CD         4.5220   43.8300   17.8660 C.3    45  LYS45       0.0206
     32  CE         4.0120   43.1300   19.1300 C.3    45  LYS45       0.1093
     33  NZ         4.8550   43.4230   20.3330 N.3    45  LYS45      -0.1314
     34  N         -1.3740   37.1980   18.9120 N.3    85  GLY85      -0.1210
     35  CA        -1.6130   37.7700   20.2360 C.3    85  GLY85       0.1956
     36  C         -2.0550   36.8030   21.2850 C.2    85  GLY85       0.2613
     37  O         -2.2390   37.2130   22.4190 O.2    85  GLY85      -0.2717
     38  N         -2.1700   35.5020   20.9560 N.am   86  THR86      -0.1938
     39  CA        -2.4560   34.4620   21.9010 C.3    86  THR86       0.2028
     40  C         -1.2680   33.4570   21.9050 C.2    86  THR86       0.2642
     41  O         -0.2840   33.6390   21.1570 O.2    86  THR86      -0.2714
     42  CB        -3.7540   33.7340   21.5920 C.3    86  THR86       0.1808
     43  OG1       -3.5930   33.0020   20.3660 O.3    86  THR86      -0.2208
     44  CG2       -4.9360   34.7050   21.4820 C.3    86  THR86       0.0379
     45  N         -1.3530   32.4720   22.7950 N.am   87  THR87      -0.1950
     46  CA        -0.2080   31.6230   23.1430 C.3    87  THR87       0.1897
     47  C         -0.1870   30.2560   22.4610 C.2    87  THR87       0.2313
     48  O          0.9030   29.6980   22.2630 O.2    87  THR87      -0.2863
     49  CB        -0.1090   31.4210   24.6620 C.3    87  THR87       0.1794
     50  OG1       -1.3380   30.8550   25.1530 O.3    87  THR87      -0.2208
     51  CG2        0.2090   32.7400   25.2960 C.3    87  THR87       0.0378
     52  N          2.3890   27.9640   19.0670 N.3    90  ASP90      -0.1239
     53  CA         3.3700   28.9840   18.8780 C.3    90  ASP90       0.1674
     54  C          4.6220   28.4110   18.2010 C.2    90  ASP90       0.2266
     55  O          5.6910   28.2290   18.8090 O.2    90  ASP90      -0.2867
     56  CB         3.7700   29.5890   20.2120 C.3    90  ASP90       0.1410
     57  CG         4.4910   30.8750   20.0520 C.2    90  ASP90       0.3668
     58  OD1        4.5780   31.3950   18.9250 O.co2  90  ASP90      -0.2456
     59  OD2        5.0870   31.3720   21.0380 O.co2  90  ASP90      -0.2456
     60  N         -2.8250   32.5450   30.8350 N.3   165  PRO165     -0.2116
     61  CA        -3.1820   31.4530   29.8780 C.3   165  PRO165      0.1372
     62  C         -3.0570   29.9890   30.4400 C.2   165  PRO165      0.2244
     63  O         -2.2800   29.7370   31.3760 O.2   165  PRO165     -0.2868
     64  CB        -2.2470   31.7090   28.6610 C.3   165  PRO165      0.0268
     65  CG        -1.5630   33.0290   28.9040 C.3   165  PRO165      0.0207
     66  CD        -1.6220   33.2920   30.3880 C.3   165  PRO165      0.0892
     67  N         15.7110   31.4180   33.8550 N.3   182  ASP182     -0.1225
     68  CA        14.6490   31.3010   32.8770 C.3   182  ASP182      0.1805
     69  C         15.1590   31.7410   31.5220 C.2   182  ASP182      0.2598
     70  O         16.2030   32.3460   31.4040 O.2   182  ASP182     -0.2718
     71  CB        13.5010   32.2050   33.2800 C.3   182  ASP182      0.1424
     72  CG        12.1610   31.8740   32.6790 C.2   182  ASP182      0.3668
     73  OD1       11.9880   30.8570   31.8890 O.co2 182  ASP182     -0.2456
     74  OD2       11.2230   32.6790   32.9730 O.co2 182  ASP182     -0.2456
     75  N         14.3690   31.4140   30.4810 N.am  183  SER183     -0.1938
     76  CA        14.4760   32.1480   29.2310 C.3   183  SER183      0.2055
     77  C         13.5750   33.3290   29.3150 C.2   183  SER183      0.2643
     78  O         12.7040   33.3930   30.1720 O.2   183  SER183     -0.2714
     79  CB        14.1300   31.2360   28.0360 C.3   183  SER183      0.2130
     80  OG        12.8500   30.6500   28.2500 O.3   183  SER183     -0.2179
     81  N         13.8180   34.3100   28.4670 N.am  184  CYS184     -0.1953
     82  CA        12.9800   35.4890   28.5530 C.3   184  CYS184      0.1843
     83  C         12.5860   35.9960   27.1390 C.2   184  CYS184      0.2625
     84  O         12.8940   35.3500   26.1560 O.2   184  CYS184     -0.2714
     85  CB        13.6120   36.4630   29.5580 C.3   184  CYS184      0.0997
     86  SG        13.4810   35.8940   31.3290 S.3   184  CYS184     -0.0797
     87  N         11.7130   37.0260   27.0810 N.am  185  LYS185     -0.1977
     88  CA        11.2130   37.6820   25.8340 C.3   185  LYS185      0.1596
     89  C         12.0550   37.5180   24.5880 C.2   185  LYS185      0.2287
     90  O         11.5560   37.0260   23.5160 O.2   185  LYS185     -0.2864
     91  CB        11.2210   39.2770   26.0670 C.3   185  LYS185      0.0298
     92  CG         9.9000   39.9590   26.1200 C.3   185  LYS185      0.0038
     93  CD         9.9010   41.0920   27.1040 C.3   185  LYS185      0.0206
     94  CE        10.7520   42.2620   26.6620 C.3   185  LYS185      0.1093
     95  NZ         9.8980   43.4300   26.3300 N.3   185  LYS185     -0.1314
     96  N         12.6960   34.2560   22.6560 N.3   188  SER188     -0.1217
     97  CA        11.5550   33.6880   21.9210 C.3   188  SER188      0.1889
     98  C         11.9980   33.1290   20.6170 C.2   188  SER188      0.2288
     99  O         12.7440   33.7230   19.8410 O.2   188  SER188     -0.2866
    100  CB        10.4920   34.7520   21.6260 C.3   188  SER188      0.2089
    101  OG         9.8230   35.1620   22.8270 O.3   188  SER188     -0.2183
    102  N         11.2290   28.3390   22.7750 N.3   206  VAL206     -0.1231
    103  CA        10.9440   29.4090   23.7800 C.3   206  VAL206      0.1692
    104  C          9.6940   30.1640   23.3240 C.2   206  VAL206      0.2593
    105  O          9.6680   30.7600   22.2490 O.2   206  VAL206     -0.2718
    106  CB        12.0970   30.3590   23.8790 C.3   206  VAL206      0.0266
    107  CG1       11.7650   31.5280   24.8570 C.3   206  VAL206      0.0020
    108  CG2       13.3910   29.6750   24.2790 C.3   206  VAL206      0.0020
    109  N          8.6590   30.1350   24.1370 N.am  207  SER207     -0.1938
    110  CA         7.3360   30.6340   23.7430 C.3   207  SER207      0.2055
    111  C          6.8350   31.7800   24.6850 C.2   207  SER207      0.2643
    112  O          6.7410   32.9150   24.2400 O.2   207  SER207     -0.2714
    113  CB         6.3160   29.5220   23.6660 C.3   207  SER207      0.2130
    114  OG         5.0580   30.0330   23.2940 O.3   207  SER207     -0.2179
    115  N          6.5320   31.4800   25.9200 N.am  208  TRP208     -0.1959
    116  CA         5.9110   32.5040   26.7850 C.3   208  TRP208      0.1771
    117  C          6.1710   32.2680   28.2570 C.2   208  TRP208      0.2620
    118  O          6.7260   31.2660   28.6460 O.2   208  TRP208     -0.2715
    119  CB         4.4330   32.6640   26.5140 C.3   208  TRP208      0.0590
    120  CG         3.5600   31.5430   26.7830 C.ar  208  TRP208      0.0006
    121  CD1        3.2910   30.5100   25.9550 C.ar  208  TRP208      0.0946
    122  CD2        2.7330   31.3570   27.9420 C.ar  208  TRP208      0.0152
    123  NE1        2.4230   29.6370   26.5430 N.ar  208  TRP208     -0.2442
    124  CE2        2.0530   30.1500   27.7690 C.ar  208  TRP208      0.0810
    125  CE3        2.5510   32.0750   29.1190 C.ar  208  TRP208      0.0012
    126  CZ2        1.1460   29.6650   28.6890 C.ar  208  TRP208      0.0191
    127  CZ3        1.6800   31.5660   30.0800 C.ar  208  TRP208      0.0001
    128  CH2        0.9990   30.3730   29.8710 C.ar  208  TRP208      0.0015
    129  N          5.7990   33.2870   29.0300 N.am  209  GLY209     -0.1940
    130  CA         5.8510   33.1480   30.4800 C.3   209  GLY209      0.2014
    131  C          5.4030   34.4670   31.0850 C.2   209  GLY209      0.2639
    132  O          4.9470   35.3480   30.3730 O.2   209  GLY209     -0.2714
    133  N          5.5530   34.5500   32.3970 N.am  210  GLN210     -0.1963
    134  CA         5.2040   35.7550   33.1420 C.3   210  GLN210      0.1733
    135  C          6.5290   36.4420   33.4430 C.2   210  GLN210      0.2617
    136  O          7.3980   35.8750   34.0900 O.2   210  GLN210     -0.2715
    137  CB         4.4310   35.3800   34.4300 C.3   210  GLN210      0.0408
    138  CG         3.2840   34.3670   34.2660 C.3   210  GLN210      0.0908
    139  CD         2.1220   34.8950   33.4500 C.2   210  GLN210      0.2608
    140  OE1        1.2830   34.1280   32.9470 O.2   210  GLN210     -0.2717
    141  NE2        2.0550   36.2200   33.3170 N.am  210  GLN210     -0.0878
    142  N          6.6870   37.6540   32.9350 N.am  211  GLY211     -0.1940
    143  CA         7.8080   38.4740   33.2710 C.3   211  GLY211      0.2014
    144  C          9.0200   37.7550   32.7910 C.2   211  GLY211      0.2639
    145  O          9.0890   37.3350   31.6160 O.2   211  GLY211     -0.2714
    146  N          9.9160   37.4800   33.7080 N.am  212  CYS212     -0.1967
    147  CA        11.0950   36.8640   33.3380 C.3   212  CYS212      0.1712
    148  C         11.8540   36.3750   34.5560 C.2   212  CYS212      0.2296
    149  O         12.3440   37.1610   35.4030 O.2   212  CYS212     -0.2864
    150  CB        11.7370   37.9190   32.5140 C.3   212  CYS212      0.0983
    151  SG        13.3980   37.6850   32.2530 S.3   212  CYS212     -0.0798
    152  N          7.0270   29.2140   35.7600 N.3   218  PHE218     -0.1227
    153  CA         8.0000   28.4870   34.9280 C.3   218  PHE218      0.1736
    154  C          7.9530   29.0380   33.5230 C.2   218  PHE218      0.2596
    155  O          7.0060   29.6800   33.1630 O.2   218  PHE218     -0.2718
    156  CB         7.6230   27.0180   34.8750 C.3   218  PHE218      0.0547
    157  CG         7.7610   26.3450   36.2010 C.ar  218  PHE218     -0.0202
    158  CD1        8.9490   25.7880   36.5600 C.ar  218  PHE218     -0.0042
    159  CD2        6.6790   26.2830   37.0540 C.ar  218  PHE218     -0.0042
    160  CE1        9.1250   25.2000   37.8010 C.ar  218  PHE218     -0.0003
    161  CE2        6.8240   25.6700   38.3010 C.ar  218  PHE218     -0.0003
    162  CZ         8.0380   25.1470   38.6750 C.ar  218  PHE218     -0.0000
    163  N          9.0080   28.7730   32.7600 N.am  219  GLY219     -0.1942
    164  CA         8.9710   29.0630   31.3270 C.3   219  GLY219      0.2014
    165  C          8.0220   28.1380   30.6300 C.2   219  GLY219      0.2639
    166  O          7.8990   26.9550   31.0120 O.2   219  GLY219     -0.2714
    167  N          7.3870   28.6260   29.5750 N.am  220  VAL220     -0.1963
    168  CA         6.4860   27.8200   28.7950 C.3   220  VAL220      0.1727
    169  C          7.0260   27.7300   27.3670 C.2   220  VAL220      0.2616
    170  O          7.4600   28.7210   26.8000 O.2   220  VAL220     -0.2715
    171  CB         5.0670   28.3450   28.7690 C.3   220  VAL220      0.0290
    172  CG1        4.1600   27.3080   28.1360 C.3   220  VAL220      0.0023
    173  CG2        4.5800   28.5830   30.2100 C.3   220  VAL220      0.0023
    174  N          6.9980   26.5120   26.8610 N.am  221  TYR221     -0.1974
    175  CA         7.7000   26.1380   25.6060 C.3   221  TYR221      0.1639
    176  C          6.6940   25.4450   24.6910 C.2   221  TYR221      0.2290
    177  O          5.8700   24.6740   25.1190 O.2   221  TYR221     -0.2864
    178  CB         8.8660   25.2240   25.8970 C.3   221  TYR221      0.0560
    179  CG         9.9100   25.9290   26.7020 C.ar  221  TYR221     -0.0198
    180  CD1        9.8310   25.9710   28.1140 C.ar  221  TYR221     -0.0009
    181  CD2       11.0340   26.5280   26.0980 C.ar  221  TYR221     -0.0009
    182  CE1       10.7720   26.6660   28.8410 C.ar  221  TYR221      0.0417
    183  CE2       11.9830   27.1840   26.8440 C.ar  221  TYR221      0.0417
    184  CZ        11.8350   27.2580   28.2280 C.ar  221  TYR221      0.1957
    185  OH        12.8160   27.9680   28.9580 O.3   221  TYR221     -0.2866
@<TRIPOS>BOND
     1    28    27    2
     2    27    26    1
     3    20    19    2
     4    26    25    1
     5    26    29    1
     6    19    25   am
     7    19    18    1
     8    17    18    1
     9    18    21    1
    10    14    13    2
    11    29    30    1
    12    13    12    1
    13    23    22   ar
    14    15    12    1
    15    15    16    1
    16    21    22    1
    17    12    11    1
    18    30    31    1
    19    22    24   ar
    20    11     3   am
    21     1     2    1
    22     3     4    2
    23     3     2    1
    24    31    32    1
    25     2     5    1
    26    54    55    2
    27    54    53    1
    28    53    52    1
    29    53    56    1
    30    34    35    1
    31    58    57   ar
    32    32    33    1
    33     5     6    1
    34    99    98    2
    35    57    56    1
    36    57    59   ar
    37     6     8   ar
    38     6     7   ar
    39    35    36    1
    40    43    42    1
    41     8    10   ar
    42    98    97    1
    43     7     9   ar
    44    38    36   am
    45    38    39    1
    46    41    40    2
    47    36    37    2
    48    10     9   ar
    49    44    42    1
    50    42    39    1
    51   100    97    1
    52   100   101    1
    53    39    40    1
    54    40    45   am
    55    97    96    1
    56   105   104    2
    57    48    47    2
    58    47    46    1
    59   102   103    1
    60    45    46    1
    61    46    49    1
    62   114   113    1
    63   104   103    1
    64   104   109   am
    65    90    89    2
    66   113   110    1
    67   110   109    1
    68   110   111    1
    69   103   106    1
    70   106   108    1
    71   106   107    1
    72   112   111    2
    73    89    88    1
    74    49    50    1
    75    49    51    1
    76   111   115   am
    77   176   177    2
    78   176   175    1
    79   175   178    1
    80   175   174    1
    81    88    91    1
    82    88    87    1
    83   178   179    1
    84   115   116    1
    85   121   123   ar
    86   121   120   ar
    87    91    92    1
    88   181   179   ar
    89   181   183   ar
    90    92    93    1
    91    84    83    2
    92    95    94    1
    93   119   120    1
    94   119   116    1
    95   123   124   ar
    96    94    93    1
    97   179   180   ar
    98   120   122   ar
    99   116   117    1
   100   170   169    2
   101   183   184   ar
   102   174   169   am
   103    87    83   am
   104    83    82    1
   105   169   168    1
   106   124   122   ar
   107   124   126   ar
   108   122   125   ar
   109    79    80    1
   110    79    76    1
   111   180   182   ar
   112   172   171    1
   113   184   182   ar
   114   184   185    1
   115   117   118    2
   116   117   129   am
   117    81    82    1
   118    81    77   am
   119    82    85    1
   120    64    65    1
   121    64    61    1
   122   126   128   ar
   123   171   168    1
   124   171   173    1
   125   168   167    1
   126    65    66    1
   127   129   130    1
   128   125   127   ar
   129    76    77    1
   130    76    75    1
   131    77    78    2
   132    85    86    1
   133   167   165   am
   134   128   127   ar
   135    61    62    1
   136    61    60    1
   137   132   131    2
   138    66    60    1
   139    62    63    2
   140   130   131    1
   141    75    69   am
   142   165   166    2
   143   165   164    1
   144   131   133   am
   145   164   163    1
   146    86   151    1
   147    70    69    2
   148    69    68    1
   149   145   144    2
   150    73    72   ar
   151   151   150    1
   152   133   134    1
   153   150   147    1
   154    72    74   ar
   155    72    71    1
   156   163   154   am
   157   144   143    1
   158   144   146   am
   159    68    71    1
   160    68    67    1
   161   142   143    1
   162   142   135   am
   163   140   139    2
   164   134   135    1
   165   134   137    1
   166   155   154    2
   167   141   139   am
   168   147   146    1
   169   147   148    1
   170   135   136    2
   171   139   138    1
   172   154   153    1
   173   138   137    1
   174   148   149    2
   175   156   153    1
   176   156   157    1
   177   153   152    1
   178   157   158   ar
   179   157   159   ar
   180   158   160   ar
   181   159   161   ar
   182   160   162   ar
   183   161   162   ar
