@<TRIPOS>MOLECULE
tmp/5panB00.pdb
 169 168 0 0 0
SMALL
GASTEIGER

@<TRIPOS>ATOM
      1  N         15.3060   40.6540   16.4510 N.3    25  LEU25      -0.1231
      2  CA        13.8990   40.3070   16.5470 C.3    25  LEU25       0.1693
      3  C         13.6140   39.1580   17.4830 C.2    25  LEU25       0.2592
      4  O         12.7420   39.2370   18.3480 O.2    25  LEU25      -0.2718
      5  CB        13.3800   39.9500   15.1720 C.3    25  LEU25       0.0284
      6  CG        11.9130   39.5480   15.0570 C.3    25  LEU25       0.0019
      7  CD1       11.0370   40.7400   15.3920 C.3    25  LEU25       0.0001
      8  CD2       11.6190   38.9860   13.7210 C.3    25  LEU25       0.0001
      9  N         14.3410   38.0470   17.2800 N.am   26  CYS26      -0.1970
     10  CA        13.9710   36.7610   17.9310 C.3    26  CYS26       0.1712
     11  C         15.1330   35.8290   17.6630 C.2    26  CYS26       0.2296
     12  O         16.0170   36.1210   16.8620 O.2    26  CYS26      -0.2864
     13  CB        12.6990   36.1910   17.3000 C.3    26  CYS26       0.0983
     14  SG        11.1860   36.7390   18.1690 S.3    26  CYS26      -0.0798
     15  N          4.8680   34.2540   17.1240 N.3    41  HIS41      -0.1226
     16  CA         4.6120   35.6320   17.6140 C.3    41  HIS41       0.1752
     17  C          5.6840   36.6080   17.2020 C.2    41  HIS41       0.2596
     18  O          5.4650   37.8430   17.2300 O.2    41  HIS41      -0.2718
     19  CB         4.3100   35.6420   19.0850 C.3    41  HIS41       0.0759
     20  CG         5.5020   35.6660   19.9700 C.ar   41  HIS41       0.0818
     21  ND1        5.9480   34.5660   20.6760 N.ar   41  HIS41      -0.2268
     22  CD2        6.3300   36.6890   20.2880 C.ar   41  HIS41       0.1154
     23  CE1        6.9430   34.9380   21.4570 C.ar   41  HIS41       0.1986
     24  NE2        7.2360   36.1960   21.1830 N.ar   41  HIS41      -0.2212
     25  N          6.8910   36.1250   16.8580 N.am   42  CYS42      -0.1970
     26  CA         7.9550   36.9360   16.3870 C.3    42  CYS42       0.1712
     27  C          7.5730   37.7530   15.1570 C.2    42  CYS42       0.2296
     28  O          8.1760   38.7890   14.8610 O.2    42  CYS42      -0.2864
     29  CB         9.1720   36.0640   16.0490 C.3    42  CYS42       0.0983
     30  SG         9.8990   35.2930   17.5030 S.3    42  CYS42      -0.0798
     31  N          4.3010   38.8470   14.3200 N.3    44  ASP44      -0.1225
     32  CA         2.9260   39.4480   14.4130 C.3    44  ASP44       0.1805
     33  C          2.9410   40.8590   13.8380 C.2    44  ASP44       0.2597
     34  O          1.9180   41.2930   13.2940 O.2    44  ASP44      -0.2718
     35  CB         2.4280   39.5560   15.8150 C.3    44  ASP44       0.1424
     36  CG         2.0870   38.2630   16.4810 C.2    44  ASP44       0.3668
     37  OD1        1.9250   37.2150   15.8020 O.co2  44  ASP44      -0.2456
     38  OD2        1.9650   38.2760   17.7420 O.co2  44  ASP44      -0.2456
     39  N          4.0620   41.5580   13.8920 N.am   45  LYS45      -0.1979
     40  CA         4.0460   42.9880   13.5110 C.3    45  LYS45       0.1596
     41  C          4.9340   43.3350   12.3680 C.2    45  LYS45       0.2287
     42  O          5.1620   44.5140   12.1230 O.2    45  LYS45      -0.2864
     43  CB         4.4010   43.8370   14.7060 C.3    45  LYS45       0.0298
     44  CG         3.5570   43.7080   15.9590 C.3    45  LYS45       0.0038
     45  CD         2.0900   44.0040   15.7910 C.3    45  LYS45       0.0206
     46  CE         1.3730   44.1450   17.1370 C.3    45  LYS45       0.1093
     47  NZ        -0.0920   44.1170   16.8520 N.3    45  LYS45      -0.1314
     48  N         -2.5710   35.7900   16.4690 N.3    84  PRO84      -0.2102
     49  CA        -1.5870   36.7870   16.8740 C.3    84  PRO84       0.1504
     50  C         -1.7560   37.3090   18.2780 C.2    84  PRO84       0.2576
     51  O         -2.8980   37.5400   18.7040 O.2    84  PRO84      -0.2718
     52  CB        -1.7270   37.8760   15.8370 C.3    84  PRO84       0.0282
     53  CG        -2.0730   37.1020   14.6460 C.3    84  PRO84       0.0208
     54  CD        -2.9470   35.9850   15.0630 C.3    84  PRO84       0.0893
     55  N         -0.6510   37.4360   19.0080 N.am   85  GLY85      -0.1957
     56  CA        -0.6480   37.9610   20.3640 C.3    85  GLY85       0.1869
     57  C         -0.8930   36.9580   21.4640 C.2    85  GLY85       0.2309
     58  O         -1.0120   37.3420   22.6160 O.2    85  GLY85      -0.2863
     59  N         15.6710   31.8140   33.8060 N.3   179  ASP179     -0.1225
     60  CA        14.5450   31.7120   32.8430 C.3   179  ASP179      0.1805
     61  C         15.0550   32.1180   31.4750 C.2   179  ASP179      0.2598
     62  O         16.1230   32.7100   31.3160 O.2   179  ASP179     -0.2718
     63  CB        13.4020   32.6480   33.2110 C.3   179  ASP179      0.1424
     64  CG        12.0200   32.2370   32.7110 C.2   179  ASP179      0.3668
     65  OD1       11.8100   31.1950   32.0170 O.co2 179  ASP179     -0.2456
     66  OD2       11.0330   33.0280   33.0170 O.co2 179  ASP179     -0.2456
     67  N         14.2490   31.8290   30.4510 N.am  180  SER180     -0.1938
     68  CA        14.4190   32.5000   29.1840 C.3   180  SER180      0.2055
     69  C         13.7470   33.8760   29.3310 C.2   180  SER180      0.2643
     70  O         13.0150   34.1090   30.3200 O.2   180  SER180     -0.2714
     71  CB        13.7890   31.6240   28.0560 C.3   180  SER180      0.2130
     72  OG        12.4270   31.4130   28.3280 O.3   180  SER180     -0.2179
     73  N         13.9600   34.7660   28.3830 N.am  181  CYS181     -0.1953
     74  CA        13.4390   36.1580   28.4950 C.3   181  CYS181      0.1843
     75  C         13.1700   36.7790   27.1970 C.2   181  CYS181      0.2625
     76  O         13.5130   36.2880   26.1490 O.2   181  CYS181     -0.2714
     77  CB        14.4270   36.9890   29.3150 C.3   181  CYS181      0.0997
     78  SG        13.5890   38.4590   30.1300 S.3   181  CYS181     -0.0797
     79  N         12.5310   37.9480   27.2510 N.am  182  LYS182     -0.1963
     80  CA        12.3420   38.6980   26.0420 C.3   182  LYS182      0.1728
     81  C         13.6500   38.8600   25.2670 C.2   182  LYS182      0.2616
     82  O         14.6920   39.2560   25.8410 O.2   182  LYS182     -0.2715
     83  CB        11.7250   40.0890   26.3620 C.3   182  LYS182      0.0311
     84  CG        11.4480   40.8650   25.1200 C.3   182  LYS182      0.0038
     85  CD        10.6890   42.1670   25.5250 C.3   182  LYS182      0.0206
     86  CE        10.4990   43.0850   24.3620 C.3   182  LYS182      0.1093
     87  NZ         9.8740   44.3350   24.9230 N.3   182  LYS182     -0.1314
     88  N         13.5760   38.6130   23.9580 N.am  183  GLY183     -0.1955
     89  CA        14.7080   38.5950   23.0860 C.3   183  GLY183      0.1869
     90  C         15.1880   37.1720   22.7560 C.2   183  GLY183      0.2309
     91  O         15.8980   37.0240   21.7880 O.2   183  GLY183     -0.2863
     92  N         12.7530   34.6190   22.4670 N.3   185  SER185     -0.1217
     93  CA        11.6530   33.8800   21.8370 C.3   185  SER185      0.1889
     94  C         12.0430   33.4030   20.4800 C.2   185  SER185      0.2288
     95  O         12.7600   34.0830   19.7290 O.2   185  SER185     -0.2866
     96  CB        10.3650   34.6880   21.6690 C.3   185  SER185      0.2089
     97  OG         9.8210   35.0230   22.9850 O.3   185  SER185     -0.2183
     98  N         11.2560   28.5880   22.5910 N.3   203  VAL203     -0.1231
     99  CA        10.9660   29.6510   23.5950 C.3   203  VAL203      0.1692
    100  C          9.7430   30.4390   23.1060 C.2   203  VAL203      0.2593
    101  O          9.7250   31.0340   22.0290 O.2   203  VAL203     -0.2718
    102  CB        12.1620   30.5680   23.7520 C.3   203  VAL203      0.0266
    103  CG1       11.8250   31.7000   24.7410 C.3   203  VAL203      0.0020
    104  CG2       13.4290   29.8540   24.1930 C.3   203  VAL203      0.0020
    105  N          8.6870   30.4600   23.8920 N.am  204  SER204     -0.1938
    106  CA         7.4680   31.1920   23.5250 C.3   204  SER204      0.2055
    107  C          7.4090   32.4870   24.3790 C.2   204  SER204      0.2643
    108  O          8.3650   33.2160   24.3460 O.2   204  SER204     -0.2714
    109  CB         6.3060   30.2230   23.6050 C.3   204  SER204      0.2130
    110  OG         5.0530   30.8020   23.3690 O.3   204  SER204     -0.2179
    111  N          6.3180   32.7200   25.0560 N.am  205  TRP205     -0.1959
    112  CA         6.2250   33.9550   25.9060 C.3   205  TRP205      0.1771
    113  C          5.0820   33.7510   26.8560 C.2   205  TRP205      0.2620
    114  O          4.3080   32.8470   26.7130 O.2   205  TRP205     -0.2715
    115  CB         6.0820   35.2530   25.0670 C.3   205  TRP205      0.0590
    116  CG         4.9250   35.3390   24.0600 C.ar  205  TRP205      0.0006
    117  CD1        4.1200   34.3170   23.5840 C.ar  205  TRP205      0.0946
    118  CD2        4.4900   36.5260   23.4120 C.ar  205  TRP205      0.0152
    119  NE1        3.2200   34.8220   22.6630 N.ar  205  TRP205     -0.2442
    120  CE2        3.4440   36.1680   22.5330 C.ar  205  TRP205      0.0810
    121  CE3        4.9310   37.8450   23.4320 C.ar  205  TRP205      0.0012
    122  CZ2        2.8060   37.0810   21.7720 C.ar  205  TRP205      0.0191
    123  CZ3        4.2770   38.7670   22.6680 C.ar  205  TRP205      0.0001
    124  CH2        3.2240   38.3870   21.8500 C.ar  205  TRP205      0.0015
    125  N          5.0530   34.6570   27.8320 N.am  206  GLY206     -0.1940
    126  CA         3.9990   34.7770   28.8330 C.3   206  GLY206      0.2014
    127  C          4.0390   36.2320   29.2810 C.2   206  GLY206      0.2639
    128  O          4.4810   37.1240   28.5190 O.2   206  GLY206     -0.2714
    129  N          3.6470   36.4720   30.5280 N.am  207  GLN207     -0.1963
    130  CA         3.4320   37.8520   31.0460 C.3   207  GLN207      0.1733
    131  C          4.7020   38.6380   31.3750 C.2   207  GLN207      0.2617
    132  O          4.7090   39.8840   31.3610 O.2   207  GLN207     -0.2715
    133  CB         2.5570   37.8070   32.3150 C.3   207  GLN207      0.0408
    134  CG         1.1650   37.2270   32.1160 C.3   207  GLN207      0.0908
    135  CD         0.2660   38.0870   31.2230 C.2   207  GLN207      0.2608
    136  OE1        0.6890   39.1050   30.6320 O.2   207  GLN207     -0.2717
    137  NE2       -0.9960   37.6740   31.1230 N.am  207  GLN207     -0.0878
    138  N          5.7740   37.9090   31.6710 N.am  208  GLY208     -0.1940
    139  CA         6.9870   38.5190   32.1290 C.3   208  GLY208      0.2014
    140  C          7.9380   37.4210   32.5510 C.2   208  GLY208      0.2639
    141  O          7.5910   36.5050   33.2880 O.2   208  GLY208     -0.2714
    142  N          9.1370   37.5050   31.9950 N.am  209  CYS209     -0.1967
    143  CA        10.1960   36.5760   32.2870 C.3   209  CYS209      0.1712
    144  C         10.6870   36.6930   33.7170 C.2   209  CYS209      0.2296
    145  O         10.5480   37.7380   34.3010 O.2   209  CYS209     -0.2864
    146  CB        11.3300   36.8400   31.2960 C.3   209  CYS209      0.0983
    147  SG        12.7520   37.7090   31.9040 S.3   209  CYS209     -0.0798
    148  N          6.8270   29.5340   35.6370 N.3   215  PHE215     -0.1227
    149  CA         7.8520   28.8540   34.8420 C.3   215  PHE215      0.1736
    150  C          7.8570   29.3870   33.4240 C.2   215  PHE215      0.2596
    151  O          6.8860   29.8940   32.9690 O.2   215  PHE215     -0.2718
    152  CB         7.4950   27.3900   34.7820 C.3   215  PHE215      0.0547
    153  CG         7.6570   26.7150   36.0880 C.ar  215  PHE215     -0.0202
    154  CD1        8.8910   26.2240   36.4670 C.ar  215  PHE215     -0.0042
    155  CD2        6.5840   26.6160   36.9420 C.ar  215  PHE215     -0.0042
    156  CE1        9.0590   25.6090   37.6950 C.ar  215  PHE215     -0.0003
    157  CE2        6.7430   26.0160   38.1650 C.ar  215  PHE215     -0.0003
    158  CZ         7.9780   25.5380   38.5530 C.ar  215  PHE215     -0.0000
    159  N          8.9500   29.1540   32.7030 N.am  216  GLY216     -0.1942
    160  CA         8.9480   29.4550   31.2540 C.3   216  GLY216      0.2014
    161  C          8.0060   28.5280   30.5070 C.2   216  GLY216      0.2638
    162  O          7.8580   27.3640   30.8670 O.2   216  GLY216     -0.2714
    163  N          7.4250   29.0490   29.4310 N.am  217  VAL217     -0.1977
    164  CA         6.4850   28.3150   28.5690 C.3   217  VAL217      0.1596
    165  C          7.1470   28.1440   27.1920 C.2   217  VAL217      0.2287
    166  O          7.7260   29.0850   26.6230 O.2   217  VAL217     -0.2864
    167  CB         5.1500   29.0080   28.3850 C.3   217  VAL217      0.0276
    168  CG1        4.1880   28.0840   27.6180 C.3   217  VAL217      0.0022
    169  CG2        4.5270   29.3010   29.7580 C.3   217  VAL217      0.0022
@<TRIPOS>BOND
     1    42    41    2
     2    41    40    1
     3    34    33    2
     4    40    39    1
     5    40    43    1
     6     8     6    1
     7    33    39   am
     8    33    32    1
     9    31    32    1
    10    32    35    1
    11    53    54    1
    12    53    52    1
    13    43    44    1
    14    28    27    2
    15     6     5    1
    16     6     7    1
    17    54    48    1
    18    27    26    1
    19     5     2    1
    20    45    44    1
    21    45    46    1
    22    37    36   ar
    23    35    36    1
    24    52    49    1
    25    29    26    1
    26    29    30    1
    27    26    25    1
    28     1     2    1
    29    48    49    1
    30    36    38   ar
    31     2     3    1
    32    47    46    1
    33    25    17   am
    34    12    11    2
    35    49    50    1
    36    15    16    1
    37    17    18    2
    38    17    16    1
    39     9     3   am
    40     9    10    1
    41    13    10    1
    42    13    14    1
    43     3     4    2
    44    30    14    1
    45    16    19    1
    46    11    10    1
    47    50    51    2
    48    50    55   am
    49    55    56    1
    50    19    20    1
    51    95    94    2
    52    20    22   ar
    53    20    21   ar
    54    22    24   ar
    55    56    57    1
    56    94    93    1
    57    21    23   ar
    58    24    23   ar
    59    57    58    2
    60    96    93    1
    61    96    97    1
    62   122   124   ar
    63   122   120   ar
    64    91    90    2
    65    93    92    1
    66   124   123   ar
    67   101   100    2
    68   120   119   ar
    69   120   118   ar
    70    98    99    1
    71   119   117   ar
    72   123   121   ar
    73    90    89    1
    74    89    88    1
    75   100    99    1
    76   100   105   am
    77   110   109    1
    78   118   121   ar
    79   118   116   ar
    80   106   109    1
    81   106   105    1
    82   106   107    1
    83   117   116   ar
    84    99   102    1
    85   102   104    1
    86   102   103    1
    87    88    81   am
    88   116   115    1
    89   108   107    2
    90    86    87    1
    91    86    85    1
    92   107   111   am
    93   111   112    1
    94   115   112    1
    95    84    85    1
    96    84    83    1
    97    81    82    2
    98    81    80    1
    99   112   113    1
   100    80    83    1
   101    80    79    1
   102    76    75    2
   103   166   165    2
   104   114   113    2
   105   113   125   am
   106   165   164    1
   107    75    79   am
   108    75    74    1
   109   168   167    1
   110   125   126    1
   111    71    72    1
   112    71    68    1
   113    73    74    1
   114    73    69   am
   115   167   164    1
   116   167   169    1
   117    74    77    1
   118   128   127    2
   119   164   163    1
   120   126   127    1
   121    68    69    1
   122    68    67    1
   123   127   129   am
   124    77    78    1
   125    69    70    2
   126   163   161   am
   127    78   147    1
   128    67    61   am
   129   161   162    2
   130   161   160    1
   131   129   130    1
   132   136   135    2
   133   130   131    1
   134   130   133    1
   135   137   135   am
   136   135   134    1
   137   160   159    1
   138   146   147    1
   139   146   143    1
   140    62    61    2
   141   132   131    2
   142   131   138   am
   143    61    60    1
   144   138   139    1
   145   142   143    1
   146   142   140   am
   147    65    64   ar
   148   134   133    1
   149   139   140    1
   150   143   144    1
   151   140   141    2
   152   159   150   am
   153    64    66   ar
   154    64    63    1
   155    60    63    1
   156    60    59    1
   157   151   150    2
   158   150   149    1
   159   144   145    2
   160   152   149    1
   161   152   153    1
   162   149   148    1
   163   153   154   ar
   164   153   155   ar
   165   154   156   ar
   166   155   157   ar
   167   156   158   ar
   168   157   158   ar
