@<TRIPOS>MOLECULE
tmp/5paqB00.pdb
 185 183 0 0 0
SMALL
GASTEIGER

@<TRIPOS>ATOM
      1  N          4.7880   33.9260   17.3630 N.3    41  HIS41      -0.1226
      2  CA         4.5120   35.2680   17.9160 C.3    41  HIS41       0.1752
      3  C          5.5860   36.2870   17.5590 C.2    41  HIS41       0.2596
      4  O          5.3200   37.4940   17.5880 O.2    41  HIS41      -0.2718
      5  CB         4.2870   35.1640   19.4420 C.3    41  HIS41       0.0759
      6  CG         5.5250   35.1640   20.2680 C.ar   41  HIS41       0.0818
      7  ND1        6.0290   34.0370   20.8480 N.ar   41  HIS41      -0.2268
      8  CD2        6.2990   36.1840   20.6910 C.ar   41  HIS41       0.1154
      9  CE1        7.1070   34.3430   21.5350 C.ar   41  HIS41       0.1986
     10  NE2        7.2690   35.6470   21.4750 N.ar   41  HIS41      -0.2212
     11  N          6.7800   35.8150   17.1570 N.am   42  CYS42      -0.1970
     12  CA         7.8350   36.6520   16.6290 C.3    42  CYS42       0.1712
     13  C          7.4150   37.4860   15.4200 C.2    42  CYS42       0.2296
     14  O          8.0260   38.5290   15.1510 O.2    42  CYS42      -0.2864
     15  CB         9.1020   35.8340   16.2480 C.3    42  CYS42       0.0983
     16  SG         9.8500   35.0830   17.7300 S.3    42  CYS42      -0.0798
     17  N          4.1650   38.6990   14.8310 N.3    44  ASP44      -0.1225
     18  CA         2.8000   39.3050   14.9450 C.3    44  ASP44       0.1805
     19  C          2.8080   40.7560   14.4370 C.2    44  ASP44       0.2597
     20  O          1.7820   41.2440   13.9830 O.2    44  ASP44      -0.2718
     21  CB         2.2960   39.3300   16.3880 C.3    44  ASP44       0.1424
     22  CG         1.7760   38.0400   16.8980 C.2    44  ASP44       0.3668
     23  OD1        1.7620   36.9830   16.2070 O.co2  44  ASP44      -0.2456
     24  OD2        1.3840   37.9990   18.1080 O.co2  44  ASP44      -0.2456
     25  N          3.9440   41.4380   14.4820 N.am   45  LYS45      -0.1979
     26  CA         3.9720   42.9100   14.1980 C.3    45  LYS45       0.1596
     27  C          4.8060   43.2230   12.9980 C.2    45  LYS45       0.2287
     28  O          5.1540   44.3600   12.7640 O.2    45  LYS45      -0.2864
     29  CB         4.5190   43.6470   15.4060 C.3    45  LYS45       0.0298
     30  CG         3.6500   43.4930   16.6550 C.3    45  LYS45       0.0038
     31  CD         4.4280   43.9540   17.8970 C.3    45  LYS45       0.0206
     32  CE         3.9110   43.3340   19.2000 C.3    45  LYS45       0.1093
     33  NZ         4.8320   43.5770   20.3630 N.3    45  LYS45      -0.1314
     34  N         -1.4620   37.3440   18.9450 N.3    85  GLY85      -0.1210
     35  CA        -1.7120   37.9220   20.2510 C.3    85  GLY85       0.1956
     36  C         -2.2560   36.9490   21.2460 C.2    85  GLY85       0.2613
     37  O         -2.6440   37.3710   22.3090 O.2    85  GLY85      -0.2717
     38  N         -2.2550   35.6450   20.9420 N.am   86  THR86      -0.1938
     39  CA        -2.5640   34.6020   21.8980 C.3    86  THR86       0.2028
     40  C         -1.4310   33.5430   21.9070 C.2    86  THR86       0.2642
     41  O         -0.4730   33.6710   21.1380 O.2    86  THR86      -0.2714
     42  CB        -3.8760   33.9090   21.6130 C.3    86  THR86       0.1808
     43  OG1       -3.7580   33.1710   20.3860 O.3    86  THR86      -0.2208
     44  CG2       -5.0290   34.9140   21.4840 C.3    86  THR86       0.0379
     45  N         -1.5130   32.5820   22.8100 N.am   87  THR87      -0.1950
     46  CA        -0.3410   31.7310   23.1450 C.3    87  THR87       0.1897
     47  C         -0.2950   30.3780   22.4600 C.2    87  THR87       0.2313
     48  O          0.8040   29.8340   22.2970 O.2    87  THR87      -0.2863
     49  CB        -0.2270   31.4730   24.6720 C.3    87  THR87       0.1794
     50  OG1       -1.4860   30.9260   25.1500 O.3    87  THR87      -0.2208
     51  CG2        0.1570   32.7820   25.3850 C.3    87  THR87       0.0378
     52  N          2.3520   28.1060   19.1310 N.3    90  ASP90      -0.1239
     53  CA         3.3430   29.1320   18.9260 C.3    90  ASP90       0.1674
     54  C          4.6080   28.6180   18.2140 C.2    90  ASP90       0.2266
     55  O          5.6560   28.4140   18.7980 O.2    90  ASP90      -0.2867
     56  CB         3.7400   29.7710   20.2650 C.3    90  ASP90       0.1410
     57  CG         4.5000   31.0560   20.0800 C.2    90  ASP90       0.3668
     58  OD1        4.5200   31.5810   18.9390 O.co2  90  ASP90      -0.2456
     59  OD2        5.0850   31.5900   21.0640 O.co2  90  ASP90      -0.2456
     60  N         -2.9550   32.5040   30.7570 N.3   165  PRO165     -0.2116
     61  CA        -3.4700   31.5160   29.7880 C.3   165  PRO165      0.1372
     62  C         -3.3320   30.0430   30.2270 C.2   165  PRO165      0.2244
     63  O         -2.4960   29.7050   31.0680 O.2   165  PRO165     -0.2868
     64  CB        -2.6330   31.7950   28.5040 C.3   165  PRO165      0.0268
     65  CG        -1.8730   33.0530   28.7640 C.3   165  PRO165      0.0207
     66  CD        -1.7260   33.1580   30.2500 C.3   165  PRO165      0.0892
     67  N         15.7350   31.6960   33.9610 N.3   182  ASP182     -0.1225
     68  CA        14.6430   31.6080   32.9890 C.3   182  ASP182      0.1805
     69  C         15.1700   32.0330   31.6220 C.2   182  ASP182      0.2598
     70  O         16.2530   32.6320   31.5130 O.2   182  ASP182     -0.2718
     71  CB        13.4840   32.4970   33.4050 C.3   182  ASP182      0.1424
     72  CG        12.1240   32.1540   32.7990 C.2   182  ASP182      0.3668
     73  OD1       11.9530   31.1300   32.0420 O.co2 182  ASP182     -0.2456
     74  OD2       11.1900   32.9800   33.0900 O.co2 182  ASP182     -0.2456
     75  N         14.3700   31.7080   30.5820 N.am  183  SER183     -0.1938
     76  CA        14.4650   32.4280   29.3320 C.3   183  SER183      0.2055
     77  C         13.5300   33.6170   29.4330 C.2   183  SER183      0.2643
     78  O         12.6370   33.6550   30.2920 O.2   183  SER183     -0.2714
     79  CB        14.1520   31.5100   28.1130 C.3   183  SER183      0.2130
     80  OG        12.8640   30.8980   28.2580 O.3   183  SER183     -0.2179
     81  N         13.7480   34.6130   28.5790 N.am  184  CYS184     -0.1953
     82  CA        12.8500   35.7810   28.6150 C.3   184  CYS184      0.1843
     83  C         12.5220   36.2440   27.1870 C.2   184  CYS184      0.2625
     84  O         12.8550   35.5560   26.2260 O.2   184  CYS184     -0.2714
     85  CB        13.3940   36.8520   29.5580 C.3   184  CYS184      0.0997
     86  SG        13.3360   36.2920   31.3180 S.3   184  CYS184     -0.0797
     87  N         11.7180   37.3080   27.0680 N.am  185  LYS185     -0.1977
     88  CA        11.1090   37.6660   25.7830 C.3   185  LYS185      0.1596
     89  C         12.0530   37.7460   24.5870 C.2   185  LYS185      0.2287
     90  O         11.6400   37.3140   23.4890 O.2   185  LYS185     -0.2864
     91  CB        10.2660   38.9590   25.8680 C.3   185  LYS185      0.0298
     92  CG        11.1220   40.1880   26.2060 C.3   185  LYS185      0.0038
     93  CD        10.1930   41.3680   26.4430 C.3   185  LYS185      0.0206
     94  CE        11.0360   42.5390   26.9240 C.3   185  LYS185      0.1093
     95  NZ        10.2130   43.7610   26.9420 N.3   185  LYS185     -0.1314
     96  N         12.7190   34.4990   22.7640 N.3   188  SER188     -0.1217
     97  CA        11.5760   33.9490   22.0310 C.3   188  SER188      0.1889
     98  C         12.0200   33.3720   20.6910 C.2   188  SER188      0.2288
     99  O         12.7760   33.9480   19.9240 O.2   188  SER188     -0.2866
    100  CB        10.5020   35.0350   21.7090 C.3   188  SER188      0.2089
    101  OG         9.8480   35.5010   22.8980 O.3   188  SER188     -0.2183
    102  N         11.2160   28.5540   22.8530 N.3   206  VAL206     -0.1231
    103  CA        10.9480   29.6300   23.8590 C.3   206  VAL206      0.1692
    104  C          9.6960   30.3940   23.4070 C.2   206  VAL206      0.2593
    105  O          9.6340   30.9630   22.2840 O.2   206  VAL206     -0.2718
    106  CB        12.1280   30.5860   23.9720 C.3   206  VAL206      0.0266
    107  CG1       11.8130   31.7430   24.9590 C.3   206  VAL206      0.0020
    108  CG2       13.4180   29.8810   24.3780 C.3   206  VAL206      0.0020
    109  N          8.6670   30.3680   24.2140 N.am  207  SER207     -0.1938
    110  CA         7.3460   30.8680   23.8030 C.3   207  SER207      0.2055
    111  C          6.8000   31.9960   24.7150 C.2   207  SER207      0.2643
    112  O          6.6360   33.1240   24.2520 O.2   207  SER207     -0.2714
    113  CB         6.3530   29.7010   23.7110 C.3   207  SER207      0.2130
    114  OG         5.0500   30.1500   23.3490 O.3   207  SER207     -0.2179
    115  N          6.4940   31.6800   25.9630 N.am  208  TRP208     -0.1959
    116  CA         5.8840   32.7120   26.8320 C.3   208  TRP208      0.1771
    117  C          6.1640   32.4770   28.3040 C.2   208  TRP208      0.2620
    118  O          6.6990   31.4530   28.7310 O.2   208  TRP208     -0.2715
    119  CB         4.4050   32.8780   26.5620 C.3   208  TRP208      0.0590
    120  CG         3.5030   31.6970   26.8130 C.ar  208  TRP208      0.0006
    121  CD1        3.2420   30.6470   25.9680 C.ar  208  TRP208      0.0946
    122  CD2        2.6770   31.4810   27.9750 C.ar  208  TRP208      0.0152
    123  NE1        2.3420   29.7730   26.5470 N.ar  208  TRP208     -0.2442
    124  CE2        1.9810   30.2800   27.7800 C.ar  208  TRP208      0.0810
    125  CE3        2.4700   32.1990   29.1640 C.ar  208  TRP208      0.0012
    126  CZ2        1.0610   29.8020   28.6950 C.ar  208  TRP208      0.0191
    127  CZ3        1.5890   31.6850   30.1190 C.ar  208  TRP208      0.0001
    128  CH2        0.9210   30.4960   29.9020 C.ar  208  TRP208      0.0015
    129  N          5.7670   33.4950   29.0760 N.am  209  GLY209     -0.1940
    130  CA         5.7440   33.3770   30.5100 C.3   209  GLY209      0.2014
    131  C          5.2700   34.7180   31.0960 C.2   209  GLY209      0.2639
    132  O          4.7600   35.5810   30.3720 O.2   209  GLY209     -0.2714
    133  N          5.4370   34.8370   32.4120 N.am  210  GLN210     -0.1963
    134  CA         5.0680   36.0690   33.1250 C.3   210  GLN210      0.1733
    135  C          6.3630   36.8510   33.3830 C.2   210  GLN210      0.2617
    136  O          7.3540   36.3280   33.9010 O.2   210  GLN210     -0.2715
    137  CB         4.3160   35.7180   34.4220 C.3   210  GLN210      0.0408
    138  CG         3.1410   34.7360   34.2910 C.3   210  GLN210      0.0908
    139  CD         1.9740   35.3000   33.5350 C.2   210  GLN210      0.2608
    140  OE1        1.0880   34.5640   33.0800 O.2   210  GLN210     -0.2717
    141  NE2        1.9540   36.6110   33.3860 N.am  210  GLN210     -0.0878
    142  N          6.3480   38.1070   32.9740 N.am  211  GLY211     -0.1940
    143  CA         7.4550   39.0150   33.2240 C.3   211  GLY211      0.2014
    144  C          8.7170   38.4120   32.6810 C.2   211  GLY211      0.2639
    145  O          8.7700   38.0770   31.4820 O.2   211  GLY211     -0.2714
    146  N          9.6930   38.2060   33.5450 N.am  212  CYS212     -0.1967
    147  CA        10.8810   37.5000   33.1900 C.3   212  CYS212      0.1712
    148  C         11.5500   36.9760   34.4200 C.2   212  CYS212      0.2296
    149  O         11.8590   37.7730   35.2930 O.2   212  CYS212     -0.2864
    150  CB        11.7320   38.5090   32.4180 C.3   212  CYS212      0.0983
    151  SG        13.4440   38.0950   32.3040 S.3   212  CYS212     -0.0798
    152  N          6.9940   29.4960   35.8990 N.3   218  PHE218     -0.1227
    153  CA         7.9690   28.7780   35.0500 C.3   218  PHE218      0.1736
    154  C          7.9140   29.3160   33.6290 C.2   218  PHE218      0.2596
    155  O          6.9460   29.9410   33.2590 O.2   218  PHE218     -0.2718
    156  CB         7.5980   27.3140   35.0000 C.3   218  PHE218      0.0547
    157  CG         7.7380   26.6310   36.3110 C.ar  218  PHE218     -0.0202
    158  CD1        8.9340   26.1030   36.6810 C.ar  218  PHE218     -0.0042
    159  CD2        6.6630   26.5490   37.1630 C.ar  218  PHE218     -0.0042
    160  CE1        9.1040   25.4800   37.9240 C.ar  218  PHE218     -0.0003
    161  CE2        6.8050   25.9130   38.3870 C.ar  218  PHE218     -0.0003
    162  CZ         8.0290   25.4110   38.7770 C.ar  218  PHE218     -0.0000
    163  N          8.9420   28.9980   32.8440 N.am  219  GLY219     -0.1942
    164  CA         8.8720   29.3190   31.3970 C.3   219  GLY219      0.2014
    165  C          7.9330   28.3530   30.7130 C.2   219  GLY219      0.2639
    166  O          7.8740   27.1450   31.0770 O.2   219  GLY219     -0.2714
    167  N          7.2520   28.8360   29.6690 N.am  220  VAL220     -0.1963
    168  CA         6.4110   28.0130   28.8540 C.3   220  VAL220      0.1727
    169  C          6.9860   27.9110   27.4240 C.2   220  VAL220      0.2616
    170  O          7.4030   28.9010   26.8320 O.2   220  VAL220     -0.2715
    171  CB         4.9560   28.4820   28.8600 C.3   220  VAL220      0.0290
    172  CG1        4.0510   27.3950   28.2850 C.3   220  VAL220      0.0023
    173  CG2        4.4950   28.7330   30.3300 C.3   220  VAL220      0.0023
    174  N          7.0330   26.6770   26.9570 N.am  221  TYR221     -0.1974
    175  CA         7.6850   26.3130   25.6900 C.3   221  TYR221      0.1639
    176  C          6.6810   25.6300   24.7870 C.2   221  TYR221      0.2290
    177  O          5.8500   24.8050   25.2490 O.2   221  TYR221     -0.2864
    178  CB         8.8810   25.4030   26.0020 C.3   221  TYR221      0.0560
    179  CG         9.9190   26.0960   26.8020 C.ar  221  TYR221     -0.0198
    180  CD1        9.8010   26.2040   28.2430 C.ar  221  TYR221     -0.0009
    181  CD2       11.0360   26.6830   26.1870 C.ar  221  TYR221     -0.0009
    182  CE1       10.7610   26.8690   28.9490 C.ar  221  TYR221      0.0417
    183  CE2       11.9810   27.3490   26.9180 C.ar  221  TYR221      0.0417
    184  CZ        11.8220   27.4560   28.3110 C.ar  221  TYR221      0.1957
    185  OH        12.8330   28.1630   28.9790 O.3   221  TYR221     -0.2866
@<TRIPOS>BOND
     1    28    27    2
     2    27    26    1
     3    20    19    2
     4    26    25    1
     5    26    29    1
     6    19    25   am
     7    19    18    1
     8    17    18    1
     9    18    21    1
    10    14    13    2
    11    29    30    1
    12    13    12    1
    13    23    22   ar
    14    15    12    1
    15    15    16    1
    16    21    22    1
    17    12    11    1
    18    30    31    1
    19    22    24   ar
    20    11     3   am
    21     1     2    1
    22     3     4    2
    23     3     2    1
    24    31    32    1
    25     2     5    1
    26    54    55    2
    27    54    53    1
    28    53    52    1
    29    53    56    1
    30    58    57   ar
    31    34    35    1
    32    32    33    1
    33     5     6    1
    34    99    98    2
    35    57    56    1
    36    57    59   ar
    37    35    36    1
    38     6     8   ar
    39     6     7   ar
    40    43    42    1
    41     8    10   ar
    42    98    97    1
    43     7     9   ar
    44    38    36   am
    45    38    39    1
    46    41    40    2
    47    36    37    2
    48    10     9   ar
    49    44    42    1
    50    42    39    1
    51   100    97    1
    52   100   101    1
    53    39    40    1
    54    40    45   am
    55    97    96    1
    56   105   104    2
    57    48    47    2
    58    47    46    1
    59    45    46    1
    60   102   103    1
    61    46    49    1
    62   114   113    1
    63   104   103    1
    64   104   109   am
    65    90    89    2
    66   113   110    1
    67   110   109    1
    68   110   111    1
    69   103   106    1
    70   106   108    1
    71   106   107    1
    72   112   111    2
    73    89    88    1
    74    49    50    1
    75    49    51    1
    76   111   115   am
    77   176   177    2
    78   176   175    1
    79   175   178    1
    80   175   174    1
    81    88    91    1
    82    88    87    1
    83    91    92    1
    84   115   116    1
    85   121   123   ar
    86   121   120   ar
    87   178   179    1
    88   181   179   ar
    89   181   183   ar
    90    92    93    1
    91    84    83    2
    92    93    94    1
    93   123   124   ar
    94   119   120    1
    95   119   116    1
    96   179   180   ar
    97   120   122   ar
    98   116   117    1
    99   170   169    2
   100   183   184   ar
   101    94    95    1
   102   174   169   am
   103    87    83   am
   104    83    82    1
   105   169   168    1
   106   124   122   ar
   107   124   126   ar
   108   122   125   ar
   109    79    80    1
   110    79    76    1
   111   180   182   ar
   112   172   171    1
   113   117   118    2
   114   117   129   am
   115   184   182   ar
   116   184   185    1
   117    64    65    1
   118    64    61    1
   119    81    82    1
   120    81    77   am
   121    82    85    1
   122   126   128   ar
   123    65    66    1
   124   168   171    1
   125   168   167    1
   126   171   173    1
   127   129   130    1
   128   125   127   ar
   129    76    77    1
   130    76    75    1
   131    77    78    2
   132    85    86    1
   133   167   165   am
   134    61    62    1
   135    61    60    1
   136   128   127   ar
   137    62    63    2
   138    66    60    1
   139   132   131    2
   140   130   131    1
   141    75    69   am
   142   165   166    2
   143   165   164    1
   144   131   133   am
   145    86   151    1
   146   164   163    1
   147   145   144    2
   148    70    69    2
   149    69    68    1
   150    73    72   ar
   151   151   150    1
   152   133   134    1
   153   150   147    1
   154   144   143    1
   155   144   146   am
   156    72    74   ar
   157    72    71    1
   158   163   154   am
   159   142   143    1
   160   142   135   am
   161    68    71    1
   162    68    67    1
   163   140   139    2
   164   134   135    1
   165   134   137    1
   166   147   146    1
   167   147   148    1
   168   155   154    2
   169   135   136    2
   170   141   139   am
   171   139   138    1
   172   154   153    1
   173   138   137    1
   174   148   149    2
   175   156   153    1
   176   156   157    1
   177   153   152    1
   178   157   158   ar
   179   157   159   ar
   180   158   160   ar
   181   159   161   ar
   182   160   162   ar
   183   161   162   ar
