@<TRIPOS>MOLECULE
tmp/5parB00.pdb
 108 107 0 0 0
SMALL
GASTEIGER

@<TRIPOS>ATOM
      1  N          4.8360   34.0870   17.5120 N.3    41  HIS41      -0.1241
      2  CA         4.6050   35.4340   18.0560 C.3    41  HIS41       0.1621
      3  C          5.7160   36.4190   17.6720 C.2    41  HIS41       0.2264
      4  O          5.4940   37.6010   17.6870 O.2    41  HIS41      -0.2867
      5  CB         4.3600   35.4040   19.5790 C.3    41  HIS41       0.0745
      6  CG         5.6000   35.3880   20.4140 C.ar   41  HIS41       0.0817
      7  ND1        6.0710   34.2460   21.0290 N.ar   41  HIS41      -0.2268
      8  CD2        6.4490   36.3850   20.7690 C.ar   41  HIS41       0.1154
      9  CE1        7.1680   34.5330   21.7040 C.ar   41  HIS41       0.1986
     10  NE2        7.4190   35.8230   21.5630 N.ar   41  HIS41      -0.2212
     11  N         15.9530   31.6630   34.0280 N.3   182  ASP182     -0.1225
     12  CA        14.8320   31.6470   33.0810 C.3   182  ASP182      0.1805
     13  C         15.2940   32.0920   31.6960 C.2   182  ASP182      0.2598
     14  O         16.3950   32.6280   31.5300 O.2   182  ASP182     -0.2718
     15  CB        13.6980   32.5580   33.5810 C.3   182  ASP182      0.1424
     16  CG        12.3360   32.1780   33.0330 C.2   182  ASP182      0.3668
     17  OD1       12.1900   31.0660   32.4720 O.co2 182  ASP182     -0.2456
     18  OD2       11.3870   33.0080   33.1600 O.co2 182  ASP182     -0.2456
     19  N         14.4620   31.8320   30.6980 N.am  183  SER183     -0.1938
     20  CA        14.5900   32.5180   29.4240 C.3   183  SER183      0.2055
     21  C         13.7120   33.7650   29.5230 C.2   183  SER183      0.2643
     22  O         12.8180   33.8400   30.3830 O.2   183  SER183     -0.2714
     23  CB        14.1910   31.6190   28.2530 C.3   183  SER183      0.2130
     24  OG        12.8760   31.1290   28.4210 O.3   183  SER183     -0.2179
     25  N         13.9930   34.7390   28.6650 N.am  184  CYS184     -0.1953
     26  CA        13.4590   36.0820   28.8170 C.3   184  CYS184      0.1843
     27  C         13.1750   36.6940   27.4580 C.2   184  CYS184      0.2625
     28  O         13.3860   36.0490   26.4150 O.2   184  CYS184     -0.2714
     29  CB        14.4850   36.9360   29.5900 C.3   184  CYS184      0.0997
     30  SG        13.8460   38.4540   30.4020 S.3   184  CYS184     -0.0797
     31  N         12.7040   37.9420   27.4680 N.am  185  LYS185     -0.1977
     32  CA        12.4020   38.6280   26.2230 C.3   185  LYS185      0.1596
     33  C         13.6530   38.6890   25.3920 C.2   185  LYS185      0.2287
     34  O         14.7470   38.9470   25.9180 O.2   185  LYS185     -0.2864
     35  CB        11.9360   40.0660   26.4350 C.3   185  LYS185      0.0298
     36  CG        10.5100   40.2450   26.9060 C.3   185  LYS185      0.0038
     37  CD        10.1750   41.7610   27.0980 C.3   185  LYS185      0.0206
     38  CE        10.6410   42.6090   25.8810 C.3   185  LYS185      0.1093
     39  NZ         9.9780   43.9690   25.8140 N.3   185  LYS185     -0.1314
     40  N         12.9300   34.4990   22.7780 N.3   188  SER188     -0.1217
     41  CA        11.7810   33.9420   22.0930 C.3   188  SER188      0.1889
     42  C         12.1800   33.3560   20.7660 C.2   188  SER188      0.2288
     43  O         12.9700   33.9610   20.0330 O.2   188  SER188     -0.2866
     44  CB        10.7440   35.0310   21.8080 C.3   188  SER188      0.2089
     45  OG         9.9950   35.3410   22.9480 O.3   188  SER188     -0.2183
     46  N         11.3710   28.5940   22.8470 N.3   206  VAL206     -0.1231
     47  CA        11.1850   29.6620   23.8340 C.3   206  VAL206      0.1692
     48  C          9.9400   30.4600   23.4470 C.2   206  VAL206      0.2593
     49  O          9.8460   30.9830   22.3470 O.2   206  VAL206     -0.2718
     50  CB        12.4120   30.5960   23.9360 C.3   206  VAL206      0.0266
     51  CG1       12.1340   31.7260   24.9380 C.3   206  VAL206      0.0020
     52  CG2       13.6820   29.7990   24.3190 C.3   206  VAL206      0.0020
     53  N          8.9620   30.5040   24.3350 N.am  207  SER207     -0.1938
     54  CA         7.6460   30.9860   23.9590 C.3   207  SER207      0.2055
     55  C          7.1000   32.1070   24.8500 C.2   207  SER207      0.2643
     56  O          6.8620   33.2000   24.3780 O.2   207  SER207     -0.2714
     57  CB         6.6610   29.8080   23.9200 C.3   207  SER207      0.2130
     58  OG         5.3750   30.2790   23.5590 O.3   207  SER207     -0.2179
     59  N          6.8750   31.8310   26.1300 N.am  208  TRP208     -0.1959
     60  CA         6.3270   32.8610   27.0330 C.3   208  TRP208      0.1771
     61  C          6.5450   32.5610   28.5200 C.2   208  TRP208      0.2620
     62  O          7.0710   31.5170   28.8980 O.2   208  TRP208     -0.2715
     63  CB         4.8210   33.1150   26.7740 C.3   208  TRP208      0.0590
     64  CG         3.9030   31.9750   27.0740 C.ar  208  TRP208      0.0006
     65  CD1        3.6630   30.8820   26.2710 C.ar  208  TRP208      0.0946
     66  CD2        3.0590   31.8090   28.2290 C.ar  208  TRP208      0.0152
     67  NE1        2.7400   30.0470   26.8590 N.ar  208  TRP208     -0.2442
     68  CE2        2.3490   30.5900   28.0580 C.ar  208  TRP208      0.0810
     69  CE3        2.8350   32.5650   29.3850 C.ar  208  TRP208      0.0012
     70  CZ2        1.4290   30.1120   29.0020 C.ar  208  TRP208      0.0191
     71  CZ3        1.9200   32.0790   30.3370 C.ar  208  TRP208      0.0001
     72  CH2        1.2390   30.8580   30.1370 C.ar  208  TRP208      0.0015
     73  N          6.1560   33.5310   29.3390 N.am  209  GLY209     -0.1954
     74  CA         6.0880   33.3670   30.7800 C.3   209  GLY209      0.1869
     75  C          5.4850   34.6150   31.3930 C.2   209  GLY209      0.2309
     76  O          5.2600   35.6110   30.6950 O.2   209  GLY209     -0.2863
     77  N          6.4810   37.5610   32.9930 N.3   211  GLY211     -0.1210
     78  CA         7.7340   38.3030   33.1330 C.3   211  GLY211      0.1956
     79  C          8.8790   37.3370   32.9350 C.2   211  GLY211      0.2612
     80  O          8.6870   36.2860   32.2960 O.2   211  GLY211     -0.2717
     81  N         10.0530   37.6460   33.4880 N.am  212  CYS212     -0.1970
     82  CA        11.2430   36.7940   33.3950 C.3   212  CYS212      0.1712
     83  C         11.8350   36.4620   34.7460 C.2   212  CYS212      0.2296
     84  O         12.1730   37.3850   35.4770 O.2   212  CYS212     -0.2864
     85  CB        12.3350   37.5500   32.6760 C.3   212  CYS212      0.0983
     86  SG        11.9850   37.9660   31.0430 S.3   212  CYS212     -0.0798
     87  N          7.1890   29.4800   36.1300 N.3   218  PHE218     -0.1227
     88  CA         8.1370   28.7720   35.2750 C.3   218  PHE218      0.1736
     89  C          8.0910   29.2880   33.8460 C.2   218  PHE218      0.2596
     90  O          7.0820   29.8310   33.4060 O.2   218  PHE218     -0.2718
     91  CB         7.8020   27.2800   35.2310 C.3   218  PHE218      0.0547
     92  CG         8.0190   26.5810   36.5240 C.ar  218  PHE218     -0.0202
     93  CD1        9.2360   26.0020   36.8100 C.ar  218  PHE218     -0.0042
     94  CD2        7.0060   26.5250   37.4640 C.ar  218  PHE218     -0.0042
     95  CE1        9.4470   25.3630   38.0140 C.ar  218  PHE218     -0.0003
     96  CE2        7.1940   25.8880   38.6630 C.ar  218  PHE218     -0.0003
     97  CZ         8.4200   25.3010   38.9440 C.ar  218  PHE218     -0.0000
     98  N          9.1770   29.0650   33.1120 N.am  219  GLY219     -0.1942
     99  CA         9.1780   29.3540   31.6670 C.3   219  GLY219      0.2014
    100  C          8.2550   28.4060   30.9330 C.2   219  GLY219      0.2638
    101  O          8.0470   27.2720   31.3730 O.2   219  GLY219     -0.2714
    102  N          7.6700   28.8910   29.8470 N.am  220  VAL220     -0.1977
    103  CA         6.7820   28.0960   29.0080 C.3   220  VAL220      0.1596
    104  C          7.3500   27.9440   27.5860 C.2   220  VAL220      0.2287
    105  O          7.9100   28.8730   27.0120 O.2   220  VAL220     -0.2864
    106  CB         5.3580   28.6540   28.9700 C.3   220  VAL220      0.0276
    107  CG1        4.4230   27.6780   28.2120 C.3   220  VAL220      0.0022
    108  CG2        4.8310   28.8700   30.4000 C.3   220  VAL220      0.0022
@<TRIPOS>BOND
     1     1     2    1
     2     3     4    2
     3     3     2    1
     4     2     5    1
     5     5     6    1
     6    43    42    2
     7     6     8   ar
     8     6     7   ar
     9    42    41    1
    10     8    10   ar
    11     7     9   ar
    12    10     9   ar
    13    44    41    1
    14    44    45    1
    15    41    40    1
    16    49    48    2
    17    46    47    1
    18    48    47    1
    19    48    53   am
    20    58    57    1
    21    47    50    1
    22    57    54    1
    23    50    52    1
    24    50    51    1
    25    54    53    1
    26    54    55    1
    27    56    55    2
    28    55    59   am
    29    33    34    2
    30    33    32    1
    31    39    38    1
    32    38    37    1
    33    59    60    1
    34    32    35    1
    35    32    31    1
    36    65    67   ar
    37    65    64   ar
    38    28    27    2
    39    35    36    1
    40    63    60    1
    41    63    64    1
    42    67    68   ar
    43    36    37    1
    44   105   104    2
    45    60    61    1
    46    64    66   ar
    47    27    31   am
    48    27    26    1
    49   104   103    1
    50    68    66   ar
    51    68    70   ar
    52   107   106    1
    53    66    69   ar
    54    23    24    1
    55    23    20    1
    56    61    62    2
    57    61    73   am
    58    25    26    1
    59    25    21   am
    60    26    29    1
    61   106   103    1
    62   106   108    1
    63    70    72   ar
    64   103   102    1
    65    73    74    1
    66    69    71   ar
    67    20    21    1
    68    20    19    1
    69    21    22    2
    70    29    30    1
    71   102   100   am
    72    72    71   ar
    73    30    86    1
    74    76    75    2
    75    19    13   am
    76    74    75    1
    77   100   101    2
    78   100    99    1
    79    86    85    1
    80    14    13    2
    81    99    98    1
    82    13    12    1
    83    80    79    2
    84    17    16   ar
    85    85    82    1
    86    79    78    1
    87    79    81   am
    88    77    78    1
    89    16    18   ar
    90    16    15    1
    91    12    15    1
    92    12    11    1
    93    98    89   am
    94    82    81    1
    95    82    83    1
    96    90    89    2
    97    89    88    1
    98    83    84    2
    99    91    88    1
   100    91    92    1
   101    88    87    1
   102    92    93   ar
   103    92    94   ar
   104    93    95   ar
   105    94    96   ar
   106    95    97   ar
   107    96    97   ar
