@<TRIPOS>MOLECULE
tmp/5parB01.pdb
 92 88 0 0 0
SMALL
GASTEIGER

@<TRIPOS>ATOM
      1  N          5.8750   31.6260   16.4460 N.3    40  ALA40      -0.1245
      2  CA         4.9180   32.4340   15.6800 C.3    40  ALA40       0.1562
      3  C          4.8230   33.8840   16.1890 C.2    40  ALA40       0.2260
      4  O          4.7580   34.8160   15.3840 O.2    40  ALA40      -0.2867
      5  CB         3.5260   31.7650   15.6840 C.3    40  ALA40       0.0290
      6  N          6.5540   37.2460   14.8930 N.3    43  PHE43      -0.1227
      7  CA         6.1800   37.9130   13.6410 C.3    43  PHE43       0.1736
      8  C          4.8590   38.6760   13.7400 C.2    43  PHE43       0.2595
      9  O          4.3530   39.1470   12.7300 O.2    43  PHE43      -0.2718
     10  CB         6.1630   36.8780   12.5050 C.3    43  PHE43       0.0547
     11  CG         7.4150   36.0400   12.4730 C.ar   43  PHE43      -0.0202
     12  CD1        8.5770   36.5330   11.8960 C.ar   43  PHE43      -0.0042
     13  CD2        7.4660   34.8140   13.1170 C.ar   43  PHE43      -0.0042
     14  CE1        9.7770   35.7810   11.9230 C.ar   43  PHE43      -0.0003
     15  CE2        8.6320   34.0660   13.1510 C.ar   43  PHE43      -0.0003
     16  CZ         9.7960   34.5560   12.5410 C.ar   43  PHE43      -0.0000
     17  N          4.3270   38.8360   14.9480 N.am   44  ASP44      -0.1974
     18  CA         3.0430   39.5260   15.1260 C.3    44  ASP44       0.1709
     19  C          3.0420   40.9840   14.5860 C.2    44  ASP44       0.2293
     20  O          2.0170   41.4750   14.1170 O.2    44  ASP44      -0.2864
     21  CB         2.6190   39.5090   16.6070 C.3    44  ASP44       0.1436
     22  CG         2.0020   38.1920   17.0340 C.2    44  ASP44       0.3671
     23  OD1        1.8710   37.2660   16.1990 O.co2  44  ASP44      -0.2456
     24  OD2        1.6650   38.0660   18.2290 O.co2  44  ASP44      -0.2456
     25  N          5.4030   42.3740   12.2250 N.3    46  ILE46      -0.1245
     26  CA         6.2510   42.6250   11.0780 C.3    46  ILE46       0.1561
     27  C          5.4720   43.4470   10.0800 C.2    46  ILE46       0.2260
     28  O          4.3320   43.1340    9.7560 O.2    46  ILE46      -0.2867
     29  CB         6.7480   41.3350   10.3950 C.3    46  ILE46       0.0252
     30  CG1        7.5980   40.5280   11.3730 C.3    46  ILE46       0.0019
     31  CG2        7.5790   41.6780    9.1550 C.3    46  ILE46       0.0019
     32  CD1        8.8230   41.2610   11.8320 C.3    46  ILE46       0.0001
     33  N          7.9740   42.3030    5.4260 N.3    49  TRP49      -0.1241
     34  CA         8.4150   40.9270    5.5190 C.3    49  TRP49       0.1605
     35  C          9.7300   40.6710    4.7810 C.2    49  TRP49       0.2264
     36  O         10.4090   39.6850    5.0500 O.2    49  TRP49      -0.2867
     37  CB         7.3130   40.0050    4.9970 C.3    49  TRP49       0.0550
     38  CG         6.0810   40.0310    5.8690 C.ar   49  TRP49       0.0003
     39  CD1        5.0290   40.9030    5.7870 C.ar   49  TRP49       0.0946
     40  CD2        5.7970   39.1670    6.9780 C.ar   49  TRP49       0.0152
     41  NE1        4.0970   40.6160    6.7580 N.ar   49  TRP49      -0.2442
     42  CE2        4.5490   39.5630    7.5080 C.ar   49  TRP49       0.0810
     43  CE3        6.4730   38.0910    7.5690 C.ar   49  TRP49       0.0012
     44  CZ2        3.9660   38.9210    8.6070 C.ar   49  TRP49       0.0191
     45  CZ3        5.8960   37.4560    8.6450 C.ar   49  TRP49       0.0001
     46  CH2        4.6550   37.8700    9.1580 C.ar   49  TRP49       0.0015
     47  N          3.2140   29.5570    9.4790 N.3    78  ILE78      -0.1245
     48  CA         2.5880   29.5590   10.7800 C.3    78  ILE78       0.1561
     49  C          1.3070   28.6760   10.7400 C.2    78  ILE78       0.2260
     50  O          0.5750   28.6860    9.7480 O.2    78  ILE78      -0.2867
     51  CB         2.2550   31.0120   11.1490 C.3    78  ILE78       0.0252
     52  CG1        3.5790   31.7570   11.4780 C.3    78  ILE78       0.0019
     53  CG2        1.2730   31.0470   12.3220 C.3    78  ILE78       0.0019
     54  CD1        3.3880   33.2260   11.8370 C.3    78  ILE78       0.0001
     55  N         -2.8740   29.2680   15.1750 N.3    82  TYR82      -0.1241
     56  CA        -2.2300   30.3370   15.9320 C.3    82  TYR82       0.1605
     57  C         -2.9920   31.6320   15.7670 C.2    82  TYR82       0.2264
     58  O         -3.3370   31.9890   14.6560 O.2    82  TYR82      -0.2867
     59  CB        -0.7920   30.5780   15.4870 C.3    82  TYR82       0.0534
     60  CG        -0.1980   31.8110   16.1300 C.ar   82  TYR82      -0.0201
     61  CD1        0.2030   31.8150   17.4470 C.ar   82  TYR82      -0.0009
     62  CD2       -0.0670   32.9920   15.4180 C.ar   82  TYR82      -0.0009
     63  CE1        0.7400   32.9790   18.0320 C.ar   82  TYR82       0.0417
     64  CE2        0.4480   34.1420   16.0020 C.ar   82  TYR82       0.0417
     65  CZ         0.8580   34.1270   17.2920 C.ar   82  TYR82       0.1957
     66  OH         1.3910   35.2770   17.8320 O.3    82  TYR82      -0.2866
     67  N         -2.6290   35.7220   16.4620 N.3    84  PRO84      -0.2116
     68  CA        -1.7740   36.8140   16.9220 C.3    84  PRO84       0.1372
     69  C         -2.1980   37.4170   18.2470 C.2    84  PRO84       0.2244
     70  O         -3.3920   37.6170   18.4850 O.2    84  PRO84      -0.2868
     71  CB        -1.9100   37.8440   15.8130 C.3    84  PRO84       0.0268
     72  CG        -2.0940   37.0320   14.6110 C.3    84  PRO84       0.0207
     73  CD        -2.9640   35.8880   15.0390 C.3    84  PRO84       0.0892
     74  N          4.6560   35.4040    4.2370 N.3   244  LEU244     -0.1245
     75  CA         3.8340   34.7630    5.2670 C.3   244  LEU244      0.1561
     76  C          2.9030   33.7500    4.6290 C.2   244  LEU244      0.2260
     77  O          2.2020   34.0830    3.6830 O.2   244  LEU244     -0.2867
     78  CB         2.9850   35.7900    6.0120 C.3   244  LEU244      0.0270
     79  CG         2.0160   35.2770    7.1040 C.3   244  LEU244      0.0019
     80  CD1        2.8090   34.5120    8.1660 C.3   244  LEU244      0.0001
     81  CD2        1.2330   36.4530    7.7400 C.3   244  LEU244      0.0001
     82  N          0.0060   30.8540    5.9830 N.3   246  ARG246     -0.1245
     83  CA        -0.7280   30.1280    6.9940 C.3   246  ARG246      0.1563
     84  C         -1.0740   28.7530    6.4530 C.2   246  ARG246      0.2260
     85  O         -1.6050   28.6500    5.3560 O.2   246  ARG246     -0.2867
     86  CB        -1.9750   30.9190    7.3760 C.3   246  ARG246      0.0307
     87  CG        -1.6170   32.2100    8.0970 C.3   246  ARG246      0.0489
     88  CD        -2.8350   32.9950    8.5450 C.3   246  ARG246      0.2205
     89  NE        -3.6130   32.3130    9.5810 N.pl3 246  ARG246     -0.0865
     90  CZ        -4.8510   31.8190    9.4480 C.cat 246  ARG246      0.5346
     91  NH1       -5.5090   31.8740    8.3030 N.pl3 246  ARG246      0.1354
     92  NH2       -5.4450   31.2630   10.4930 N.pl3 246  ARG246      0.1354
@<TRIPOS>BOND
     1    77    76    2
     2    74    75    1
     3    76    75    1
     4    35    36    2
     5    35    34    1
     6    37    34    1
     7    37    38    1
     8    75    78    1
     9    85    84    2
    10    33    34    1
    11    39    38   ar
    12    39    41   ar
    13    38    40   ar
    14    82    83    1
    15    78    79    1
    16    84    83    1
    17    41    42   ar
    18    40    42   ar
    19    40    43   ar
    20    83    86    1
    21    79    81    1
    22    79    80    1
    23    86    87    1
    24    42    44   ar
    25    43    45   ar
    26    87    88    1
    27    91    90    1
    28    88    89    1
    29    44    46   ar
    30    45    46   ar
    31    31    29    1
    32    90    89    2
    33    90    92    1
    34    47    48    1
    35    50    49    2
    36    28    27    2
    37    27    26    1
    38    29    26    1
    39    29    30    1
    40    49    48    1
    41    48    51    1
    42    26    25    1
    43    51    52    1
    44    51    53    1
    45    30    32    1
    46    52    54    1
    47    12    14   ar
    48    12    11   ar
    49    14    16   ar
    50    11    10    1
    51    11    13   ar
    52    10     7    1
    53    16    15   ar
    54     9     8    2
    55    13    15   ar
    56     7     8    1
    57     7     6    1
    58     8    17   am
    59    20    19    2
    60    19    18    1
    61    72    73    1
    62    72    71    1
    63    58    57    2
    64    17    18    1
    65    73    67    1
    66    18    21    1
    67    55    56    1
    68     4     3    2
    69    62    64   ar
    70    62    60   ar
    71    59    56    1
    72    59    60    1
    73     2     5    1
    74     2     3    1
    75     2     1    1
    76    57    56    1
    77    71    68    1
    78    64    65   ar
    79    60    61   ar
    80    23    22   ar
    81    67    68    1
    82    21    22    1
    83    68    69    1
    84    22    24   ar
    85    65    66    1
    86    65    63   ar
    87    61    63   ar
    88    69    70    2
