@<TRIPOS>MOLECULE
tmp/5pasB00.pdb
 176 171 0 0 0
SMALL
GASTEIGER

@<TRIPOS>ATOM
      1  N         15.3320   40.5210   16.7420 N.3    25  LEU25      -0.1231
      2  CA        13.9020   40.1830   16.8360 C.3    25  LEU25       0.1693
      3  C         13.6390   39.0060   17.7620 C.2    25  LEU25       0.2592
      4  O         12.8680   39.0550   18.7110 O.2    25  LEU25      -0.2718
      5  CB        13.3560   39.8490   15.4460 C.3    25  LEU25       0.0284
      6  CG        11.8750   39.4460   15.4150 C.3    25  LEU25       0.0019
      7  CD1       10.9980   40.6520   15.7350 C.3    25  LEU25       0.0001
      8  CD2       11.4870   38.8270   14.0770 C.3    25  LEU25       0.0001
      9  N         14.2960   37.9310   17.4150 N.am   26  CYS26      -0.1970
     10  CA        14.0220   36.6300   18.0180 C.3    26  CYS26       0.1712
     11  C         15.1150   35.6570   17.6900 C.2    26  CYS26       0.2296
     12  O         16.0090   35.9240   16.8990 O.2    26  CYS26      -0.2864
     13  CB        12.6790   36.0810   17.5140 C.3    26  CYS26       0.0983
     14  SG        11.1890   36.6710   18.3830 S.3    26  CYS26      -0.0798
     15  N          4.7960   34.0470   17.2680 N.3    41  HIS41      -0.1226
     16  CA         4.4680   35.3540   17.8750 C.3    41  HIS41       0.1752
     17  C          5.4830   36.4230   17.4970 C.2    41  HIS41       0.2596
     18  O          5.2390   37.6230   17.5910 O.2    41  HIS41      -0.2718
     19  CB         4.2490   35.2460   19.4000 C.3    41  HIS41       0.0759
     20  CG         5.4990   35.2890   20.2320 C.ar   41  HIS41       0.0818
     21  ND1        5.9710   34.1870   20.9120 N.ar   41  HIS41      -0.2268
     22  CD2        6.3380   36.3070   20.5440 C.ar   41  HIS41       0.1154
     23  CE1        7.0570   34.5170   21.5880 C.ar   41  HIS41       0.1986
     24  NE2        7.3060   35.7970   21.3740 N.ar   41  HIS41      -0.2212
     25  N          6.6090   35.9480   17.0030 N.am   42  CYS42      -0.1970
     26  CA         7.7440   36.8210   16.6510 C.3    42  CYS42       0.1712
     27  C          7.4590   37.6830   15.4360 C.2    42  CYS42       0.2296
     28  O          8.1270   38.6850   15.1850 O.2    42  CYS42      -0.2864
     29  CB         9.0250   36.0170   16.3790 C.3    42  CYS42       0.0983
     30  SG         9.7940   35.2800   17.8410 S.3    42  CYS42      -0.0798
     31  N          4.3720   38.9200   14.4290 N.3    44  ASP44      -0.1225
     32  CA         3.0660   39.6180   14.5390 C.3    44  ASP44       0.1805
     33  C          3.1080   41.0240   13.9690 C.2    44  ASP44       0.2597
     34  O          2.2140   41.4820   13.2530 O.2    44  ASP44      -0.2718
     35  CB         2.5800   39.6990   15.9900 C.3    44  ASP44       0.1424
     36  CG         1.7890   38.4810   16.4090 C.2    44  ASP44       0.3668
     37  OD1        1.8140   37.4670   15.6790 O.co2  44  ASP44      -0.2456
     38  OD2        1.1340   38.5370   17.4700 O.co2  44  ASP44      -0.2456
     39  N          4.1760   41.6910   14.3370 N.am   45  LYS45      -0.1979
     40  CA         4.3050   43.1400   14.1320 C.3    45  LYS45       0.1596
     41  C          5.2190   43.4440   12.9680 C.2    45  LYS45       0.2287
     42  O          5.7500   44.5400   12.8070 O.2    45  LYS45      -0.2864
     43  CB         4.7800   43.8290   15.4080 C.3    45  LYS45       0.0298
     44  CG         3.6180   44.1590   16.3290 C.3    45  LYS45       0.0038
     45  CD         4.0010   44.1580   17.7860 C.3    45  LYS45       0.0206
     46  CE         2.7760   43.8930   18.6400 C.3    45  LYS45       0.1093
     47  NZ         2.9880   44.2920   20.0610 N.3    45  LYS45      -0.1314
     48  N         -2.8880   29.2650   14.9760 N.3    82  TYR82      -0.1241
     49  CA        -2.2340   30.3840   15.6740 C.3    82  TYR82       0.1605
     50  C         -3.0100   31.6710   15.4700 C.2    82  TYR82       0.2264
     51  O         -3.3490   32.0620   14.3590 O.2    82  TYR82      -0.2867
     52  CB        -0.7860   30.5950   15.2250 C.3    82  TYR82       0.0534
     53  CG        -0.2020   31.8440   15.8540 C.ar   82  TYR82      -0.0201
     54  CD1        0.1730   31.8620   17.1930 C.ar   82  TYR82      -0.0009
     55  CD2       -0.0810   33.0200   15.1280 C.ar   82  TYR82      -0.0009
     56  CE1        0.6760   33.0120   17.7800 C.ar   82  TYR82       0.0417
     57  CE2        0.4170   34.1660   15.7040 C.ar   82  TYR82       0.0417
     58  CZ         0.7960   34.1590   17.0250 C.ar   82  TYR82       0.1957
     59  OH         1.2950   35.3180   17.5810 O.3    82  TYR82      -0.2866
     60  N         -1.2190   37.6610   18.6070 N.3    85  GLY85      -0.1210
     61  CA        -1.3250   38.3680   19.8880 C.3    85  GLY85       0.1956
     62  C         -1.5590   37.4540   21.0630 C.2    85  GLY85       0.2613
     63  O         -1.7340   37.8850   22.2020 O.2    85  GLY85      -0.2717
     64  N         -1.5640   36.1760   20.7480 N.am   86  THR86      -0.1938
     65  CA        -1.7370   35.1210   21.7570 C.3    86  THR86       0.2028
     66  C         -0.5770   34.1480   21.7700 C.2    86  THR86       0.2642
     67  O          0.4130   34.3090   21.0590 O.2    86  THR86      -0.2714
     68  CB        -3.0530   34.3620   21.5720 C.3    86  THR86       0.1808
     69  OG1       -2.9770   33.5410   20.4030 O.3    86  THR86      -0.2208
     70  CG2       -4.2040   35.3450   21.4150 C.3    86  THR86       0.0379
     71  N         -0.7320   33.1320   22.5990 N.am   87  THR87      -0.1950
     72  CA         0.3960   32.2460   22.9570 C.3    87  THR87       0.1897
     73  C          0.3350   30.8140   22.4560 C.2    87  THR87       0.2313
     74  O          1.3540   30.1440   22.3440 O.2    87  THR87      -0.2863
     75  CB         0.6050   32.2020   24.4730 C.3    87  THR87       0.1794
     76  OG1       -0.6160   31.8210   25.1170 O.3    87  THR87      -0.2208
     77  CG2        1.0380   33.5620   24.9720 C.3    87  THR87       0.0378
     78  N          2.4040   28.3570   19.2070 N.3    90  ASP90      -0.1239
     79  CA         3.5130   29.3150   19.0110 C.3    90  ASP90       0.1674
     80  C          4.7200   28.7270   18.3000 C.2    90  ASP90       0.2266
     81  O          5.7940   28.5290   18.8550 O.2    90  ASP90      -0.2867
     82  CB         3.9460   29.9460   20.3280 C.3    90  ASP90       0.1410
     83  CG         4.6720   31.2590   20.1200 C.2    90  ASP90       0.3668
     84  OD1        4.6480   31.7850   18.9790 O.co2  90  ASP90      -0.2456
     85  OD2        5.2710   31.7690   21.0890 O.co2  90  ASP90      -0.2456
     86  N         15.7720   31.6230   33.9600 N.3   182  ASP182     -0.1225
     87  CA        14.7070   31.6390   32.9420 C.3   182  ASP182      0.1805
     88  C         15.1840   32.0830   31.5670 C.2   182  ASP182      0.2598
     89  O         16.2780   32.6000   31.3830 O.2   182  ASP182     -0.2718
     90  CB        13.5790   32.5690   33.4150 C.3   182  ASP182      0.1424
     91  CG        12.2150   32.2250   32.8190 C.2   182  ASP182      0.3668
     92  OD1       12.0880   31.2480   32.0500 O.co2 182  ASP182     -0.2456
     93  OD2       11.2470   32.9520   33.1420 O.co2 182  ASP182     -0.2456
     94  N         14.3280   31.8130   30.6040 N.am  183  SER183     -0.1938
     95  CA        14.4080   32.4540   29.2880 C.3   183  SER183      0.2055
     96  C         13.5620   33.7100   29.3630 C.2   183  SER183      0.2643
     97  O         12.6620   33.8350   30.1920 O.2   183  SER183     -0.2714
     98  CB        13.9440   31.5230   28.1660 C.3   183  SER183      0.2130
     99  OG        12.5800   31.1900   28.2950 O.3   183  SER183     -0.2179
    100  N         13.8910   34.6490   28.4970 N.am  184  CYS184     -0.1953
    101  CA        13.3100   36.0030   28.5450 C.3   184  CYS184      0.1843
    102  C         13.0620   36.5790   27.1560 C.2   184  CYS184      0.2625
    103  O         13.3270   35.9630   26.1260 O.2   184  CYS184     -0.2714
    104  CB        14.2360   36.9390   29.3380 C.3   184  CYS184      0.0997
    105  SG        13.4760   38.4710   29.9520 S.3   184  CYS184     -0.0797
    106  N         12.5520   37.7930   27.1520 N.am  185  LYS185     -0.1963
    107  CA        12.3080   38.5050   25.8930 C.3   185  LYS185      0.1728
    108  C         13.6060   38.6110   25.1150 C.2   185  LYS185      0.2616
    109  O         14.6560   39.0070   25.6210 O.2   185  LYS185     -0.2715
    110  CB        11.7050   39.9020   26.1120 C.3   185  LYS185      0.0311
    111  CG        11.5060   40.6850   24.8220 C.3   185  LYS185      0.0038
    112  CD        10.8160   42.0260   25.0560 C.3   185  LYS185      0.0206
    113  CE        10.7090   42.8080   23.7600 C.3   185  LYS185      0.1093
    114  NZ         9.8550   44.0310   23.8760 N.3   185  LYS185     -0.1314
    115  N         13.4830   38.2400   23.8610 N.am  186  GLY186     -0.1955
    116  CA        14.5910   38.2540   22.9040 C.3   186  GLY186      0.1869
    117  C         15.0730   36.8540   22.5960 C.2   186  GLY186      0.2309
    118  O         15.7690   36.6050   21.6070 O.2   186  GLY186     -0.2863
    119  N         12.8830   34.3010   22.5490 N.3   188  SER188     -0.1217
    120  CA        11.7610   33.5710   21.9590 C.3   188  SER188      0.1889
    121  C         12.1080   33.1350   20.5600 C.2   188  SER188      0.2288
    122  O         12.7320   33.8450   19.7860 O.2   188  SER188     -0.2866
    123  CB        10.4590   34.3520   21.9960 C.3   188  SER188      0.2089
    124  OG         9.9440   34.3110   23.3120 O.3   188  SER188     -0.2183
    125  N         11.3870   28.3200   22.7240 N.3   206  VAL206     -0.1231
    126  CA        11.2420   29.3960   23.7200 C.3   206  VAL206      0.1692
    127  C         10.0390   30.2300   23.2870 C.2   206  VAL206      0.2593
    128  O          9.9720   30.7340   22.1690 O.2   206  VAL206     -0.2718
    129  CB        12.4940   30.2980   23.8320 C.3   206  VAL206      0.0266
    130  CG1       12.2510   31.4090   24.8450 C.3   206  VAL206      0.0020
    131  CG2       13.7410   29.5010   24.2220 C.3   206  VAL206      0.0020
    132  N          9.0690   30.3420   24.1750 N.am  207  SER207     -0.1938
    133  CA         7.7760   30.9570   23.8120 C.3   207  SER207      0.2055
    134  C          7.3960   32.1560   24.6620 C.2   207  SER207      0.2643
    135  O          7.5420   33.3060   24.2530 O.2   207  SER207     -0.2714
    136  CB         6.6570   29.9060   23.8240 C.3   207  SER207      0.2130
    137  OG         5.4370   30.4340   23.3320 O.3   207  SER207     -0.2179
    138  N          6.8760   31.8580   25.8340 N.am  208  TRP208     -0.1959
    139  CA         6.4100   32.9050   26.7480 C.3   208  TRP208      0.1771
    140  C          6.5360   32.5790   28.2190 C.2   208  TRP208      0.2620
    141  O          6.9210   31.4940   28.6350 O.2   208  TRP208     -0.2715
    142  CB         4.9500   33.2490   26.4460 C.3   208  TRP208      0.0590
    143  CG         4.0050   32.1360   26.7490 C.ar  208  TRP208      0.0006
    144  CD1        3.7650   31.0340   25.9810 C.ar  208  TRP208      0.0946
    145  CD2        3.1670   32.0100   27.9050 C.ar  208  TRP208      0.0152
    146  NE1        2.8330   30.2300   26.5870 N.ar  208  TRP208     -0.2442
    147  CE2        2.4480   30.8080   27.7690 C.ar  208  TRP208      0.0810
    148  CE3        2.9540   32.7980   29.0410 C.ar  208  TRP208      0.0012
    149  CZ2        1.5320   30.3740   28.7210 C.ar  208  TRP208      0.0191
    150  CZ3        2.0420   32.3640   29.9870 C.ar  208  TRP208      0.0001
    151  CH2        1.3460   31.1620   29.8220 C.ar  208  TRP208      0.0015
    152  N          6.1830   33.5890   28.9860 N.am  209  GLY209     -0.1954
    153  CA         6.1420   33.4910   30.4490 C.3   209  GLY209      0.1869
    154  C          5.5020   34.6770   31.1190 C.2   209  GLY209      0.2309
    155  O          5.2820   35.7190   30.5090 O.2   209  GLY209     -0.2863
    156  N          6.2030   37.3530   32.8650 N.3   211  GLY211     -0.1210
    157  CA         7.4630   38.0740   32.8980 C.3   211  GLY211      0.1956
    158  C          8.5540   37.0690   32.7570 C.2   211  GLY211      0.2612
    159  O          8.3730   35.9400   32.3060 O.2   211  GLY211     -0.2717
    160  N          9.7000   37.5310   33.2110 N.am  212  CYS212     -0.1970
    161  CA        10.9610   36.7860   33.1840 C.3   212  CYS212      0.1712
    162  C         11.4550   36.5180   34.5830 C.2   212  CYS212      0.2296
    163  O         11.5790   37.4130   35.4170 O.2   212  CYS212     -0.2864
    164  CB        12.0360   37.5690   32.4320 C.3   212  CYS212      0.0983
    165  SG        11.6890   37.8450   30.6860 S.3   212  CYS212     -0.0798
    166  N          9.0020   29.1570   32.9380 N.3   219  GLY219     -0.1210
    167  CA         9.0840   29.4040   31.5050 C.3   219  GLY219      0.1956
    168  C          8.2020   28.4170   30.7870 C.2   219  GLY219      0.2611
    169  O          8.0900   27.2560   31.1590 O.2   219  GLY219     -0.2717
    170  N          7.5570   28.9280   29.7570 N.am  220  VAL220     -0.1979
    171  CA         6.6610   28.1320   28.9020 C.3   220  VAL220      0.1595
    172  C          7.2040   28.0200   27.4880 C.2   220  VAL220      0.2287
    173  O          7.6550   28.9820   26.8670 O.2   220  VAL220     -0.2864
    174  CB         5.2300   28.6740   28.8830 C.3   220  VAL220      0.0276
    175  CG1        4.3050   27.6590   28.2200 C.3   220  VAL220      0.0022
    176  CG2        4.7570   28.9580   30.3020 C.3   220  VAL220      0.0022
@<TRIPOS>BOND
     1    42    41    2
     2    41    40    1
     3    34    33    2
     4    33    39   am
     5    33    32    1
     6     8     6    1
     7    40    39    1
     8    40    43    1
     9    51    50    2
    10    31    32    1
    11    32    35    1
    12    48    49    1
    13    55    57   ar
    14    55    53   ar
    15    28    27    2
    16    52    49    1
    17    52    53    1
    18    43    44    1
    19     6     5    1
    20     6     7    1
    21    27    26    1
    22     5     2    1
    23    50    49    1
    24    37    36   ar
    25    57    58   ar
    26    53    54   ar
    27    35    36    1
    28    44    45    1
    29    29    26    1
    30    29    30    1
    31    36    38   ar
    32    26    25    1
    33     1     2    1
    34     2     3    1
    35    12    11    2
    36    25    17   am
    37    58    59    1
    38    58    56   ar
    39    54    56   ar
    40    15    16    1
    41     9     3   am
    42     9    10    1
    43    17    18    2
    44    17    16    1
    45    13    10    1
    46    13    14    1
    47    11    10    1
    48     3     4    2
    49    45    46    1
    50    30    14    1
    51    16    19    1
    52    80    81    2
    53    80    79    1
    54    60    61    1
    55    46    47    1
    56    84    83   ar
    57    79    78    1
    58    79    82    1
    59    19    20    1
    60   122   121    2
    61    61    62    1
    62    83    82    1
    63    83    85   ar
    64    20    22   ar
    65    20    21   ar
    66    69    68    1
    67    22    24   ar
    68   121   120    1
    69    64    62   am
    70    64    65    1
    71    21    23   ar
    72    67    66    2
    73    62    63    2
    74    24    23   ar
    75    70    68    1
    76    68    65    1
    77   118   117    2
    78    65    66    1
    79    66    71   am
    80   120   123    1
    81   120   119    1
    82   123   124    1
    83   128   127    2
    84    74    73    2
    85    73    72    1
    86   117   116    1
    87    71    72    1
    88   125   126    1
    89   116   115    1
    90    72    75    1
    91   127   126    1
    92   127   132   am
    93   137   136    1
    94   126   129    1
    95   113   114    1
    96   113   112    1
    97   133   136    1
    98   133   132    1
    99   133   134    1
   100   129   131    1
   101   129   130    1
   102   115   108   am
   103   135   134    2
   104    75    77    1
   105    75    76    1
   106   134   138   am
   107   111   112    1
   108   111   110    1
   109   108   109    2
   110   108   107    1
   111   138   139    1
   112   107   110    1
   113   107   106    1
   114   144   146   ar
   115   144   143   ar
   116   103   102    2
   117   142   139    1
   118   142   143    1
   119   146   147   ar
   120   139   140    1
   121   143   145   ar
   122   173   172    2
   123   106   102   am
   124   102   101    1
   125   172   171    1
   126   147   145   ar
   127   147   149   ar
   128   145   148   ar
   129    98    99    1
   130    98    95    1
   131   140   141    2
   132   140   152   am
   133   175   174    1
   134   100   101    1
   135   100    96   am
   136   101   104    1
   137   149   151   ar
   138   174   171    1
   139   174   176    1
   140   171   170    1
   141   152   153    1
   142   148   150   ar
   143    95    96    1
   144    95    94    1
   145   104   105    1
   146    96    97    2
   147   170   168   am
   148   151   150   ar
   149   105   165    1
   150   153   154    1
   151   155   154    2
   152    94    88   am
   153   165   164    1
   154   168   169    2
   155   168   167    1
   156    89    88    2
   157   167   166    1
   158    88    87    1
   159    92    91   ar
   160   159   158    2
   161   164   161    1
   162   158   157    1
   163   158   160   am
   164    91    93   ar
   165    91    90    1
   166   156   157    1
   167    87    90    1
   168    87    86    1
   169   161   160    1
   170   161   162    1
   171   162   163    2
