@<TRIPOS>MOLECULE
tmp/5patB00.pdb
 144 141 0 0 0
SMALL
GASTEIGER

@<TRIPOS>ATOM
      1  N          4.7880   34.1150   17.3460 N.3    41  HIS41      -0.1241
      2  CA         4.5750   35.4500   17.9290 C.3    41  HIS41       0.1621
      3  C          5.6620   36.4760   17.5670 C.2    41  HIS41       0.2264
      4  O          5.4240   37.6880   17.6470 O.2    41  HIS41      -0.2867
      5  CB         4.3220   35.3720   19.4550 C.3    41  HIS41       0.0745
      6  CG         5.5580   35.4420   20.3010 C.ar   41  HIS41       0.0817
      7  ND1        6.1030   34.3380   20.9130 N.ar   41  HIS41      -0.2268
      8  CD2        6.3330   36.4910   20.6640 C.ar   41  HIS41       0.1154
      9  CE1        7.1710   34.6960   21.5970 C.ar   41  HIS41       0.1986
     10  NE2        7.3340   35.9980   21.4600 N.ar   41  HIS41      -0.2212
     11  N          4.2430   38.8640   14.6950 N.3    44  ASP44      -0.1239
     12  CA         2.9760   39.5910   14.8810 C.3    44  ASP44       0.1674
     13  C          3.0000   41.0330   14.3580 C.2    44  ASP44       0.2266
     14  O          1.9860   41.5100   13.8410 O.2    44  ASP44      -0.2867
     15  CB         2.5770   39.6320   16.3550 C.3    44  ASP44       0.1410
     16  CG         1.9360   38.3510   16.8400 C.2    44  ASP44       0.3668
     17  OD1        1.8910   37.3410   16.1000 O.co2  44  ASP44      -0.2456
     18  OD2        1.4790   38.3560   17.9970 O.co2  44  ASP44      -0.2456
     19  N         -1.1980   37.6940   18.9620 N.3    85  GLY85      -0.1210
     20  CA        -1.4100   38.3100   20.2660 C.3    85  GLY85       0.1956
     21  C         -1.7280   37.3340   21.3840 C.2    85  GLY85       0.2613
     22  O         -1.8540   37.7510   22.5310 O.2    85  GLY85      -0.2717
     23  N         -1.8550   36.0430   21.0590 N.am   86  THR86      -0.1938
     24  CA        -2.1110   34.9910   22.0410 C.3    86  THR86       0.2028
     25  C         -0.9410   33.9950   22.0570 C.2    86  THR86       0.2642
     26  O          0.0160   34.1360   21.2860 O.2    86  THR86      -0.2714
     27  CB        -3.4420   34.2730   21.7490 C.3    86  THR86       0.1808
     28  OG1       -3.3330   33.5040   20.5450 O.3    86  THR86      -0.2208
     29  CG2       -4.5840   35.2940   21.6090 C.3    86  THR86       0.0379
     30  N         -1.0260   33.0030   22.9410 N.am   87  THR87      -0.1950
     31  CA         0.1000   32.1160   23.2480 C.3    87  THR87       0.1897
     32  C          0.0750   30.7390   22.5860 C.2    87  THR87       0.2313
     33  O          1.1370   30.1580   22.3790 O.2    87  THR87      -0.2863
     34  CB         0.2240   31.9040   24.7660 C.3    87  THR87       0.1794
     35  OG1       -1.0270   31.4490   25.2980 O.3    87  THR87      -0.2208
     36  CG2        0.6200   33.1900   25.4470 C.3    87  THR87       0.0378
     37  N          2.4520   28.3680   19.2250 N.3    90  ASP90      -0.1239
     38  CA         3.4990   29.3630   18.9980 C.3    90  ASP90       0.1674
     39  C          4.7180   28.7650   18.3000 C.2    90  ASP90       0.2266
     40  O          5.7730   28.5390   18.9110 O.2    90  ASP90      -0.2867
     41  CB         3.8800   30.0350   20.3170 C.3    90  ASP90       0.1410
     42  CG         4.6860   31.2870   20.1240 C.2    90  ASP90       0.3668
     43  OD1        4.7780   31.7930   18.9850 O.co2  90  ASP90      -0.2456
     44  OD2        5.2380   31.7860   21.1280 O.co2  90  ASP90      -0.2456
     45  N         15.9920   31.6340   34.0740 N.3   182  ASP182     -0.1225
     46  CA        14.8730   31.5770   33.1350 C.3   182  ASP182      0.1805
     47  C         15.3150   32.0260   31.7400 C.2   182  ASP182      0.2598
     48  O         16.3780   32.6150   31.5690 O.2   182  ASP182     -0.2718
     49  CB        13.7530   32.5050   33.6370 C.3   182  ASP182      0.1424
     50  CG        12.3540   32.0950   33.1880 C.2   182  ASP182      0.3668
     51  OD1       12.1750   31.2230   32.3150 O.co2 182  ASP182     -0.2456
     52  OD2       11.4050   32.7120   33.7230 O.co2 182  ASP182     -0.2456
     53  N         14.4750   31.7540   30.7500 N.am  183  SER183     -0.1938
     54  CA        14.5620   32.4260   29.4630 C.3   183  SER183      0.2055
     55  C         13.8900   33.7730   29.6610 C.2   183  SER183      0.2643
     56  O         13.2760   34.0000   30.7100 O.2   183  SER183     -0.2714
     57  CB        13.8350   31.6140   28.3980 C.3   183  SER183      0.2130
     58  OG        12.4960   31.4170   28.7910 O.3   183  SER183     -0.2179
     59  N         14.0020   34.6680   28.6870 N.am  184  CYS184     -0.1953
     60  CA        13.4320   36.0130   28.8370 C.3   184  CYS184      0.1843
     61  C         13.1090   36.6200   27.4910 C.2   184  CYS184      0.2625
     62  O         13.3670   36.0110   26.4500 O.2   184  CYS184     -0.2714
     63  CB        14.3950   36.9170   29.6340 C.3   184  CYS184      0.0997
     64  SG        13.6770   38.4370   30.3390 S.3   184  CYS184     -0.0797
     65  N         12.5240   37.8150   27.5150 N.am  185  LYS185     -0.1977
     66  CA        12.2570   38.5570   26.2850 C.3   185  LYS185      0.1596
     67  C         13.5230   38.6380   25.4590 C.2   185  LYS185      0.2287
     68  O         14.6100   38.8680   26.0050 O.2   185  LYS185     -0.2864
     69  CB        11.7950   39.9790   26.5730 C.3   185  LYS185      0.0298
     70  CG        10.3430   40.1180   26.9780 C.3   185  LYS185      0.0038
     71  CD         9.9780   41.5790   27.2340 C.3   185  LYS185      0.0206
     72  CE        10.3590   42.5010   26.0740 C.3   185  LYS185      0.1093
     73  NZ         9.6590   43.8160   26.1120 N.3   185  LYS185     -0.1314
     74  N         12.8140   34.5100   22.7130 N.3   188  SER188     -0.1217
     75  CA        11.6940   33.9350   21.9610 C.3   188  SER188      0.1889
     76  C         12.1250   33.3660   20.6200 C.2   188  SER188      0.2288
     77  O         12.8640   34.0020   19.8590 O.2   188  SER188     -0.2866
     78  CB        10.5940   34.9670   21.7110 C.3   188  SER188      0.2089
     79  OG         9.9710   35.3320   22.9290 O.3   188  SER188     -0.2183
     80  N         11.3330   28.6120   22.7710 N.3   206  VAL206     -0.1231
     81  CA        11.0990   29.6690   23.7840 C.3   206  VAL206      0.1692
     82  C          9.8600   30.4570   23.3560 C.2   206  VAL206      0.2593
     83  O          9.8320   31.0420   22.2710 O.2   206  VAL206     -0.2718
     84  CB        12.2960   30.6350   23.9440 C.3   206  VAL206      0.0266
     85  CG1       11.9930   31.6960   25.0020 C.3   206  VAL206      0.0020
     86  CG2       13.5850   29.8880   24.2990 C.3   206  VAL206      0.0020
     87  N          8.8260   30.4390   24.1910 N.am  207  SER207     -0.1938
     88  CA         7.5320   31.0130   23.8370 C.3   207  SER207      0.2055
     89  C          7.1100   32.1790   24.7370 C.2   207  SER207      0.2643
     90  O          7.0160   33.3080   24.2710 O.2   207  SER207     -0.2714
     91  CB         6.4720   29.9110   23.8400 C.3   207  SER207      0.2130
     92  OG         5.2360   30.4100   23.3900 O.3   207  SER207     -0.2179
     93  N          6.8480   31.9150   26.0110 N.am  208  TRP208     -0.1959
     94  CA         6.3410   32.9720   26.9030 C.3   208  TRP208      0.1771
     95  C          6.5650   32.6770   28.3750 C.2   208  TRP208      0.2620
     96  O          7.0960   31.6350   28.7450 O.2   208  TRP208     -0.2715
     97  CB         4.8480   33.2470   26.6370 C.3   208  TRP208      0.0590
     98  CG         3.9290   32.1160   26.9130 C.ar  208  TRP208      0.0006
     99  CD1        3.6520   31.0670   26.0850 C.ar  208  TRP208      0.0946
    100  CD2        3.1240   31.9230   28.0840 C.ar  208  TRP208      0.0152
    101  NE1        2.7390   30.2230   26.6690 N.ar  208  TRP208     -0.2442
    102  CE2        2.3950   30.7260   27.8960 C.ar  208  TRP208      0.0810
    103  CE3        2.9530   32.6410   29.2750 C.ar  208  TRP208      0.0012
    104  CZ2        1.5000   30.2320   28.8530 C.ar  208  TRP208      0.0191
    105  CZ3        2.0610   32.1450   30.2340 C.ar  208  TRP208      0.0001
    106  CH2        1.3510   30.9520   30.0140 C.ar  208  TRP208      0.0015
    107  N          6.1940   33.6470   29.1990 N.am  209  GLY209     -0.1940
    108  CA         6.1520   33.4710   30.6420 C.3   209  GLY209      0.2014
    109  C          5.6500   34.7330   31.3110 C.2   209  GLY209      0.2639
    110  O          5.5330   35.7840   30.6590 O.2   209  GLY209     -0.2714
    111  N          5.3260   34.6060   32.5990 N.am  210  GLN210     -0.1963
    112  CA         4.9480   35.7480   33.4290 C.3   210  GLN210      0.1733
    113  C          6.2290   36.4950   33.7660 C.2   210  GLN210      0.2617
    114  O          7.0210   36.0310   34.5890 O.2   210  GLN210     -0.2715
    115  CB         4.2460   35.2830   34.7100 C.3   210  GLN210      0.0408
    116  CG         2.9370   34.5500   34.4730 C.3   210  GLN210      0.0908
    117  CD         1.7990   35.4840   34.1180 C.2   210  GLN210      0.2608
    118  OE1        0.7890   35.0630   33.5550 O.2   210  GLN210     -0.2717
    119  NE2        1.9550   36.7620   34.4500 N.am  210  GLN210     -0.0878
    120  N          6.4510   37.6340   33.1050 N.am  211  GLY211     -0.1940
    121  CA         7.7270   38.3510   33.1890 C.3   211  GLY211      0.2014
    122  C          8.8540   37.3870   32.8570 C.2   211  GLY211      0.2639
    123  O          8.6700   36.4730   32.0410 O.2   211  GLY211     -0.2714
    124  N         10.0080   37.5770   33.4940 N.am  212  CYS212     -0.1967
    125  CA        11.0450   36.5650   33.4240 C.3   212  CYS212      0.1712
    126  C         11.7660   36.4130   34.7610 C.2   212  CYS212      0.2296
    127  O         12.0210   37.3800   35.4910 O.2   212  CYS212     -0.2864
    128  CB        11.9590   36.7640   32.1990 C.3   212  CYS212      0.0983
    129  SG        13.3230   37.9340   32.2860 S.3   212  CYS212     -0.0798
    130  N          7.1650   29.6150   35.9160 N.3   218  PHE218     -0.1227
    131  CA         8.1380   28.9200   35.0690 C.3   218  PHE218      0.1736
    132  C          8.0620   29.4550   33.6480 C.2   218  PHE218      0.2596
    133  O          7.0670   30.0440   33.2670 O.2   218  PHE218     -0.2718
    134  CB         7.8110   27.4310   35.0320 C.3   218  PHE218      0.0547
    135  CG         7.9650   26.7420   36.3550 C.ar  218  PHE218     -0.0202
    136  CD1        9.1610   26.1370   36.6950 C.ar  218  PHE218     -0.0042
    137  CD2        6.9090   26.6970   37.2580 C.ar  218  PHE218     -0.0042
    138  CE1        9.3120   25.5040   37.9190 C.ar  218  PHE218     -0.0003
    139  CE2        7.0490   26.0600   38.4840 C.ar  218  PHE218     -0.0003
    140  CZ         8.2510   25.4600   38.8100 C.ar  218  PHE218     -0.0000
    141  N          9.1160   29.2260   32.8680 N.am  219  GLY219     -0.1957
    142  CA         9.1030   29.5360   31.4420 C.3   219  GLY219      0.1869
    143  C          8.2220   28.5430   30.7140 C.2   219  GLY219      0.2309
    144  O          8.1010   27.3950   31.1420 O.2   219  GLY219     -0.2863
@<TRIPOS>BOND
     1    14    13    2
     2    13    12    1
     3    11    12    1
     4    12    15    1
     5    17    16   ar
     6    15    16    1
     7    16    18   ar
     8     1     2    1
     9     3     4    2
    10     3     2    1
    11     2     5    1
    12    39    40    2
    13    39    38    1
    14    19    20    1
    15    43    42   ar
    16    38    37    1
    17    38    41    1
    18     5     6    1
    19    77    76    2
    20    42    41    1
    21    42    44   ar
    22    20    21    1
    23     6     8   ar
    24     6     7   ar
    25    28    27    1
    26    76    75    1
    27     8    10   ar
    28     7     9   ar
    29    23    21   am
    30    23    24    1
    31    26    25    2
    32    21    22    2
    33    10     9   ar
    34    29    27    1
    35    78    75    1
    36    78    79    1
    37    27    24    1
    38    75    74    1
    39    24    25    1
    40    25    30   am
    41    83    82    2
    42    33    32    2
    43    32    31    1
    44    80    81    1
    45    30    31    1
    46    31    34    1
    47    82    81    1
    48    82    87   am
    49    92    91    1
    50    81    84    1
    51    88    91    1
    52    88    87    1
    53    88    89    1
    54    84    86    1
    55    84    85    1
    56    90    89    2
    57    89    93   am
    58    34    35    1
    59    34    36    1
    60    67    68    2
    61    67    66    1
    62    93    94    1
    63    72    73    1
    64    72    71    1
    65    99   101   ar
    66    99    98   ar
    67    66    69    1
    68    66    65    1
    69    62    61    2
    70    69    70    1
    71    97    94    1
    72    97    98    1
    73   101   102   ar
    74    94    95    1
    75    98   100   ar
    76    70    71    1
    77    61    65   am
    78    61    60    1
    79   102   100   ar
    80   102   104   ar
    81   100   103   ar
    82    95    96    2
    83    95   107   am
    84    57    58    1
    85    57    54    1
    86    59    60    1
    87    59    55   am
    88    60    63    1
    89   104   106   ar
    90   107   108    1
    91   103   105   ar
    92    54    55    1
    93    54    53    1
    94    63    64    1
    95    55    56    2
    96   106   105   ar
    97    64   129    1
    98   108   109    1
    99   110   109    2
   100   143   144    2
   101   143   142    1
   102    53    47   am
   103   109   111   am
   104   142   141    1
   105    48    47    2
   106    47    46    1
   107   123   122    2
   108   128   129    1
   109   128   125    1
   110    51    50   ar
   111   111   112    1
   112   122   121    1
   113   122   124   am
   114   141   132   am
   115   120   121    1
   116   120   113   am
   117    46    49    1
   118    46    45    1
   119    50    49    1
   120    50    52   ar
   121   133   132    2
   122   125   124    1
   123   125   126    1
   124   112   113    1
   125   112   115    1
   126   118   117    2
   127   132   131    1
   128   113   114    2
   129   117   119   am
   130   117   116    1
   131   116   115    1
   132   126   127    2
   133   134   131    1
   134   134   135    1
   135   131   130    1
   136   135   136   ar
   137   135   137   ar
   138   136   138   ar
   139   137   139   ar
   140   138   140   ar
   141   139   140   ar
