@<TRIPOS>MOLECULE
tmp/5pavB00.pdb
 138 135 0 0 0
SMALL
GASTEIGER

@<TRIPOS>ATOM
      1  N         15.3400   40.4930   16.5910 N.3    25  LEU25      -0.1231
      2  CA        13.9180   40.1800   16.7030 C.3    25  LEU25       0.1693
      3  C         13.6750   38.9930   17.6600 C.2    25  LEU25       0.2592
      4  O         12.8620   39.0560   18.5730 O.2    25  LEU25      -0.2718
      5  CB        13.3640   39.8290   15.3140 C.3    25  LEU25       0.0284
      6  CG        11.8940   39.4000   15.2860 C.3    25  LEU25       0.0019
      7  CD1       11.0000   40.6240   15.6170 C.3    25  LEU25       0.0001
      8  CD2       11.5300   38.7940   13.9220 C.3    25  LEU25       0.0001
      9  N         14.3580   37.8830   17.3890 N.am   26  CYS26      -0.1970
     10  CA        14.0680   36.6330   18.0980 C.3    26  CYS26       0.1712
     11  C         15.1870   35.6610   17.7780 C.2    26  CYS26       0.2296
     12  O         16.0480   35.9350   16.9260 O.2    26  CYS26      -0.2864
     13  CB        12.7810   36.0060   17.5030 C.3    26  CYS26       0.0983
     14  SG        11.2260   36.5720   18.2900 S.3    26  CYS26      -0.0798
     15  N          4.8250   34.0090   17.3330 N.3    41  HIS41      -0.1226
     16  CA         4.5770   35.3710   17.8520 C.3    41  HIS41       0.1752
     17  C          5.6490   36.3700   17.4840 C.2    41  HIS41       0.2596
     18  O          5.4180   37.5970   17.5050 O.2    41  HIS41      -0.2718
     19  CB         4.3010   35.3190   19.3560 C.3    41  HIS41       0.0759
     20  CG         5.5340   35.3740   20.2260 C.ar   41  HIS41       0.0818
     21  ND1        6.0120   34.2720   20.9000 N.ar   41  HIS41      -0.2268
     22  CD2        6.3230   36.4120   20.5810 C.ar   41  HIS41       0.1154
     23  CE1        7.0650   34.6300   21.6370 C.ar   41  HIS41       0.1986
     24  NE2        7.3030   35.9190   21.4150 N.ar   41  HIS41      -0.2212
     25  N          6.8100   35.8760   17.0810 N.am   42  CYS42      -0.1970
     26  CA         7.9020   36.7380   16.6550 C.3    42  CYS42       0.1712
     27  C          7.5080   37.5900   15.4520 C.2    42  CYS42       0.2296
     28  O          8.1690   38.5940   15.1700 O.2    42  CYS42      -0.2864
     29  CB         9.1160   35.8910   16.2430 C.3    42  CYS42       0.0983
     30  SG         9.9140   35.1210   17.7120 S.3    42  CYS42      -0.0798
     31  N          4.3360   38.7750   14.7380 N.3    44  ASP44      -0.1225
     32  CA         3.0450   39.4840   14.9000 C.3    44  ASP44       0.1805
     33  C          3.0870   40.9300   14.3740 C.2    44  ASP44       0.2597
     34  O          2.0430   41.4510   13.9540 O.2    44  ASP44      -0.2718
     35  CB         2.6530   39.5430   16.3770 C.3    44  ASP44       0.1424
     36  CG         2.0360   38.2460   16.8990 C.2    44  ASP44       0.3668
     37  OD1        1.9040   37.2380   16.1570 O.co2  44  ASP44      -0.2456
     38  OD2        1.7440   38.2130   18.1130 O.co2  44  ASP44      -0.2456
     39  N          4.2480   41.5820   14.4120 N.am   45  LYS45      -0.1979
     40  CA         4.2950   43.0100   14.0360 C.3    45  LYS45       0.1596
     41  C          5.0860   43.3390   12.7840 C.2    45  LYS45       0.2287
     42  O          5.3340   44.5070   12.4870 O.2    45  LYS45      -0.2864
     43  CB         4.8120   43.8400   15.2090 C.3    45  LYS45       0.0298
     44  CG         3.9550   43.7490   16.4590 C.3    45  LYS45       0.0038
     45  CD         4.6940   44.3340   17.6540 C.3    45  LYS45       0.0206
     46  CE         4.3720   43.5900   18.9480 C.3    45  LYS45       0.1093
     47  NZ         5.3570   43.8900   20.0320 N.3    45  LYS45      -0.1314
     48  N         15.7630   31.6600   33.8550 N.3   181  ASP181     -0.1225
     49  CA        14.6590   31.5580   32.8960 C.3   181  ASP181      0.1805
     50  C         15.1640   32.0330   31.5300 C.2   181  ASP181      0.2598
     51  O         16.2220   32.6510   31.4150 O.2   181  ASP181     -0.2718
     52  CB        13.5230   32.4900   33.3540 C.3   181  ASP181      0.1424
     53  CG        12.1630   32.1850   32.7040 C.2   181  ASP181      0.3668
     54  OD1       12.0110   31.1810   31.9550 O.co2 181  ASP181     -0.2456
     55  OD2       11.1980   32.9380   32.9910 O.co2 181  ASP181     -0.2456
     56  N         14.3690   31.7790   30.4960 N.am  182  SER182     -0.1938
     57  CA        14.6360   32.4140   29.2100 C.3   182  SER182      0.2055
     58  C         13.8560   33.7420   29.3430 C.2   182  SER182      0.2643
     59  O         13.0960   33.9300   30.3080 O.2   182  SER182     -0.2714
     60  CB        14.1160   31.5350   28.0580 C.3   182  SER182      0.2130
     61  OG        12.8100   31.0880   28.3220 O.3   182  SER182     -0.2179
     62  N         14.0950   34.7030   28.4530 N.am  183  CYS183     -0.1953
     63  CA        13.4750   36.0280   28.6310 C.3   183  CYS183      0.1843
     64  C         13.1930   36.6950   27.2990 C.2   183  CYS183      0.2625
     65  O         13.4420   36.1260   26.2540 O.2   183  CYS183     -0.2714
     66  CB        14.4580   36.8770   29.4640 C.3   183  CYS183      0.0997
     67  SG        13.8000   38.4150   30.2350 S.3   183  CYS183     -0.0797
     68  N         12.6660   37.9250   27.3250 N.am  184  LYS184     -0.1963
     69  CA        12.3950   38.6490   26.0880 C.3   184  LYS184      0.1728
     70  C         13.6700   38.7150   25.2670 C.2   184  LYS184      0.2616
     71  O         14.7380   39.0570   25.7900 O.2   184  LYS184     -0.2715
     72  CB        11.9490   40.0780   26.4040 C.3   184  LYS184      0.0311
     73  CG        10.5200   40.1890   26.8440 C.3   184  LYS184      0.0038
     74  CD        10.1810   41.6140   27.2310 C.3   184  LYS184      0.0206
     75  CE        10.6630   42.5860   26.1700 C.3   184  LYS184      0.1093
     76  NZ        10.1050   43.9570   26.3590 N.3   184  LYS184     -0.1314
     77  N         13.5580   38.4460   23.9810 N.am  185  GLY185     -0.1955
     78  CA        14.6880   38.4560   23.0990 C.3   185  GLY185      0.1869
     79  C         15.1140   37.0140   22.8240 C.2   185  GLY185      0.2309
     80  O         15.8190   36.8100   21.8520 O.2   185  GLY185     -0.2863
     81  N         12.8160   34.4900   22.6220 N.3   187  SER187     -0.1217
     82  CA        11.6900   33.8180   21.9810 C.3   187  SER187      0.1889
     83  C         12.0820   33.2620   20.6330 C.2   187  SER187      0.2288
     84  O         12.8170   33.8920   19.8670 O.2   187  SER187     -0.2866
     85  CB        10.5030   34.7550   21.7490 C.3   187  SER187      0.2089
     86  OG         9.9030   35.0850   22.9970 O.3   187  SER187     -0.2183
     87  N         11.3380   28.4810   22.7540 N.3   205  VAL205     -0.1231
     88  CA        11.0960   29.5300   23.7840 C.3   205  VAL205      0.1692
     89  C          9.8350   30.2960   23.3370 C.2   205  VAL205      0.2593
     90  O          9.7900   30.8890   22.2430 O.2   205  VAL205     -0.2718
     91  CB        12.3010   30.4620   23.8830 C.3   205  VAL205      0.0266
     92  CG1       11.9860   31.6010   24.8920 C.3   205  VAL205      0.0020
     93  CG2       13.5980   29.7040   24.2770 C.3   205  VAL205      0.0020
     94  N          8.8190   30.3100   24.1900 N.am  206  SER206     -0.1938
     95  CA         7.5550   30.9470   23.8170 C.3   206  SER206      0.2055
     96  C          7.0570   32.0730   24.7440 C.2   206  SER206      0.2643
     97  O          6.9340   33.2170   24.3080 O.2   206  SER206     -0.2714
     98  CB         6.4650   29.8840   23.5910 C.3   206  SER206      0.2130
     99  OG         5.1920   30.4890   23.4770 O.3   206  SER206     -0.2179
    100  N          6.7490   31.7520   26.0010 N.am  207  TRP207     -0.1959
    101  CA         6.1960   32.7820   26.8820 C.3   207  TRP207      0.1771
    102  C          6.4520   32.5090   28.3570 C.2   207  TRP207      0.2620
    103  O          6.9170   31.4410   28.7110 O.2   207  TRP207     -0.2715
    104  CB         4.6980   32.9950   26.6030 C.3   207  TRP207      0.0590
    105  CG         3.8150   31.8210   26.9240 C.ar  207  TRP207      0.0006
    106  CD1        3.5680   30.7360   26.1300 C.ar  207  TRP207      0.0946
    107  CD2        2.9760   31.6690   28.0860 C.ar  207  TRP207      0.0152
    108  NE1        2.6680   29.8950   26.7480 N.ar  207  TRP207     -0.2442
    109  CE2        2.3070   30.4330   27.9550 C.ar  207  TRP207      0.0810
    110  CE3        2.7850   32.4150   29.2490 C.ar  207  TRP207      0.0012
    111  CZ2        1.3980   29.9690   28.9150 C.ar  207  TRP207      0.0191
    112  CZ3        1.8890   31.9460   30.2060 C.ar  207  TRP207      0.0001
    113  CH2        1.2310   30.7270   30.0410 C.ar  207  TRP207      0.0015
    114  N          6.1970   33.5080   29.1960 N.am  208  GLY208     -0.1954
    115  CA         6.3780   33.4000   30.6340 C.3   208  GLY208      0.1869
    116  C          5.8450   34.6360   31.3420 C.2   208  GLY208      0.2309
    117  O          5.7030   35.6970   30.7300 O.2   208  GLY208     -0.2863
    118  N          6.4940   37.4660   32.6830 N.3   210  GLY210     -0.1210
    119  CA         7.6990   38.2540   32.8630 C.3   210  GLY210      0.1956
    120  C          8.8600   37.2960   32.6900 C.2   210  GLY210      0.2612
    121  O          8.7270   36.2820   32.0110 O.2   210  GLY210     -0.2717
    122  N          9.9910   37.5710   33.3270 N.am  211  CYS211     -0.1970
    123  CA        11.1790   36.7160   33.2170 C.3   211  CYS211      0.1712
    124  C         11.7320   36.3440   34.5650 C.2   211  CYS211      0.2296
    125  O         12.1120   37.2400   35.3230 O.2   211  CYS211     -0.2864
    126  CB        12.2970   37.4760   32.5270 C.3   211  CYS211      0.0983
    127  SG        11.9450   37.9220   30.8970 S.3   211  CYS211     -0.0798
    128  N          9.0870   28.9630   32.8630 N.3   218  GLY218     -0.1210
    129  CA         9.0870   29.2960   31.4450 C.3   218  GLY218      0.1956
    130  C          8.1530   28.3480   30.7140 C.2   218  GLY218      0.2611
    131  O          7.9890   27.1850   31.1060 O.2   218  GLY218     -0.2717
    132  N          7.4980   28.8540   29.6690 N.am  219  VAL219     -0.1979
    133  CA         6.5980   28.0530   28.8530 C.3   219  VAL219      0.1595
    134  C          7.1890   27.9020   27.4540 C.2   219  VAL219      0.2287
    135  O          7.6740   28.8780   26.8580 O.2   219  VAL219     -0.2864
    136  CB         5.1880   28.6070   28.8210 C.3   219  VAL219      0.0276
    137  CG1        4.2260   27.5690   28.2120 C.3   219  VAL219      0.0022
    138  CG2        4.7300   28.8990   30.2630 C.3   219  VAL219      0.0022
@<TRIPOS>BOND
     1    42    41    2
     2    41    40    1
     3     8     6    1
     4    34    33    2
     5    40    39    1
     6    40    43    1
     7    33    39   am
     8    33    32    1
     9    31    32    1
    10    32    35    1
    11    28    27    2
    12    43    44    1
    13     6     5    1
    14     6     7    1
    15     5     2    1
    16    27    26    1
    17    37    36   ar
    18    29    26    1
    19    29    30    1
    20    35    36    1
    21    44    45    1
    22     1     2    1
    23    26    25    1
    24     2     3    1
    25    36    38   ar
    26    12    11    2
    27    25    17   am
    28    15    16    1
    29     9     3   am
    30     9    10    1
    31    17    18    2
    32    17    16    1
    33    13    10    1
    34    13    14    1
    35    45    46    1
    36     3     4    2
    37    30    14    1
    38    11    10    1
    39    16    19    1
    40    46    47    1
    41    19    20    1
    42    84    83    2
    43    20    22   ar
    44    20    21   ar
    45    22    24   ar
    46    83    82    1
    47    21    23   ar
    48    24    23   ar
    49    85    82    1
    50    85    86    1
    51    80    79    2
    52    82    81    1
    53    90    89    2
    54    87    88    1
    55    79    78    1
    56    78    77    1
    57    89    88    1
    58    89    94   am
    59    99    98    1
    60    98    95    1
    61    88    91    1
    62    95    94    1
    63    95    96    1
    64    91    93    1
    65    91    92    1
    66    77    70   am
    67    97    96    2
    68    96   100   am
    69    70    71    2
    70    70    69    1
    71   100   101    1
    72    69    72    1
    73    69    68    1
    74   106   108   ar
    75   106   105   ar
    76    75    76    1
    77    75    74    1
    78    65    64    2
    79    72    73    1
    80   104   101    1
    81   104   105    1
    82   108   109   ar
    83    73    74    1
    84   135   134    2
    85   101   102    1
    86   105   107   ar
    87    64    68   am
    88    64    63    1
    89   134   133    1
    90   109   107   ar
    91   109   111   ar
    92    60    61    1
    93    60    57    1
    94   107   110   ar
    95   137   136    1
    96   102   103    2
    97   102   114   am
    98    62    63    1
    99    62    58   am
   100    63    66    1
   101   136   133    1
   102   136   138    1
   103   133   132    1
   104   111   113   ar
   105   114   115    1
   106    57    58    1
   107    57    56    1
   108   110   112   ar
   109    58    59    2
   110    66    67    1
   111   132   130   am
   112   113   112   ar
   113    67   127    1
   114    56    50   am
   115   115   116    1
   116   130   131    2
   117   130   129    1
   118   117   116    2
   119   127   126    1
   120    51    50    2
   121   129   128    1
   122    50    49    1
   123    54    53   ar
   124   121   120    2
   125   126   123    1
   126   118   119    1
   127   120   119    1
   128   120   122   am
   129    53    55   ar
   130    53    52    1
   131    49    52    1
   132    49    48    1
   133   123   122    1
   134   123   124    1
   135   124   125    2
