@<TRIPOS>MOLECULE
tmp/5pawB00.pdb
 129 130 0 0 0
SMALL
GASTEIGER

@<TRIPOS>ATOM
      1  N          4.7390   34.0120   17.2780 N.3    41  HIS41      -0.1241
      2  CA         4.4960   35.3770   17.7950 C.3    41  HIS41       0.1621
      3  C          5.5970   36.3750   17.4320 C.2    41  HIS41       0.2264
      4  O          5.3860   37.5800   17.5190 O.2    41  HIS41      -0.2867
      5  CB         4.2220   35.3910   19.3000 C.3    41  HIS41       0.0745
      6  CG         5.4480   35.3300   20.1530 C.ar   41  HIS41       0.0817
      7  ND1        5.8300   34.1880   20.8190 N.ar   41  HIS41      -0.2268
      8  CD2        6.3700   36.2760   20.4650 C.ar   41  HIS41       0.1154
      9  CE1        6.9290   34.4350   21.5080 C.ar   41  HIS41       0.1986
     10  NE2        7.2840   35.6870   21.2960 N.ar   41  HIS41      -0.2212
     11  N         15.6820   31.7020   33.8900 N.3   182  ASP182     -0.1225
     12  CA        14.5880   31.6860   32.9200 C.3   182  ASP182      0.1805
     13  C         15.1080   32.0980   31.5520 C.2   182  ASP182      0.2598
     14  O         16.1930   32.6550   31.4200 O.2   182  ASP182     -0.2718
     15  CB        13.4520   32.6290   33.3810 C.3   182  ASP182      0.1424
     16  CG        12.1090   32.3010   32.7640 C.2   182  ASP182      0.3668
     17  OD1       12.0040   31.2790   32.0500 O.co2 182  ASP182     -0.2456
     18  OD2       11.1230   33.0660   32.9970 O.co2 182  ASP182     -0.2456
     19  N         14.3290   31.7810   30.5320 N.am  183  SER183     -0.1938
     20  CA        14.4800   32.4220   29.2610 C.3   183  SER183      0.2055
     21  C         13.5430   33.6270   29.3590 C.2   183  SER183      0.2643
     22  O         12.6330   33.6390   30.2110 O.2   183  SER183     -0.2714
     23  CB        14.1550   31.4740   28.1000 C.3   183  SER183      0.2130
     24  OG        12.8100   31.0830   28.1280 O.3   183  SER183     -0.2179
     25  N         13.7770   34.6130   28.4980 N.am  184  CYS184     -0.1953
     26  CA        13.1800   35.9370   28.6430 C.3   184  CYS184      0.1843
     27  C         12.8360   36.5180   27.2820 C.2   184  CYS184      0.2625
     28  O         13.1820   35.9480   26.2590 O.2   184  CYS184     -0.2714
     29  CB        14.1990   36.8390   29.3430 C.3   184  CYS184      0.0997
     30  SG        13.6250   38.4280   29.9290 S.3   184  CYS184     -0.0797
     31  N         12.1690   37.6670   27.2990 N.am  185  LYS185     -0.1977
     32  CA        11.9630   38.4560   26.0820 C.3   185  LYS185      0.1596
     33  C         13.3140   38.6610   25.4140 C.2   185  LYS185      0.2287
     34  O         14.3070   39.0580   26.0790 O.2   185  LYS185     -0.2864
     35  CB        11.3280   39.8420   26.3650 C.3   185  LYS185      0.0298
     36  CG        11.7340   40.9300   25.3280 C.3   185  LYS185      0.0038
     37  CD        10.7020   42.0270   25.1400 C.3   185  LYS185      0.0206
     38  CE        10.4480   42.8360   26.3890 C.3   185  LYS185      0.1093
     39  NZ         9.6540   44.0920   26.0310 N.3   185  LYS185     -0.1314
     40  N         12.7050   34.4800   22.6440 N.3   188  SER188     -0.1217
     41  CA        11.5920   33.9210   21.8870 C.3   188  SER188      0.1889
     42  C         12.0570   33.3160   20.5860 C.2   188  SER188      0.2288
     43  O         12.8700   33.9120   19.8700 O.2   188  SER188     -0.2866
     44  CB        10.5420   34.9910   21.5540 C.3   188  SER188      0.2089
     45  OG         9.7380   35.2900   22.6740 O.3   188  SER188     -0.2183
     46  N         11.3180   28.5380   22.7300 N.3   206  VAL206     -0.1231
     47  CA        11.0870   29.6200   23.7130 C.3   206  VAL206      0.1692
     48  C          9.8210   30.4130   23.3150 C.2   206  VAL206      0.2593
     49  O          9.7310   30.9490   22.2130 O.2   206  VAL206     -0.2718
     50  CB        12.2790   30.6020   23.8380 C.3   206  VAL206      0.0266
     51  CG1       11.8700   31.8150   24.7280 C.3   206  VAL206      0.0020
     52  CG2       13.5410   29.8720   24.3640 C.3   206  VAL206      0.0020
     53  N          8.8400   30.4460   24.1990 N.am  207  SER207     -0.1938
     54  CA         7.5080   30.8890   23.8070 C.3   207  SER207      0.2055
     55  C          6.9940   32.0410   24.6450 C.2   207  SER207      0.2643
     56  O          6.8810   33.1420   24.1390 O.2   207  SER207     -0.2714
     57  CB         6.4910   29.7340   23.8440 C.3   207  SER207      0.2130
     58  OG         5.2490   30.1760   23.3020 O.3   207  SER207     -0.2179
     59  N          6.6690   31.7810   25.9040 N.am  208  TRP208     -0.1959
     60  CA         6.0870   32.7950   26.7730 C.3   208  TRP208      0.1771
     61  C          6.2800   32.5090   28.2720 C.2   208  TRP208      0.2620
     62  O          6.8230   31.4710   28.6790 O.2   208  TRP208     -0.2715
     63  CB         4.6080   33.0340   26.4350 C.3   208  TRP208      0.0590
     64  CG         3.6570   31.8790   26.7400 C.ar  208  TRP208      0.0006
     65  CD1        3.3580   30.8260   25.9170 C.ar  208  TRP208      0.0946
     66  CD2        2.8730   31.6860   27.9340 C.ar  208  TRP208      0.0152
     67  NE1        2.4620   29.9780   26.5340 N.ar  208  TRP208     -0.2442
     68  CE2        2.1380   30.4880   27.7660 C.ar  208  TRP208      0.0810
     69  CE3        2.7230   32.4080   29.1220 C.ar  208  TRP208      0.0012
     70  CZ2        1.2530   29.9960   28.7410 C.ar  208  TRP208      0.0191
     71  CZ3        1.8550   31.9170   30.1020 C.ar  208  TRP208      0.0001
     72  CH2        1.1330   30.7080   29.9010 C.ar  208  TRP208      0.0015
     73  N          5.9000   33.5040   29.0750 N.am  209  GLY209     -0.1940
     74  CA         5.8030   33.3770   30.5360 C.3   209  GLY209      0.2014
     75  C          5.4110   34.7140   31.1530 C.2   209  GLY209      0.2639
     76  O          5.3490   35.7370   30.4540 O.2   209  GLY209     -0.2714
     77  N          5.1490   34.7080   32.4610 N.am  210  GLN210     -0.1963
     78  CA         4.8670   35.9360   33.2080 C.3   210  GLN210      0.1733
     79  C          6.1840   36.6630   33.4770 C.2   210  GLN210      0.2617
     80  O          7.0410   36.1400   34.1970 O.2   210  GLN210     -0.2715
     81  CB         4.1830   35.6030   34.5380 C.3   210  GLN210      0.0408
     82  CG         2.8980   34.7970   34.4110 C.3   210  GLN210      0.0908
     83  CD         1.8510   35.4800   33.5440 C.2   210  GLN210      0.2608
     84  OE1        1.1020   34.8170   32.8160 O.2   210  GLN210     -0.2717
     85  NE2        1.7940   36.8130   33.6160 N.am  210  GLN210     -0.0878
     86  N          6.3580   37.8580   32.9060 N.am  211  GLY211     -0.1940
     87  CA         7.6240   38.6110   33.0560 C.3   211  GLY211      0.2014
     88  C          8.7550   37.6330   32.8030 C.2   211  GLY211      0.2639
     89  O          8.5150   36.6010   32.1500 O.2   211  GLY211     -0.2714
     90  N          9.9700   37.9130   33.2820 N.am  212  CYS212     -0.1967
     91  CA        11.1220   36.9930   33.1770 C.3   212  CYS212      0.1712
     92  C         11.6510   36.6500   34.5330 C.2   212  CYS212      0.2296
     93  O         11.8970   37.5650   35.3180 O.2   212  CYS212     -0.2864
     94  CB        12.2740   37.6520   32.4350 C.3   212  CYS212      0.0983
     95  SG        11.8510   38.0300   30.8080 S.3   212  CYS212     -0.0798
     96  N          7.0460   29.4980   35.8990 N.3   218  PHE218     -0.1227
     97  CA         7.9490   28.7740   35.0140 C.3   218  PHE218      0.1736
     98  C          7.8850   29.3190   33.6090 C.2   218  PHE218      0.2596
     99  O          6.8630   29.8460   33.1880 O.2   218  PHE218     -0.2718
    100  CB         7.5700   27.3020   34.9760 C.3   218  PHE218      0.0547
    101  CG         7.7330   26.6270   36.2740 C.ar  218  PHE218     -0.0202
    102  CD1        8.9860   26.1940   36.6820 C.ar  218  PHE218     -0.0042
    103  CD2        6.6470   26.4510   37.1170 C.ar  218  PHE218     -0.0042
    104  CE1        9.1590   25.5670   37.9140 C.ar  218  PHE218     -0.0003
    105  CE2        6.8080   25.8400   38.3420 C.ar  218  PHE218     -0.0003
    106  CZ         8.0710   25.3920   38.7410 C.ar  218  PHE218     -0.0000
    107  N          8.9790   29.1560   32.8790 N.am  219  GLY219     -0.1942
    108  CA         8.9830   29.3950   31.4390 C.3   219  GLY219      0.2014
    109  C          8.0950   28.4050   30.7240 C.2   219  GLY219      0.2639
    110  O          7.8920   27.2770   31.1920 O.2   219  GLY219     -0.2714
    111  N          7.5160   28.8510   29.6240 N.am  220  VAL220     -0.1963
    112  CA         6.5930   28.0240   28.8500 C.3   220  VAL220      0.1727
    113  C          7.1140   27.9310   27.4180 C.2   220  VAL220      0.2616
    114  O          7.5130   28.9470   26.8120 O.2   220  VAL220     -0.2715
    115  CB         5.1500   28.5720   28.8120 C.3   220  VAL220      0.0290
    116  CG1        4.2170   27.5510   28.1250 C.3   220  VAL220      0.0023
    117  CG2        4.6470   28.8940   30.2000 C.3   220  VAL220      0.0023
    118  N          7.1070   26.7020   26.9020 N.am  221  TYR221     -0.1974
    119  CA         7.7530   26.3410   25.6420 C.3   221  TYR221      0.1639
    120  C          6.7560   25.5990   24.7670 C.2   221  TYR221      0.2290
    121  O          5.9780   24.7940   25.2720 O.2   221  TYR221     -0.2864
    122  CB         8.9800   25.4550   25.9210 C.3   221  TYR221      0.0560
    123  CG        10.0120   26.1780   26.7550 C.ar  221  TYR221     -0.0198
    124  CD1        9.9110   26.2300   28.1570 C.ar  221  TYR221     -0.0009
    125  CD2       11.0710   26.8430   26.1520 C.ar  221  TYR221     -0.0009
    126  CE1       10.8550   26.9210   28.9170 C.ar  221  TYR221      0.0417
    127  CE2       11.9980   27.5290   26.8890 C.ar  221  TYR221      0.0417
    128  CZ        11.8860   27.5800   28.2730 C.ar  221  TYR221      0.1957
    129  OH        12.8350   28.2860   29.0040 O.3   221  TYR221     -0.2866
@<TRIPOS>BOND
     1     1     2    1
     2     3     4    2
     3     3     2    1
     4     2     5    1
     5     5     6    1
     6    43    42    2
     7     6     8   ar
     8     6     7   ar
     9     8    10   ar
    10    42    41    1
    11     7     9   ar
    12    10     9   ar
    13    44    41    1
    14    44    45    1
    15    41    40    1
    16    49    48    2
    17    46    47    1
    18    58    57    1
    19    48    47    1
    20    48    53   am
    21    47    50    1
    22    54    57    1
    23    54    53    1
    24    54    55    1
    25    50    52    1
    26    50    51    1
    27    56    55    2
    28    55    59   am
    29   120   121    2
    30   120   119    1
    31    37    36    1
    32    37    38    1
    33    36    35    1
    34    33    34    2
    35    33    32    1
    36   119   122    1
    37   119   118    1
    38    59    60    1
    39    65    67   ar
    40    65    64   ar
    41   122   123    1
    42    39    38    1
    43    32    35    1
    44    32    31    1
    45   125   123   ar
    46   125   127   ar
    47    28    27    2
    48    63    64    1
    49    63    60    1
    50    67    68   ar
    51    64    66   ar
    52   123   124   ar
    53    60    61    1
    54   114   113    2
    55   127   128   ar
    56   118   113   am
    57    27    31   am
    58    27    26    1
    59   113   112    1
    60    68    66   ar
    61    68    70   ar
    62    66    69   ar
    63    23    24    1
    64    23    20    1
    65   116   115    1
    66   124   126   ar
    67    61    62    2
    68    61    73   am
    69   128   126   ar
    70   128   129    1
    71    25    26    1
    72    25    21   am
    73    26    29    1
    74    70    72   ar
    75   115   112    1
    76   115   117    1
    77   112   111    1
    78    73    74    1
    79    69    71   ar
    80    20    21    1
    81    20    19    1
    82    29    30    1
    83    21    22    2
    84   111   109   am
    85    72    71   ar
    86    30    95    1
    87    76    75    2
    88    19    13   am
    89    74    75    1
    90   109   110    2
    91   109   108    1
    92    95    94    1
    93    75    77   am
    94    14    13    2
    95   108   107    1
    96    13    12    1
    97    17    16   ar
    98    89    88    2
    99    94    91    1
   100    77    78    1
   101    16    18   ar
   102    16    15    1
   103    88    87    1
   104    88    90   am
   105    84    83    2
   106   107    98   am
   107    86    87    1
   108    86    79   am
   109    12    15    1
   110    12    11    1
   111    91    90    1
   112    91    92    1
   113    99    98    2
   114    78    79    1
   115    78    81    1
   116    79    80    2
   117    83    85   am
   118    83    82    1
   119    98    97    1
   120    82    81    1
   121    92    93    2
   122   100    97    1
   123   100   101    1
   124    97    96    1
   125   101   102   ar
   126   101   103   ar
   127   102   104   ar
   128   103   105   ar
   129   104   106   ar
   130   105   106   ar
