@<TRIPOS>MOLECULE
tmp/5payB00.pdb
 145 142 0 0 0
SMALL
GASTEIGER

@<TRIPOS>ATOM
      1  N         15.2780   40.5270   16.6460 N.3    25  LEU25      -0.1231
      2  CA        13.8440   40.1990   16.6960 C.3    25  LEU25       0.1693
      3  C         13.5570   39.0400   17.6460 C.2    25  LEU25       0.2592
      4  O         12.7210   39.0820   18.5360 O.2    25  LEU25      -0.2718
      5  CB        13.3620   39.8220   15.3020 C.3    25  LEU25       0.0284
      6  CG        11.9000   39.4090   15.1920 C.3    25  LEU25       0.0019
      7  CD1       10.9670   40.5880   15.4130 C.3    25  LEU25       0.0001
      8  CD2       11.6210   38.7110   13.8670 C.3    25  LEU25       0.0001
      9  N         14.2860   37.9810   17.3850 N.am   26  CYS26      -0.1970
     10  CA        14.0120   36.6590   17.9720 C.3    26  CYS26       0.1712
     11  C         15.1330   35.7040   17.6630 C.2    26  CYS26       0.2296
     12  O         16.0360   35.9930   16.8870 O.2    26  CYS26      -0.2864
     13  CB        12.7160   36.1020   17.3880 C.3    26  CYS26       0.0983
     14  SG        11.1590   36.6130   18.2280 S.3    26  CYS26      -0.0798
     15  N          4.9100   34.1440   17.0850 N.3    41  HIS41      -0.1226
     16  CA         4.5660   35.4850   17.6150 C.3    41  HIS41       0.1752
     17  C          5.6120   36.5060   17.2060 C.2    41  HIS41       0.2596
     18  O          5.4090   37.7130   17.2480 O.2    41  HIS41      -0.2718
     19  CB         4.2760   35.4860   19.1170 C.3    41  HIS41       0.0759
     20  CG         5.4910   35.5180   19.9860 C.ar   41  HIS41       0.0818
     21  ND1        5.9060   34.4270   20.7140 N.ar   41  HIS41      -0.2268
     22  CD2        6.3680   36.5140   20.2600 C.ar   41  HIS41       0.1154
     23  CE1        6.9870   34.7480   21.4060 C.ar   41  HIS41       0.1986
     24  NE2        7.2880   36.0090   21.1490 N.ar   41  HIS41      -0.2212
     25  N          6.7420   35.9760   16.7880 N.am   42  CYS42      -0.1970
     26  CA         7.8740   36.8110   16.3950 C.3    42  CYS42       0.1712
     27  C          7.5210   37.6470   15.1890 C.2    42  CYS42       0.2296
     28  O          8.1750   38.6400   14.8730 O.2    42  CYS42      -0.2864
     29  CB         9.1240   35.9740   16.0910 C.3    42  CYS42       0.0983
     30  SG         9.8460   35.1960   17.5440 S.3    42  CYS42      -0.0798
     31  N          4.3120   38.6940   14.3100 N.3    44  ASP44      -0.1225
     32  CA         2.9550   39.2810   14.4450 C.3    44  ASP44       0.1805
     33  C          2.8660   40.6700   13.8020 C.2    44  ASP44       0.2597
     34  O          1.8180   41.0780   13.2850 O.2    44  ASP44      -0.2718
     35  CB         2.5260   39.4060   15.9000 C.3    44  ASP44       0.1424
     36  CG         2.0770   38.0960   16.5140 C.2    44  ASP44       0.3668
     37  OD1        1.8600   37.0960   15.7910 O.co2  44  ASP44      -0.2456
     38  OD2        1.9290   38.0670   17.7540 O.co2  44  ASP44      -0.2456
     39  N          3.9840   41.3690   13.8500 N.am   45  LYS45      -0.1979
     40  CA         4.0050   42.8350   13.6060 C.3    45  LYS45       0.1596
     41  C          4.8540   43.2240   12.4260 C.2    45  LYS45       0.2287
     42  O          5.1010   44.4030   12.1590 O.2    45  LYS45      -0.2864
     43  CB         4.4940   43.6020   14.8350 C.3    45  LYS45       0.0298
     44  CG         3.6390   43.4460   16.0710 C.3    45  LYS45       0.0038
     45  CD         2.2550   43.9690   15.8640 C.3    45  LYS45       0.0206
     46  CE         1.4470   43.9340   17.1470 C.3    45  LYS45       0.1093
     47  NZ        -0.0050   43.9390   16.8200 N.3    45  LYS45      -0.1314
     48  N         -2.5470   35.6140   16.5170 N.3    84  PRO84      -0.2102
     49  CA        -1.5660   36.6020   16.9340 C.3    84  PRO84       0.1504
     50  C         -1.7850   37.1380   18.3200 C.2    84  PRO84       0.2576
     51  O         -2.9090   37.4040   18.7590 O.2    84  PRO84      -0.2718
     52  CB        -1.7270   37.6970   15.8780 C.3    84  PRO84       0.0282
     53  CG        -2.1060   36.9490   14.6630 C.3    84  PRO84       0.0208
     54  CD        -2.9760   35.8350   15.1270 C.3    84  PRO84       0.0893
     55  N         -0.6610   37.2400   18.9960 N.am   85  GLY85      -0.1957
     56  CA        -0.5550   37.8620   20.3210 C.3    85  GLY85       0.1869
     57  C         -0.9050   36.9040   21.4240 C.2    85  GLY85       0.2309
     58  O         -1.1260   37.2670   22.5780 O.2    85  GLY85      -0.2863
     59  N         15.5000   31.6710   33.7630 N.3   182  ASP182     -0.1225
     60  CA        14.4480   31.6520   32.7170 C.3   182  ASP182      0.1805
     61  C         14.9580   32.1130   31.3560 C.2   182  ASP182      0.2598
     62  O         16.0460   32.6530   31.2050 O.2   182  ASP182     -0.2718
     63  CB        13.3020   32.5680   33.1690 C.3   182  ASP182      0.1424
     64  CG        11.9550   32.2910   32.4720 C.2   182  ASP182      0.3668
     65  OD1       11.7840   31.2740   31.7480 O.co2 182  ASP182     -0.2456
     66  OD2       11.0320   33.1080   32.6930 O.co2 182  ASP182     -0.2456
     67  N         14.1440   31.8540   30.3560 N.am  183  SER183     -0.1938
     68  CA        14.3020   32.5540   29.0830 C.3   183  SER183      0.2055
     69  C         13.4350   33.7850   29.1690 C.2   183  SER183      0.2643
     70  O         12.5600   33.9140   30.0250 O.2   183  SER183     -0.2714
     71  CB        13.9340   31.6970   27.8710 C.3   183  SER183      0.2130
     72  OG        12.7240   31.0270   28.0830 O.3   183  SER183     -0.2179
     73  N         13.7000   34.6920   28.2630 N.am  184  CYS184     -0.1953
     74  CA        13.1830   36.0690   28.3880 C.3   184  CYS184      0.1843
     75  C         13.0100   36.7080   27.0210 C.2   184  CYS184      0.2625
     76  O         13.3980   36.1670   26.0020 O.2   184  CYS184     -0.2714
     77  CB        14.1540   36.8800   29.2720 C.3   184  CYS184      0.0997
     78  SG        13.6010   38.4020   30.1320 S.3   184  CYS184     -0.0797
     79  N         12.4350   37.8920   27.0310 N.am  185  LYS185     -0.1963
     80  CA        12.2440   38.6310   25.7840 C.3   185  LYS185      0.1728
     81  C         13.5850   38.7380   25.0800 C.2   185  LYS185      0.2616
     82  O         14.6040   39.1170   25.6520 O.2   185  LYS185     -0.2715
     83  CB        11.6340   40.0280   26.0240 C.3   185  LYS185      0.0311
     84  CG        11.4320   40.8220   24.7510 C.3   185  LYS185      0.0038
     85  CD        10.6650   42.1430   24.9930 C.3   185  LYS185      0.0206
     86  CE        10.3610   42.8480   23.6810 C.3   185  LYS185      0.1093
     87  NZ         9.6300   44.1400   23.8640 N.3   185  LYS185     -0.1314
     88  N         13.5360   38.3790   23.8190 N.am  186  GLY186     -0.1955
     89  CA        14.6840   38.3810   22.9330 C.3   186  GLY186      0.1869
     90  C         15.1190   36.9690   22.6050 C.2   186  GLY186      0.2309
     91  O         15.8410   36.7330   21.6420 O.2   186  GLY186     -0.2863
     92  N         12.7510   34.4120   22.3940 N.3   188  SER188     -0.1217
     93  CA        11.6310   33.6750   21.7740 C.3   188  SER188      0.1889
     94  C         12.0460   33.1730   20.4240 C.2   188  SER188      0.2288
     95  O         12.7400   33.8390   19.6540 O.2   188  SER188     -0.2866
     96  CB        10.3520   34.5010   21.6630 C.3   188  SER188      0.2089
     97  OG         9.8400   34.8200   22.9510 O.3   188  SER188     -0.2183
     98  N         11.1500   28.3620   22.5630 N.3   206  VAL206     -0.1231
     99  CA        10.8870   29.4520   23.5290 C.3   206  VAL206      0.1692
    100  C          9.6970   30.2550   23.0120 C.2   206  VAL206      0.2593
    101  O          9.7170   30.8700   21.9480 O.2   206  VAL206     -0.2718
    102  CB        12.0870   30.3870   23.7290 C.3   206  VAL206      0.0266
    103  CG1       11.7190   31.5560   24.7010 C.3   206  VAL206      0.0020
    104  CG2       13.3150   29.6270   24.2380 C.3   206  VAL206      0.0020
    105  N          8.6470   30.2280   23.8050 N.am  207  SER207     -0.1938
    106  CA         7.4310   30.9710   23.4790 C.3   207  SER207      0.2055
    107  C          7.4140   32.2800   24.2570 C.2   207  SER207      0.2643
    108  O          8.3500   33.0430   24.2420 O.2   207  SER207     -0.2714
    109  CB         6.1940   30.1130   23.7830 C.3   207  SER207      0.2130
    110  OG         5.0030   30.7360   23.3770 O.3   207  SER207     -0.2179
    111  N          6.3180   32.5120   24.9370 N.am  208  TRP208     -0.1959
    112  CA         6.2230   33.7070   25.7880 C.3   208  TRP208      0.1771
    113  C          5.1030   33.6470   26.7780 C.2   208  TRP208      0.2620
    114  O          4.3040   32.7250   26.8180 O.2   208  TRP208     -0.2715
    115  CB         6.1540   35.0160   24.9860 C.3   208  TRP208      0.0590
    116  CG         4.9880   35.1530   24.0440 C.ar  208  TRP208      0.0006
    117  CD1        4.1500   34.1620   23.6120 C.ar  208  TRP208      0.0946
    118  CD2        4.5710   36.3510   23.3840 C.ar  208  TRP208      0.0152
    119  NE1        3.2320   34.6790   22.7230 N.ar  208  TRP208     -0.2442
    120  CE2        3.4630   36.0210   22.5750 C.ar  208  TRP208      0.0810
    121  CE3        5.0240   37.6740   23.4030 C.ar  208  TRP208      0.0012
    122  CZ2        2.8120   36.9630   21.7910 C.ar  208  TRP208      0.0191
    123  CZ3        4.3770   38.6090   22.6230 C.ar  208  TRP208      0.0001
    124  CH2        3.2700   38.2550   21.8410 C.ar  208  TRP208      0.0015
    125  N          5.1380   34.6870   27.5720 N.am  209  GLY209     -0.1954
    126  CA         4.2260   34.8650   28.6880 C.3   209  GLY209      0.1869
    127  C          4.5790   36.0140   29.5820 C.2   209  GLY209      0.2309
    128  O          5.2370   36.9990   29.1870 O.2   209  GLY209     -0.2863
    129  N          6.0070   38.0890   32.1540 N.3   211  GLY211     -0.1210
    130  CA         7.3270   38.5310   32.6100 C.3   211  GLY211      0.1956
    131  C          8.3800   37.4850   32.3560 C.2   211  GLY211      0.2612
    132  O          8.1110   36.4240   31.7950 O.2   211  GLY211     -0.2717
    133  N          9.5900   37.7840   32.7880 N.am  212  CYS212     -0.1970
    134  CA        10.6150   36.7800   32.7190 C.3   212  CYS212      0.1712
    135  C         11.2370   36.6470   34.0920 C.2   212  CYS212      0.2296
    136  O         11.4180   37.6070   34.8010 O.2   212  CYS212     -0.2864
    137  CB        11.6120   37.0980   31.6150 C.3   212  CYS212      0.0983
    138  SG        13.1170   37.8410   32.0540 S.3   212  CYS212     -0.0798
    139  N          7.3420   28.9060   29.5410 N.3   220  VAL220     -0.1245
    140  CA         6.4630   28.2250   28.5840 C.3   220  VAL220      0.1561
    141  C          7.1190   28.0400   27.2290 C.2   220  VAL220      0.2260
    142  O          7.6700   28.9580   26.6180 O.2   220  VAL220     -0.2867
    143  CB         5.1500   28.9650   28.4040 C.3   220  VAL220      0.0252
    144  CG1        4.2020   28.1360   27.5480 C.3   220  VAL220      0.0019
    145  CG2        4.5210   29.2590   29.7770 C.3   220  VAL220      0.0019
@<TRIPOS>BOND
     1    42    41    2
     2    41    40    1
     3    34    33    2
     4    40    39    1
     5    40    43    1
     6    33    39   am
     7    33    32    1
     8     8     6    1
     9    31    32    1
    10    32    35    1
    11    53    54    1
    12    53    52    1
    13    43    44    1
    14    28    27    2
    15    54    48    1
    16    27    26    1
    17     6     5    1
    18     6     7    1
    19     5     2    1
    20    37    36   ar
    21    45    44    1
    22    45    46    1
    23    52    49    1
    24    35    36    1
    25    29    26    1
    26    29    30    1
    27    26    25    1
    28    36    38   ar
    29    48    49    1
    30     1     2    1
    31     2     3    1
    32    25    17   am
    33    47    46    1
    34    12    11    2
    35    49    50    1
    36    15    16    1
    37    17    18    2
    38    17    16    1
    39     9     3   am
    40     9    10    1
    41    13    10    1
    42    13    14    1
    43    30    14    1
    44    16    19    1
    45     3     4    2
    46    11    10    1
    47    50    51    2
    48    50    55   am
    49    55    56    1
    50    19    20    1
    51    95    94    2
    52    20    22   ar
    53    20    21   ar
    54    22    24   ar
    55    56    57    1
    56    94    93    1
    57    21    23   ar
    58    24    23   ar
    59    57    58    2
    60    91    90    2
    61    96    93    1
    62    96    97    1
    63    93    92    1
    64   122   124   ar
    65   122   120   ar
    66   124   123   ar
    67   101   100    2
    68    98    99    1
    69   120   119   ar
    70   120   118   ar
    71    90    89    1
    72   123   121   ar
    73   119   117   ar
    74    89    88    1
    75   100    99    1
    76   100   105   am
    77   110   109    1
    78   118   121   ar
    79   118   116   ar
    80   106   109    1
    81   106   105    1
    82   106   107    1
    83    99   102    1
    84   117   116   ar
    85    86    87    1
    86    86    85    1
    87   102   104    1
    88   102   103    1
    89    88    81   am
    90   116   115    1
    91   108   107    2
    92   107   111   am
    93    84    85    1
    94    84    83    1
    95   111   112    1
    96   115   112    1
    97    81    82    2
    98    81    80    1
    99    80    83    1
   100    80    79    1
   101   112   113    1
   102    76    75    2
   103   142   141    2
   104   113   114    2
   105   113   125   am
   106    75    79   am
   107    75    74    1
   108   141   140    1
   109   144   143    1
   110   125   126    1
   111    71    72    1
   112    71    68    1
   113    73    74    1
   114    73    69   am
   115    74    77    1
   116   143   140    1
   117   143   145    1
   118   140   139    1
   119   126   127    1
   120    68    69    1
   121    68    67    1
   122    69    70    2
   123   128   127    2
   124    77    78    1
   125    78   138    1
   126    67    61   am
   127    62    61    2
   128    61    60    1
   129   137   138    1
   130   137   134    1
   131    65    64   ar
   132   132   131    2
   133   129   130    1
   134   131   130    1
   135   131   133   am
   136    64    66   ar
   137    64    63    1
   138    60    63    1
   139    60    59    1
   140   134   133    1
   141   134   135    1
   142   135   136    2
