@<TRIPOS>MOLECULE
tmp/5pb0B00.pdb
 162 161 0 0 0
SMALL
GASTEIGER

@<TRIPOS>ATOM
      1  N          4.8110   33.8240   17.5270 N.3    41  HIS41      -0.1241
      2  CA         4.5760   35.1560   18.1120 C.3    41  HIS41       0.1621
      3  C          5.6580   36.1750   17.7430 C.2    41  HIS41       0.2264
      4  O          5.4630   37.3900   17.8730 O.2    41  HIS41      -0.2867
      5  CB         4.3170   35.0610   19.6310 C.3    41  HIS41       0.0745
      6  CG         5.5400   35.0880   20.4950 C.ar   41  HIS41       0.0817
      7  ND1        6.0810   33.9500   21.0490 N.ar   41  HIS41      -0.2268
      8  CD2        6.2680   36.1220   20.9730 C.ar   41  HIS41       0.1154
      9  CE1        7.1220   34.2760   21.7910 C.ar   41  HIS41       0.1986
     10  NE2        7.2580   35.5940   21.7590 N.ar   41  HIS41      -0.2212
     11  N         -1.2020   37.3910   19.1570 N.3    85  GLY85      -0.1210
     12  CA        -1.4510   38.0250   20.4590 C.3    85  GLY85       0.1956
     13  C         -1.7870   37.0220   21.5490 C.2    85  GLY85       0.2613
     14  O         -2.1190   37.4120   22.6680 O.2    85  GLY85      -0.2717
     15  N         -1.7310   35.7250   21.2280 N.am   86  THR86      -0.1938
     16  CA        -2.0220   34.6820   22.2040 C.3    86  THR86       0.2028
     17  C         -0.8480   33.6760   22.2600 C.2    86  THR86       0.2642
     18  O          0.2020   33.8870   21.6070 O.2    86  THR86      -0.2714
     19  CB        -3.3610   33.9860   21.9220 C.3    86  THR86       0.1808
     20  OG1       -3.2440   33.1620   20.7520 O.3    86  THR86      -0.2208
     21  CG2       -4.4990   35.0100   21.7190 C.3    86  THR86       0.0379
     22  N         -1.0050   32.6160   23.0590 N.am   87  THR87      -0.1950
     23  CA         0.1160   31.7350   23.4080 C.3    87  THR87       0.1897
     24  C          0.1030   30.3400   22.7410 C.2    87  THR87       0.2313
     25  O          1.1610   29.7460   22.5670 O.2    87  THR87      -0.2863
     26  CB         0.1960   31.5270   24.9470 C.3    87  THR87       0.1794
     27  OG1       -1.0550   31.0340   25.4350 O.3    87  THR87      -0.2208
     28  CG2        0.5600   32.8190   25.6610 C.3    87  THR87       0.0378
     29  N          2.4890   28.0250   19.4180 N.3    90  ASP90      -0.1239
     30  CA         3.4950   29.0600   19.2010 C.3    90  ASP90       0.1674
     31  C          4.7200   28.5200   18.4300 C.2    90  ASP90       0.2266
     32  O          5.8010   28.3130   18.9720 O.2    90  ASP90      -0.2867
     33  CB         3.8850   29.7270   20.5080 C.3    90  ASP90       0.1410
     34  CG         4.6510   31.0040   20.2930 C.2    90  ASP90       0.3668
     35  OD1        4.6700   31.5300   19.1490 O.co2  90  ASP90      -0.2456
     36  OD2        5.2230   31.4940   21.2800 O.co2  90  ASP90      -0.2456
     37  N         -2.6440   32.4540   31.0440 N.3   165  PRO165     -0.2116
     38  CA        -3.2730   31.5530   30.0820 C.3   165  PRO165      0.1372
     39  C         -3.1220   30.0910   30.5140 C.2   165  PRO165      0.2244
     40  O         -2.3320   29.7800   31.4130 O.2   165  PRO165     -0.2868
     41  CB        -2.5290   31.8370   28.7640 C.3   165  PRO165      0.0268
     42  CG        -1.4850   32.8380   29.0620 C.3   165  PRO165      0.0207
     43  CD        -1.6600   33.3630   30.4330 C.3   165  PRO165      0.0892
     44  N         15.9810   31.4930   33.9990 N.3   182  ASP182     -0.1225
     45  CA        14.8520   31.4860   33.0640 C.3   182  ASP182      0.1805
     46  C         15.3290   31.9170   31.6790 C.2   182  ASP182      0.2598
     47  O         16.4220   32.4640   31.5320 O.2   182  ASP182     -0.2718
     48  CB        13.7490   32.4440   33.5650 C.3   182  ASP182      0.1424
     49  CG        12.3580   32.1190   33.0160 C.2   182  ASP182      0.3668
     50  OD1       12.1830   31.1130   32.2840 O.co2 182  ASP182     -0.2456
     51  OD2       11.4200   32.9040   33.3130 O.co2 182  ASP182     -0.2456
     52  N         14.5130   31.6480   30.6700 N.am  183  SER183     -0.1938
     53  CA        14.6700   32.3030   29.3750 C.3   183  SER183      0.2055
     54  C         13.7920   33.5510   29.4430 C.2   183  SER183      0.2643
     55  O         12.9070   33.6340   30.3080 O.2   183  SER183     -0.2714
     56  CB        14.2690   31.3840   28.2120 C.3   183  SER183      0.2130
     57  OG        12.9450   30.9280   28.3540 O.3   183  SER183     -0.2179
     58  N         14.0120   34.4910   28.5190 N.am  184  CYS184     -0.1953
     59  CA        13.3160   35.7720   28.5460 C.3   184  CYS184      0.1843
     60  C         12.7950   36.1630   27.1590 C.2   184  CYS184      0.2625
     61  O         13.0470   35.4840   26.1780 O.2   184  CYS184     -0.2714
     62  CB        14.2690   36.8490   29.0770 C.3   184  CYS184      0.0997
     63  SG        13.4700   38.3560   29.6970 S.3   184  CYS184     -0.0797
     64  N         12.0500   37.2660   27.1200 N.am  185  LYS185     -0.1977
     65  CA        11.4490   37.8330   25.9090 C.3   185  LYS185      0.1596
     66  C         12.2770   37.6580   24.6420 C.2   185  LYS185      0.2287
     67  O         11.7890   37.1530   23.6120 O.2   185  LYS185     -0.2864
     68  CB        11.3120   39.3660   26.1050 C.3   185  LYS185      0.0298
     69  CG         9.9490   39.8490   26.2360 C.3   185  LYS185      0.0038
     70  CD         9.8940   41.1890   26.9780 C.3   185  LYS185      0.0206
     71  CE        10.7160   42.2710   26.3320 C.3   185  LYS185      0.1093
     72  NZ        10.3890   43.5870   27.0030 N.3   185  LYS185     -0.1314
     73  N         12.8520   34.3510   22.7500 N.3   188  SER188     -0.1217
     74  CA        11.7050   33.7640   22.0940 C.3   188  SER188      0.1889
     75  C         12.1260   33.1690   20.7510 C.2   188  SER188      0.2288
     76  O         12.8960   33.7950   20.0070 O.2   188  SER188     -0.2866
     77  CB        10.6210   34.8230   21.8310 C.3   188  SER188      0.2089
     78  OG         9.9960   35.2890   23.0150 O.3   188  SER188     -0.2183
     79  N         11.4010   28.4090   22.9030 N.3   206  VAL206     -0.1231
     80  CA        11.1710   29.4880   23.8980 C.3   206  VAL206      0.1692
     81  C          9.9070   30.2470   23.5040 C.2   206  VAL206      0.2593
     82  O          9.8240   30.8060   22.4140 O.2   206  VAL206     -0.2718
     83  CB        12.3810   30.4230   24.0240 C.3   206  VAL206      0.0266
     84  CG1       12.1240   31.5810   25.0550 C.3   206  VAL206      0.0020
     85  CG2       13.6590   29.6470   24.3540 C.3   206  VAL206      0.0020
     86  N          8.9120   30.2660   24.3870 N.am  207  SER207     -0.1938
     87  CA         7.5970   30.7710   24.0110 C.3   207  SER207      0.2055
     88  C          7.0750   31.8980   24.9090 C.2   207  SER207      0.2643
     89  O          6.9450   33.0200   24.4660 O.2   207  SER207     -0.2714
     90  CB         6.5850   29.6200   23.9760 C.3   207  SER207      0.2130
     91  OG         5.3400   30.0880   23.4860 O.3   207  SER207     -0.2179
     92  N          6.7880   31.5940   26.1710 N.am  208  TRP208     -0.1959
     93  CA         6.1880   32.5930   27.0590 C.3   208  TRP208      0.1771
     94  C          6.3990   32.3200   28.5370 C.2   208  TRP208      0.2620
     95  O          6.9690   31.3080   28.9340 O.2   208  TRP208     -0.2715
     96  CB         4.6940   32.7960   26.7490 C.3   208  TRP208      0.0590
     97  CG         3.7980   31.6370   27.0210 C.ar  208  TRP208      0.0006
     98  CD1        3.5820   30.5730   26.2030 C.ar  208  TRP208      0.0946
     99  CD2        2.9380   31.4480   28.1580 C.ar  208  TRP208      0.0152
    100  NE1        2.6800   29.7170   26.7650 N.ar  208  TRP208     -0.2442
    101  CE2        2.2620   30.2280   27.9660 C.ar  208  TRP208      0.0810
    102  CE3        2.7000   32.1770   29.3340 C.ar  208  TRP208      0.0012
    103  CZ2        1.3400   29.7200   28.8930 C.ar  208  TRP208      0.0191
    104  CZ3        1.7910   31.6660   30.2670 C.ar  208  TRP208      0.0001
    105  CH2        1.1310   30.4450   30.0420 C.ar  208  TRP208      0.0015
    106  N          5.9880   33.2910   29.3360 N.am  209  GLY209     -0.1940
    107  CA         5.9910   33.1750   30.7930 C.3   209  GLY209      0.2014
    108  C          5.4120   34.4600   31.3760 C.2   209  GLY209      0.2639
    109  O          4.9580   35.3210   30.6310 O.2   209  GLY209     -0.2714
    110  N          5.4600   34.5890   32.7030 N.am  210  GLN210     -0.1963
    111  CA         4.9890   35.8000   33.4220 C.3   210  GLN210      0.1733
    112  C          6.1980   36.5740   33.8870 C.2   210  GLN210      0.2617
    113  O          6.6880   36.2930   34.9830 O.2   210  GLN210     -0.2715
    114  CB         4.2250   35.4070   34.6970 C.3   210  GLN210      0.0408
    115  CG         3.0510   34.5040   34.4850 C.3   210  GLN210      0.0908
    116  CD         1.8710   35.2250   33.8920 C.2   210  GLN210      0.2608
    117  OE1        1.0410   34.6210   33.2000 O.2   210  GLN210     -0.2717
    118  NE2        1.7790   36.5320   34.1570 N.am  210  GLN210     -0.0878
    119  N          6.6700   37.5410   33.1010 N.am  211  GLY211     -0.1940
    120  CA         7.9040   38.2630   33.4070 C.3   211  GLY211      0.2014
    121  C          9.0200   37.2450   33.4140 C.2   211  GLY211      0.2639
    122  O          8.7230   36.0380   33.5510 O.2   211  GLY211     -0.2714
    123  N         10.2860   37.6730   33.3200 N.am  212  CYS212     -0.1967
    124  CA        11.4120   36.7490   33.2430 C.3   212  CYS212      0.1712
    125  C         11.9960   36.4240   34.6100 C.2   212  CYS212      0.2296
    126  O         12.3520   37.3350   35.3680 O.2   212  CYS212     -0.2864
    127  CB        12.4920   37.3480   32.3450 C.3   212  CYS212      0.0983
    128  SG        11.8420   37.7320   30.7200 S.3   212  CYS212     -0.0798
    129  N          7.3520   29.4300   36.0750 N.3   218  PHE218     -0.1227
    130  CA         8.2720   28.7440   35.1760 C.3   218  PHE218      0.1736
    131  C          8.1680   29.3020   33.7650 C.2   218  PHE218      0.2596
    132  O          7.1560   29.8890   33.3980 O.2   218  PHE218     -0.2718
    133  CB         7.9180   27.2570   35.1180 C.3   218  PHE218      0.0547
    134  CG         8.1060   26.5500   36.4180 C.ar  218  PHE218     -0.0202
    135  CD1        9.3110   25.9710   36.7250 C.ar  218  PHE218     -0.0042
    136  CD2        7.0770   26.5060   37.3500 C.ar  218  PHE218     -0.0042
    137  CE1        9.5030   25.3270   37.9450 C.ar  218  PHE218     -0.0003
    138  CE2        7.2510   25.8550   38.5770 C.ar  218  PHE218     -0.0003
    139  CZ         8.4650   25.2770   38.8800 C.ar  218  PHE218     -0.0000
    140  N          9.2000   29.0700   32.9620 N.am  219  GLY219     -0.1942
    141  CA         9.1220   29.3260   31.5240 C.3   219  GLY219      0.2014
    142  C          8.2170   28.3160   30.8660 C.2   219  GLY219      0.2639
    143  O          8.1180   27.1750   31.3200 O.2   219  GLY219     -0.2714
    144  N          7.5190   28.7540   29.8230 N.am  220  VAL220     -0.1963
    145  CA         6.6360   27.8870   29.0570 C.3   220  VAL220      0.1727
    146  C          7.1720   27.7690   27.6180 C.2   220  VAL220      0.2616
    147  O          7.5930   28.7800   26.9920 O.2   220  VAL220     -0.2715
    148  CB         5.1800   28.3510   29.1110 C.3   220  VAL220      0.0290
    149  CG1        4.2520   27.2650   28.5550 C.3   220  VAL220      0.0023
    150  CG2        4.7720   28.6860   30.5870 C.3   220  VAL220      0.0023
    151  N          7.2190   26.5130   27.1460 N.am  221  TYR221     -0.1974
    152  CA         7.8660   26.1350   25.8880 C.3   221  TYR221      0.1639
    153  C          6.8730   25.4140   24.9790 C.2   221  TYR221      0.2290
    154  O          6.0330   24.6350   25.4400 O.2   221  TYR221     -0.2864
    155  CB         9.0950   25.2520   26.1620 C.3   221  TYR221      0.0560
    156  CG        10.1340   25.9760   26.9710 C.ar  221  TYR221     -0.0198
    157  CD1       10.0640   26.0220   28.3720 C.ar  221  TYR221     -0.0009
    158  CD2       11.1810   26.6440   26.3510 C.ar  221  TYR221     -0.0009
    159  CE1       11.0180   26.7460   29.1130 C.ar  221  TYR221      0.0417
    160  CE2       12.1140   27.3460   27.0780 C.ar  221  TYR221      0.0417
    161  CZ        12.0270   27.4170   28.4500 C.ar  221  TYR221      0.1957
    162  OH        13.0050   28.1480   29.1080 O.3   221  TYR221     -0.2866
@<TRIPOS>BOND
     1     1     2    1
     2     3     4    2
     3     3     2    1
     4     2     5    1
     5    31    32    2
     6    31    30    1
     7    35    34   ar
     8    11    12    1
     9    30    29    1
    10    30    33    1
    11     5     6    1
    12    76    75    2
    13    34    33    1
    14    34    36   ar
    15    12    13    1
    16     6     8   ar
    17     6     7   ar
    18    75    74    1
    19    20    19    1
    20     8    10   ar
    21     7     9   ar
    22    15    13   am
    23    15    16    1
    24    13    14    2
    25    18    17    2
    26    21    19    1
    27    10     9   ar
    28    77    74    1
    29    77    78    1
    30    19    16    1
    31    74    73    1
    32    16    17    1
    33    17    22   am
    34    82    81    2
    35    25    24    2
    36    24    23    1
    37    79    80    1
    38    22    23    1
    39    23    26    1
    40    91    90    1
    41    81    80    1
    42    81    86   am
    43    67    66    2
    44    80    83    1
    45    90    87    1
    46    87    86    1
    47    87    88    1
    48    83    85    1
    49    83    84    1
    50    89    88    2
    51    66    65    1
    52    88    92   am
    53    26    27    1
    54    26    28    1
    55   153   154    2
    56   153   152    1
    57   152   155    1
    58   152   151    1
    59    65    68    1
    60    65    64    1
    61    68    69    1
    62   155   156    1
    63    92    93    1
    64    61    60    2
    65    98   100   ar
    66    98    97   ar
    67    69    70    1
    68    71    70    1
    69    71    72    1
    70   158   156   ar
    71   158   160   ar
    72    96    97    1
    73    96    93    1
    74   100   101   ar
    75   156   157   ar
    76   147   146    2
    77    97    99   ar
    78    93    94    1
    79   160   161   ar
    80    64    60   am
    81   151   146   am
    82    60    59    1
    83   146   145    1
    84   101    99   ar
    85   101   103   ar
    86    99   102   ar
    87    56    57    1
    88    56    53    1
    89   157   159   ar
    90   161   162    1
    91   161   159   ar
    92    58    59    1
    93    58    54   am
    94    94    95    2
    95    94   106   am
    96    59    62    1
    97   149   148    1
    98    41    42    1
    99    41    38    1
   100   103   105   ar
   101   145   148    1
   102   145   144    1
   103    42    43    1
   104    62    63    1
   105   148   150    1
   106   102   104   ar
   107   106   107    1
   108    53    54    1
   109    53    52    1
   110    54    55    2
   111    63   128    1
   112   144   142   am
   113   105   104   ar
   114    38    39    1
   115    38    37    1
   116    43    37    1
   117    39    40    2
   118   109   108    2
   119    52    46   am
   120   128   127    1
   121   107   108    1
   122   142   143    2
   123   142   141    1
   124   108   110   am
   125   141   140    1
   126    47    46    2
   127    46    45    1
   128    50    49   ar
   129   127   124    1
   130   110   111    1
   131   140   131   am
   132    49    51   ar
   133    49    48    1
   134    45    48    1
   135    45    44    1
   136   119   120    1
   137   119   112   am
   138   117   116    2
   139   124   123    1
   140   124   125    1
   141   123   121   am
   142   132   131    2
   143   120   121    1
   144   121   122    2
   145   111   112    1
   146   111   114    1
   147   131   130    1
   148   112   113    2
   149   116   118   am
   150   116   115    1
   151   115   114    1
   152   125   126    2
   153   133   130    1
   154   133   134    1
   155   130   129    1
   156   134   135   ar
   157   134   136   ar
   158   135   137   ar
   159   136   138   ar
   160   137   139   ar
   161   138   139   ar
