@<TRIPOS>MOLECULE
tmp/5pb2B00.pdb
 134 131 0 0 0
SMALL
GASTEIGER

@<TRIPOS>ATOM
      1  N         15.3890   40.7590   16.6620 N.3    25  LEU25      -0.1231
      2  CA        13.9500   40.4060   16.7350 C.3    25  LEU25       0.1693
      3  C         13.6670   39.2380   17.6810 C.2    25  LEU25       0.2592
      4  O         12.8410   39.2910   18.5910 O.2    25  LEU25      -0.2718
      5  CB        13.4230   40.0450   15.3450 C.3    25  LEU25       0.0284
      6  CG        11.9490   39.6610   15.2710 C.3    25  LEU25       0.0019
      7  CD1       11.0750   40.8880   15.5280 C.3    25  LEU25       0.0001
      8  CD2       11.6280   39.0070   13.9480 C.3    25  LEU25       0.0001
      9  N         14.3800   38.1630   17.4130 N.am   26  CYS26      -0.1970
     10  CA        14.1160   36.8470   18.0370 C.3    26  CYS26       0.1712
     11  C         15.2440   35.9020   17.7370 C.2    26  CYS26       0.2296
     12  O         16.1510   36.2010   16.9670 O.2    26  CYS26      -0.2864
     13  CB        12.8100   36.2560   17.4840 C.3    26  CYS26       0.0983
     14  SG        11.2530   36.8280   18.2660 S.3    26  CYS26      -0.0798
     15  N          4.9100   34.3040   17.1990 N.3    41  HIS41      -0.1226
     16  CA         4.5780   35.6390   17.7410 C.3    41  HIS41       0.1752
     17  C          5.6360   36.6560   17.3540 C.2    41  HIS41       0.2596
     18  O          5.4400   37.8670   17.4150 O.2    41  HIS41      -0.2718
     19  CB         4.3080   35.6130   19.2480 C.3    41  HIS41       0.0759
     20  CG         5.5300   35.6470   20.1200 C.ar   41  HIS41       0.0818
     21  ND1        5.9710   34.5440   20.8180 N.ar   41  HIS41      -0.2268
     22  CD2        6.3810   36.6570   20.4340 C.ar   41  HIS41       0.1154
     23  CE1        7.0430   34.8710   21.5210 C.ar   41  HIS41       0.1986
     24  NE2        7.3230   36.1430   21.2920 N.ar   41  HIS41      -0.2212
     25  N          6.7640   36.1380   16.9170 N.am   42  CYS42      -0.1970
     26  CA         7.9040   36.9800   16.5390 C.3    42  CYS42       0.1712
     27  C          7.5660   37.8640   15.3530 C.2    42  CYS42       0.2296
     28  O          8.2360   38.8610   15.0780 O.2    42  CYS42      -0.2864
     29  CB         9.1490   36.1340   16.2090 C.3    42  CYS42       0.0983
     30  SG         9.9390   35.3760   17.6710 S.3    42  CYS42      -0.0798
     31  N          4.4340   39.0560   14.5930 N.3    44  ASP44      -0.1225
     32  CA         3.1220   39.7100   14.8220 C.3    44  ASP44       0.1805
     33  C          3.0850   41.1260   14.2540 C.2    44  ASP44       0.2597
     34  O          2.0360   41.6160   13.8340 O.2    44  ASP44      -0.2718
     35  CB         2.7620   39.7710   16.3110 C.3    44  ASP44       0.1424
     36  CG         2.1150   38.4950   16.8270 C.2    44  ASP44       0.3668
     37  OD1        1.9400   37.5200   16.0570 O.co2  44  ASP44      -0.2456
     38  OD2        1.7970   38.4590   18.0420 O.co2  44  ASP44      -0.2456
     39  N          4.2380   41.7670   14.2570 N.am   45  LYS45      -0.1979
     40  CA         4.3030   43.2330   14.0270 C.3    45  LYS45       0.1596
     41  C          5.0560   43.6090   12.7880 C.2    45  LYS45       0.2287
     42  O          5.3080   44.7770   12.5110 O.2    45  LYS45      -0.2864
     43  CB         4.9190   43.9550   15.2260 C.3    45  LYS45       0.0298
     44  CG         4.0980   43.8290   16.5050 C.3    45  LYS45       0.0038
     45  CD         2.7240   44.4650   16.3490 C.3    45  LYS45       0.0206
     46  CE         1.8970   44.3650   17.6260 C.3    45  LYS45       0.1093
     47  NZ         0.4800   44.7640   17.3860 N.3    45  LYS45      -0.1314
     48  N         15.7340   31.9090   33.9270 N.3   182  ASP182     -0.1225
     49  CA        14.6600   31.8730   32.9110 C.3   182  ASP182      0.1805
     50  C         15.1560   32.3250   31.5520 C.2   182  ASP182      0.2598
     51  O         16.2340   32.8910   31.4150 O.2   182  ASP182     -0.2718
     52  CB        13.5110   32.7910   33.3650 C.3   182  ASP182      0.1424
     53  CG        12.1600   32.4600   32.7190 C.2   182  ASP182      0.3668
     54  OD1       12.0280   31.4150   32.0370 O.co2 182  ASP182     -0.2456
     55  OD2       11.2100   33.2690   32.9100 O.co2 182  ASP182     -0.2456
     56  N         14.3480   32.0340   30.5540 N.am  183  SER183     -0.1938
     57  CA        14.4550   32.7370   29.2760 C.3   183  SER183      0.2055
     58  C         13.6330   34.0080   29.3910 C.2   183  SER183      0.2643
     59  O         12.8190   34.1830   30.3010 O.2   183  SER183     -0.2714
     60  CB        14.0210   31.8810   28.0950 C.3   183  SER183      0.2130
     61  OG        12.7600   31.3000   28.3100 O.3   183  SER183     -0.2179
     62  N         13.8970   34.9060   28.4690 N.am  184  CYS184     -0.1953
     63  CA        13.4120   36.3000   28.5780 C.3   184  CYS184      0.1843
     64  C         13.1820   36.9180   27.2120 C.2   184  CYS184      0.2625
     65  O         13.4900   36.3500   26.1720 O.2   184  CYS184     -0.2714
     66  CB        14.4360   37.1290   29.3810 C.3   184  CYS184      0.0997
     67  SG        13.8630   38.6510   30.2640 S.3   184  CYS184     -0.0797
     68  N         12.6420   38.1160   27.2370 N.am  185  LYS185     -0.1963
     69  CA        12.4010   38.8410   25.9870 C.3   185  LYS185      0.1728
     70  C         13.7100   38.9550   25.2370 C.2   185  LYS185      0.2616
     71  O         14.7540   39.3160   25.7850 O.2   185  LYS185     -0.2715
     72  CB        11.7930   40.2350   26.2330 C.3   185  LYS185      0.0311
     73  CG        11.5660   41.0580   24.9780 C.3   185  LYS185      0.0038
     74  CD        10.7770   42.3460   25.2910 C.3   185  LYS185      0.0206
     75  CE        10.4070   43.0840   24.0200 C.3   185  LYS185      0.1093
     76  NZ         9.6380   44.3430   24.2920 N.3   185  LYS185     -0.1314
     77  N         13.6130   38.6300   23.9680 N.am  186  GLY186     -0.1955
     78  CA        14.7380   38.6340   23.0620 C.3   186  GLY186      0.1869
     79  C         15.1910   37.2330   22.7340 C.2   186  GLY186      0.2309
     80  O         15.9100   37.0200   21.7690 O.2   186  GLY186     -0.2863
     81  N         12.8620   34.6430   22.5750 N.3   188  SER188     -0.1217
     82  CA        11.7460   33.9250   21.9330 C.3   188  SER188      0.1889
     83  C         12.1730   33.3950   20.5860 C.2   188  SER188      0.2288
     84  O         12.8900   34.0430   19.8370 O.2   188  SER188     -0.2866
     85  CB        10.5020   34.7990   21.7770 C.3   188  SER188      0.2089
     86  OG         9.9280   35.0890   23.0450 O.3   188  SER188     -0.2183
     87  N         11.2920   28.6020   22.7140 N.3   206  VAL206     -0.1231
     88  CA        11.0400   29.6800   23.6990 C.3   206  VAL206      0.1692
     89  C          9.8420   30.4860   23.2070 C.2   206  VAL206      0.2593
     90  O          9.8480   31.0610   22.1170 O.2   206  VAL206     -0.2718
     91  CB        12.2420   30.6100   23.8680 C.3   206  VAL206      0.0266
     92  CG1       11.9000   31.7120   24.8700 C.3   206  VAL206      0.0020
     93  CG2       13.5000   29.8420   24.3120 C.3   206  VAL206      0.0020
     94  N          8.7960   30.4860   24.0090 N.am  207  SER207     -0.1938
     95  CA         7.5580   31.1810   23.6450 C.3   207  SER207      0.2055
     96  C          7.4740   32.5160   24.3690 C.2   207  SER207      0.2643
     97  O          8.3710   33.3350   24.3000 O.2   207  SER207     -0.2714
     98  CB         6.3360   30.2750   23.8950 C.3   207  SER207      0.2130
     99  OG         5.1260   30.8520   23.4530 O.3   207  SER207     -0.2179
    100  N          6.3700   32.7400   25.0280 N.am  208  TRP208     -0.1959
    101  CA         6.2340   33.9520   25.8610 C.3   208  TRP208      0.1771
    102  C          5.0910   33.8780   26.8250 C.2   208  TRP208      0.2620
    103  O          4.3290   32.9190   26.8740 O.2   208  TRP208     -0.2715
    104  CB         6.1750   35.2560   25.0400 C.3   208  TRP208      0.0590
    105  CG         5.0030   35.4000   24.1040 C.ar  208  TRP208      0.0006
    106  CD1        4.1810   34.4030   23.6460 C.ar  208  TRP208      0.0946
    107  CD2        4.5570   36.6070   23.4710 C.ar  208  TRP208      0.0152
    108  NE1        3.2430   34.9220   22.7800 N.ar  208  TRP208     -0.2442
    109  CE2        3.4550   36.2720   22.6550 C.ar  208  TRP208      0.0810
    110  CE3        4.9790   37.9400   23.5180 C.ar  208  TRP208      0.0012
    111  CZ2        2.7730   37.2180   21.9000 C.ar  208  TRP208      0.0191
    112  CZ3        4.3000   38.8780   22.7650 C.ar  208  TRP208      0.0001
    113  CH2        3.2090   38.5160   21.9680 C.ar  208  TRP208      0.0015
    114  N          5.0550   34.9390   27.6030 N.am  209  GLY209     -0.1954
    115  CA         4.1590   35.0710   28.7440 C.3   209  GLY209      0.1869
    116  C          4.6200   36.1400   29.7030 C.2   209  GLY209      0.2309
    117  O          5.2930   37.1130   29.3240 O.2   209  GLY209     -0.2863
    118  N          6.2410   38.0960   32.3380 N.3   211  GLY211     -0.1210
    119  CA         7.4840   38.5500   32.9370 C.3   211  GLY211      0.1956
    120  C          8.5800   37.5610   32.6600 C.2   211  GLY211      0.2612
    121  O          8.3460   36.4780   32.1270 O.2   211  GLY211     -0.2717
    122  N          9.7870   37.9090   33.0380 N.am  212  CYS212     -0.1970
    123  CA        10.8270   36.9400   32.9040 C.3   212  CYS212      0.1712
    124  C         11.4760   36.8330   34.2490 C.2   212  CYS212      0.2296
    125  O         11.7010   37.8200   34.9330 O.2   212  CYS212     -0.2864
    126  CB        11.7580   37.3240   31.7650 C.3   212  CYS212      0.0983
    127  SG        13.2640   38.1110   32.1620 S.3   212  CYS212     -0.0798
    128  N          7.5090   29.0520   29.7260 N.3   220  VAL220     -0.1245
    129  CA         6.6110   28.3400   28.8030 C.3   220  VAL220      0.1561
    130  C          7.2150   28.1780   27.4170 C.2   220  VAL220      0.2260
    131  O          7.7420   29.1150   26.7980 O.2   220  VAL220     -0.2867
    132  CB         5.2590   29.0190   28.7140 C.3   220  VAL220      0.0252
    133  CG1        4.2830   28.1310   27.9580 C.3   220  VAL220      0.0019
    134  CG2        4.7290   29.2940   30.1290 C.3   220  VAL220      0.0019
@<TRIPOS>BOND
     1    42    41    2
     2    41    40    1
     3    34    33    2
     4     8     6    1
     5    40    39    1
     6    40    43    1
     7    33    39   am
     8    33    32    1
     9    31    32    1
    10    32    35    1
    11    28    27    2
    12    43    44    1
    13     6     5    1
    14     6     7    1
    15     5     2    1
    16    27    26    1
    17    37    36   ar
    18    29    26    1
    19    29    30    1
    20    35    36    1
    21    45    44    1
    22    45    46    1
    23    26    25    1
    24     1     2    1
    25     2     3    1
    26    36    38   ar
    27    25    17   am
    28    12    11    2
    29    15    16    1
    30    17    18    2
    31    17    16    1
    32    47    46    1
    33     9     3   am
    34     9    10    1
    35    13    10    1
    36    13    14    1
    37    30    14    1
    38     3     4    2
    39    11    10    1
    40    16    19    1
    41    19    20    1
    42    84    83    2
    43    20    22   ar
    44    20    21   ar
    45    22    24   ar
    46    83    82    1
    47    21    23   ar
    48    24    23   ar
    49    80    79    2
    50    85    82    1
    51    85    86    1
    52   111   113   ar
    53   111   109   ar
    54    82    81    1
    55   113   112   ar
    56    90    89    2
    57   109   108   ar
    58   109   107   ar
    59    87    88    1
    60    79    78    1
    61   112   110   ar
    62   108   106   ar
    63    78    77    1
    64    89    88    1
    65    89    94   am
    66    99    98    1
    67   107   110   ar
    68   107   105   ar
    69    95    98    1
    70    95    94    1
    71    95    96    1
    72   106   105   ar
    73    88    91    1
    74    91    93    1
    75    91    92    1
    76    77    70   am
    77    75    76    1
    78    75    74    1
    79   105   104    1
    80    97    96    2
    81    96   100   am
    82    73    74    1
    83    73    72    1
    84   100   101    1
    85   104   101    1
    86    70    71    2
    87    70    69    1
    88   101   102    1
    89    69    72    1
    90    69    68    1
    91    65    64    2
    92   131   130    2
    93   102   103    2
    94   102   114   am
    95    64    68   am
    96    64    63    1
    97   130   129    1
    98   114   115    1
    99   133   132    1
   100    60    61    1
   101    60    57    1
   102    62    63    1
   103    62    58   am
   104    63    66    1
   105   132   129    1
   106   132   134    1
   107   115   116    1
   108   129   128    1
   109    57    58    1
   110    57    56    1
   111   117   116    2
   112    66    67    1
   113    58    59    2
   114    67   127    1
   115    56    50   am
   116    51    50    2
   117    50    49    1
   118   126   127    1
   119   126   123    1
   120    54    53   ar
   121   121   120    2
   122   118   119    1
   123   120   119    1
   124   120   122   am
   125    53    55   ar
   126    53    52    1
   127   123   122    1
   128   123   124    1
   129    49    52    1
   130    49    48    1
   131   124   125    2
