@<TRIPOS>MOLECULE
tmp/5pb3B00.pdb
 138 136 0 0 0
SMALL
GASTEIGER

@<TRIPOS>ATOM
      1  N         15.3780   40.6900   16.3420 N.3    25  LEU25      -0.1231
      2  CA        13.9440   40.3640   16.3580 C.3    25  LEU25       0.1693
      3  C         13.6150   39.2370   17.3280 C.2    25  LEU25       0.2592
      4  O         12.7800   39.3420   18.2350 O.2    25  LEU25      -0.2718
      5  CB        13.4810   39.9810   14.9460 C.3    25  LEU25       0.0284
      6  CG        12.0260   39.5300   14.8200 C.3    25  LEU25       0.0019
      7  CD1       11.0670   40.6500   15.2400 C.3    25  LEU25       0.0001
      8  CD2       11.7300   39.0690   13.3950 C.3    25  LEU25       0.0001
      9  N         14.3240   38.1580   17.0950 N.am   26  CYS26      -0.1970
     10  CA        14.0760   36.8790   17.7640 C.3    26  CYS26       0.1712
     11  C         15.1940   35.9030   17.5310 C.2    26  CYS26       0.2296
     12  O         16.1270   36.1430   16.7590 O.2    26  CYS26      -0.2864
     13  CB        12.7640   36.2760   17.2440 C.3    26  CYS26       0.0983
     14  SG        11.2380   36.8020   18.1060 S.3    26  CYS26      -0.0798
     15  N          4.8680   34.4240   17.0410 N.3    41  HIS41      -0.1226
     16  CA         4.5600   35.7900   17.5180 C.3    41  HIS41       0.1752
     17  C          5.6250   36.7850   17.0710 C.2    41  HIS41       0.2596
     18  O          5.4200   38.0020   17.0410 O.2    41  HIS41      -0.2718
     19  CB         4.3180   35.8400   19.0350 C.3    41  HIS41       0.0759
     20  CG         5.5630   35.8370   19.8720 C.ar   41  HIS41       0.0818
     21  ND1        5.9520   34.7440   20.6160 N.ar   41  HIS41      -0.2268
     22  CD2        6.4810   36.8030   20.1160 C.ar   41  HIS41       0.1154
     23  CE1        7.0620   35.0320   21.2730 C.ar   41  HIS41       0.1986
     24  NE2        7.4080   36.2730   20.9800 N.ar   41  HIS41      -0.2212
     25  N          6.7600   36.2370   16.6870 N.am   42  CYS42      -0.1970
     26  CA         7.9090   37.0490   16.2810 C.3    42  CYS42       0.1712
     27  C          7.5650   37.8480   15.0560 C.2    42  CYS42       0.2296
     28  O          8.2210   38.8310   14.7080 O.2    42  CYS42      -0.2864
     29  CB         9.1510   36.1840   15.9920 C.3    42  CYS42       0.0983
     30  SG         9.8850   35.4220   17.4630 S.3    42  CYS42      -0.0798
     31  N          4.3210   38.8320   14.2390 N.3    44  ASP44      -0.1225
     32  CA         2.9890   39.4570   14.4080 C.3    44  ASP44       0.1805
     33  C          2.8920   40.8390   13.7570 C.2    44  ASP44       0.2597
     34  O          1.8760   41.2250   13.1810 O.2    44  ASP44      -0.2718
     35  CB         2.6130   39.5930   15.8890 C.3    44  ASP44       0.1424
     36  CG         2.1020   38.3050   16.4850 C.2    44  ASP44       0.3668
     37  OD1        1.9230   37.3250   15.7330 O.co2  44  ASP44      -0.2456
     38  OD2        1.8810   38.2910   17.7140 O.co2  44  ASP44      -0.2456
     39  N          3.9610   41.5920   13.9140 N.am   45  LYS45      -0.1979
     40  CA         3.9470   43.0280   13.6170 C.3    45  LYS45       0.1596
     41  C          4.7930   43.3650   12.4080 C.2    45  LYS45       0.2287
     42  O          5.0370   44.5220   12.0750 O.2    45  LYS45      -0.2864
     43  CB         4.4030   43.8400   14.8340 C.3    45  LYS45       0.0298
     44  CG         3.2730   44.5800   15.5490 C.3    45  LYS45       0.0038
     45  CD         2.0670   43.7160   15.8320 C.3    45  LYS45       0.0206
     46  CE         1.1550   44.3790   16.8610 C.3    45  LYS45       0.1093
     47  NZ         1.8370   44.6240   18.1700 N.3    45  LYS45      -0.1314
     48  N         -2.5530   35.8150   16.5040 N.3    84  PRO84      -0.2102
     49  CA        -1.5720   36.8100   16.8960 C.3    84  PRO84       0.1504
     50  C         -1.8190   37.4120   18.2490 C.2    84  PRO84       0.2576
     51  O         -2.9390   37.7540   18.6280 O.2    84  PRO84      -0.2718
     52  CB        -1.6930   37.8700   15.8020 C.3    84  PRO84       0.0282
     53  CG        -2.1360   37.1140   14.6060 C.3    84  PRO84       0.0208
     54  CD        -2.9610   35.9640   15.0950 C.3    84  PRO84       0.0893
     55  N         -0.7140   37.5130   18.9530 N.am   85  GLY85      -0.1957
     56  CA        -0.6470   38.1850   20.2490 C.3    85  GLY85       0.1869
     57  C         -0.9210   37.2540   21.3950 C.2    85  GLY85       0.2309
     58  O         -1.0490   37.6590   22.5450 O.2    85  GLY85      -0.2863
     59  N         15.5670   31.7400   33.9000 N.3   182  ASP182     -0.1225
     60  CA        14.5370   31.7260   32.8550 C.3   182  ASP182      0.1805
     61  C         15.0710   32.2070   31.5250 C.2   182  ASP182      0.2598
     62  O         16.1390   32.8070   31.4270 O.2   182  ASP182     -0.2718
     63  CB        13.3610   32.6170   33.2930 C.3   182  ASP182      0.1424
     64  CG        12.0430   32.2690   32.6020 C.2   182  ASP182      0.3668
     65  OD1       11.9630   31.2610   31.8710 O.co2 182  ASP182     -0.2456
     66  OD2       11.0580   33.0150   32.8080 O.co2 182  ASP182     -0.2456
     67  N         14.3020   31.9060   30.5040 N.am  183  SER183     -0.1938
     68  CA        14.4340   32.6180   29.2370 C.3   183  SER183      0.2055
     69  C         13.6120   33.8820   29.3650 C.2   183  SER183      0.2643
     70  O         12.7760   34.0490   30.2650 O.2   183  SER183     -0.2714
     71  CB        14.0060   31.7920   28.0370 C.3   183  SER183      0.2130
     72  OG        12.6680   31.4060   28.1630 O.3   183  SER183     -0.2179
     73  N         13.8910   34.7810   28.4500 N.am  184  CYS184     -0.1953
     74  CA        13.4210   36.1670   28.5710 C.3   184  CYS184      0.1843
     75  C         13.2010   36.8280   27.2380 C.2   184  CYS184      0.2625
     76  O         13.5150   36.3060   26.1790 O.2   184  CYS184     -0.2714
     77  CB        14.4250   36.9920   29.3930 C.3   184  CYS184      0.0997
     78  SG        13.7460   38.5180   30.1300 S.3   184  CYS184     -0.0797
     79  N         12.6520   38.0200   27.3240 N.am  185  LYS185     -0.1963
     80  CA        12.4030   38.8140   26.1170 C.3   185  LYS185      0.1728
     81  C         13.6920   38.9140   25.3260 C.2   185  LYS185      0.2616
     82  O         14.7570   39.2370   25.8460 O.2   185  LYS185     -0.2715
     83  CB        11.8660   40.2090   26.4610 C.3   185  LYS185      0.0311
     84  CG        11.4950   41.0500   25.2620 C.3   185  LYS185      0.0038
     85  CD        10.5950   42.1910   25.7300 C.3   185  LYS185      0.0206
     86  CE        10.5260   43.3160   24.7370 C.3   185  LYS185      0.1093
     87  NZ         9.9840   44.5670   25.3950 N.3   185  LYS185     -0.1314
     88  N         13.5630   38.5940   24.0580 N.am  186  GLY186     -0.1955
     89  CA        14.6830   38.6120   23.1220 C.3   186  GLY186      0.1869
     90  C         15.1390   37.2260   22.7460 C.2   186  GLY186      0.2309
     91  O         15.8790   37.0370   21.7910 O.2   186  GLY186     -0.2863
     92  N         12.8610   34.6740   22.4170 N.3   188  SER188     -0.1217
     93  CA        11.7320   33.9820   21.7970 C.3   188  SER188      0.1889
     94  C         12.1670   33.4250   20.4570 C.2   188  SER188      0.2288
     95  O         12.8530   34.0720   19.6740 O.2   188  SER188     -0.2866
     96  CB        10.5090   34.9040   21.6250 C.3   188  SER188      0.2089
     97  OG         9.8940   35.1940   22.8730 O.3   188  SER188     -0.2183
     98  N         11.1430   28.6100   22.6000 N.3   206  VAL206     -0.1231
     99  CA        10.9230   29.7150   23.5470 C.3   206  VAL206      0.1692
    100  C          9.7550   30.5470   23.0310 C.2   206  VAL206      0.2593
    101  O          9.7840   31.1220   21.9500 O.2   206  VAL206     -0.2718
    102  CB        12.1600   30.6240   23.7330 C.3   206  VAL206      0.0266
    103  CG1       11.8570   31.7200   24.7570 C.3   206  VAL206      0.0020
    104  CG2       13.3980   29.8260   24.1700 C.3   206  VAL206      0.0020
    105  N          8.7090   30.5620   23.8270 N.am  207  SER207     -0.1938
    106  CA         7.5120   31.3290   23.5080 C.3   207  SER207      0.2055
    107  C          7.6300   32.6640   24.1920 C.2   207  SER207      0.2643
    108  O          8.6620   33.3170   24.1490 O.2   207  SER207     -0.2714
    109  CB         6.2370   30.6010   23.9410 C.3   207  SER207      0.2130
    110  OG         5.0900   31.1860   23.3480 O.3   207  SER207     -0.2179
    111  N          6.5470   33.0590   24.8280 N.am  208  TRP208     -0.1959
    112  CA         6.5260   34.3270   25.5820 C.3   208  TRP208      0.1771
    113  C          5.4840   34.3860   26.6740 C.2   208  TRP208      0.2620
    114  O          4.6270   33.5180   26.8310 O.2   208  TRP208     -0.2715
    115  CB         6.4090   35.5510   24.6570 C.3   208  TRP208      0.0590
    116  CG         5.1920   35.6100   23.7840 C.ar  208  TRP208      0.0006
    117  CD1        4.3970   34.5710   23.4050 C.ar  208  TRP208      0.0946
    118  CD2        4.6670   36.7730   23.1330 C.ar  208  TRP208      0.0152
    119  NE1        3.3940   35.0180   22.5830 N.ar  208  TRP208     -0.2442
    120  CE2        3.5380   36.3670   22.3990 C.ar  208  TRP208      0.0810
    121  CE3        5.0330   38.1230   23.1160 C.ar  208  TRP208      0.0012
    122  CZ2        2.7820   37.2540   21.6520 C.ar  208  TRP208      0.0191
    123  CZ3        4.2810   39.0030   22.3690 C.ar  208  TRP208      0.0001
    124  CH2        3.1700   38.5680   21.6460 C.ar  208  TRP208      0.0015
    125  N          5.6630   35.4300   27.4510 N.am  209  GLY209     -0.1954
    126  CA         4.8360   35.7540   28.6240 C.3   209  GLY209      0.1869
    127  C          5.1430   37.1370   29.1410 C.2   209  GLY209      0.2309
    128  O          5.9590   37.8550   28.5800 O.2   209  GLY209     -0.2863
    129  N          6.9080   39.3650   31.5480 N.3   211  GLY211     -0.1210
    130  CA         8.1290   39.3110   32.3410 C.3   211  GLY211      0.1956
    131  C          8.8490   38.0070   32.1970 C.2   211  GLY211      0.2612
    132  O          8.4760   37.0900   31.4770 O.2   211  GLY211     -0.2717
    133  N          9.9350   37.9920   32.9130 N.am  212  CYS212     -0.1970
    134  CA        10.8860   36.8830   32.9640 C.3   212  CYS212      0.1712
    135  C         11.2870   36.6170   34.3780 C.2   212  CYS212      0.2296
    136  O         11.3860   37.5510   35.1520 O.2   212  CYS212     -0.2864
    137  CB        12.1530   37.2690   32.2250 C.3   212  CYS212      0.0983
    138  SG        11.8730   38.0230   30.6490 S.3   212  CYS212     -0.0798
@<TRIPOS>BOND
     1    42    41    2
     2    41    40    1
     3    34    33    2
     4     8     6    1
     5    40    39    1
     6    40    43    1
     7    33    39   am
     8    33    32    1
     9    31    32    1
    10    32    35    1
    11    53    54    1
    12    53    52    1
    13    28    27    2
    14     6     5    1
    15     6     7    1
    16    43    44    1
    17     5     2    1
    18    27    26    1
    19    54    48    1
    20    44    45    1
    21    37    36   ar
    22    52    49    1
    23    45    46    1
    24    35    36    1
    25    29    26    1
    26    29    30    1
    27    26    25    1
    28     1     2    1
    29     2     3    1
    30    36    38   ar
    31    48    49    1
    32    25    17   am
    33    12    11    2
    34    46    47    1
    35    49    50    1
    36    18    17    2
    37    15    16    1
    38    17    16    1
    39     9     3   am
    40     9    10    1
    41    13    10    1
    42    13    14    1
    43     3     4    2
    44    30    14    1
    45    16    19    1
    46    11    10    1
    47    50    51    2
    48    50    55   am
    49    55    56    1
    50    19    20    1
    51    95    94    2
    52    20    22   ar
    53    20    21   ar
    54    22    24   ar
    55    56    57    1
    56    94    93    1
    57    21    23   ar
    58    24    23   ar
    59    57    58    2
    60    96    93    1
    61    96    97    1
    62   124   122   ar
    63   124   123   ar
    64   122   120   ar
    65    91    90    2
    66    93    92    1
    67   101   100    2
    68   123   121   ar
    69   120   119   ar
    70   120   118   ar
    71   119   117   ar
    72    98    99    1
    73    90    89    1
    74   100    99    1
    75   100   105   am
    76   121   118   ar
    77    89    88    1
    78   118   116   ar
    79   110   109    1
    80   117   116   ar
    81   106   105    1
    82   106   109    1
    83   106   107    1
    84    99   102    1
    85   102   104    1
    86   102   103    1
    87   116   115    1
    88    88    81   am
    89   108   107    2
    90   107   111   am
    91   115   112    1
    92    86    87    1
    93    86    85    1
    94   111   112    1
    95    84    85    1
    96    84    83    1
    97    81    82    2
    98    81    80    1
    99   112   113    1
   100    80    83    1
   101    80    79    1
   102    76    75    2
   103   113   114    2
   104   113   125   am
   105    75    79   am
   106    75    74    1
   107   125   126    1
   108    71    72    1
   109    71    68    1
   110    73    74    1
   111    73    69   am
   112    74    77    1
   113   128   127    2
   114   126   127    1
   115    68    69    1
   116    68    67    1
   117    69    70    2
   118    77    78    1
   119    78   138    1
   120    67    61   am
   121   138   137    1
   122    62    61    2
   123   132   131    2
   124    61    60    1
   125   129   130    1
   126    65    64   ar
   127   131   130    1
   128   131   133   am
   129   137   134    1
   130    64    66   ar
   131    64    63    1
   132    60    63    1
   133    60    59    1
   134   133   134    1
   135   134   135    1
   136   135   136    2
