@<TRIPOS>MOLECULE
tmp/5pb9A00.pdb
 98 96 0 0 0
SMALL
GASTEIGER

@<TRIPOS>ATOM
      1  N         11.5820   30.2640   32.1330 N.3    32  TRP32      -0.1228
      2  CA        10.6220   31.0450   31.3450 C.3    32  TRP32       0.1722
      3  C         11.1550   32.3630   30.7490 C.2    32  TRP32       0.2437
      4  O         10.6800   32.7740   29.6860 O.2    32  TRP32      -0.2733
      5  CB         9.3540   31.3300   32.1730 C.3    32  TRP32       0.0563
      6  CG         9.6080   32.0090   33.4610 C.ar   32  TRP32       0.0003
      7  CD1        9.7940   31.4130   34.6760 C.ar   32  TRP32       0.0946
      8  CD2        9.6990   33.4230   33.6850 C.ar   32  TRP32       0.0152
      9  NE1       10.0130   32.3700   35.6380 N.ar   32  TRP32      -0.2442
     10  CE2        9.9570   33.6110   35.0570 C.ar   32  TRP32       0.0810
     11  CE3        9.5970   34.5460   32.8540 C.ar   32  TRP32       0.0012
     12  CZ2       10.1150   34.8800   35.6230 C.ar   32  TRP32       0.0191
     13  CZ3        9.7560   35.8060   33.4170 C.ar   32  TRP32       0.0001
     14  CH2       10.0070   35.9610   34.7900 C.ar   32  TRP32       0.0015
     15  N         12.1250   33.0380   31.4040 N.am   33  PRO33      -0.2718
     16  CA        12.6030   34.2660   30.7480 C.3    33  PRO33       0.1535
     17  C         13.4620   33.9900   29.5160 C.2    33  PRO33       0.2598
     18  O         13.7200   34.9230   28.7590 O.2    33  PRO33      -0.2715
     19  CB        13.4630   34.9560   31.8290 C.3    33  PRO33       0.0310
     20  CG        13.1410   34.2290   33.1330 C.3    33  PRO33       0.0237
     21  CD        12.7610   32.8320   32.7210 C.3    33  PRO33       0.0939
     22  N         13.8870   32.7380   29.3320 N.am   34  PHE34      -0.1974
     23  CA        14.9510   32.3930   28.3750 C.3    34  PHE34       0.1639
     24  C         14.4970   31.4810   27.2270 C.2    34  PHE34       0.2290
     25  O         15.2980   31.0940   26.3710 O.2    34  PHE34      -0.2864
     26  CB        16.1110   31.7260   29.1410 C.3    34  PHE34       0.0560
     27  CG        16.4990   32.4670   30.4010 C.ar   34  PHE34      -0.0200
     28  CD1       17.0370   33.7530   30.3290 C.ar   34  PHE34      -0.0042
     29  CD2       16.3120   31.8920   31.6500 C.ar   34  PHE34      -0.0042
     30  CE1       17.3740   34.4530   31.4750 C.ar   34  PHE34      -0.0003
     31  CE2       16.6520   32.5850   32.8090 C.ar   34  PHE34      -0.0003
     32  CZ        17.1820   33.8660   32.7200 C.ar   34  PHE34      -0.0000
     33  N         14.1560   37.6140   23.3450 N.3    38  VAL38      -0.1245
     34  CA        13.5630   38.8360   23.8710 C.3    38  VAL38       0.1561
     35  C         13.0030   39.6150   22.6920 C.2    38  VAL38       0.2260
     36  O         13.6570   39.7240   21.6500 O.2    38  VAL38      -0.2867
     37  CB        14.5890   39.6930   24.6380 C.3    38  VAL38       0.0252
     38  CG1       13.9930   41.0630   25.0000 C.3    38  VAL38       0.0019
     39  CG2       15.0830   38.9490   25.8850 C.3    38  VAL38       0.0019
     40  N         10.6990   45.5290   24.2470 N.3    43  VAL43      -0.1245
     41  CA        11.4970   45.6770   25.4540 C.3    43  VAL43       0.1561
     42  C         12.5120   46.7860   25.2390 C.2    43  VAL43       0.2260
     43  O         13.5290   46.5840   24.5760 O.2    43  VAL43      -0.2867
     44  CB        12.2080   44.3600   25.8410 C.3    43  VAL43       0.0252
     45  CG1       13.1300   44.5740   27.0300 C.3    43  VAL43       0.0019
     46  CG2       11.1800   43.2720   26.1440 C.3    43  VAL43       0.0019
     47  N         16.7920   46.9060   25.0420 N.3    46  TYR46      -0.1241
     48  CA        17.4540   45.6000   24.8460 C.3    46  TYR46       0.1605
     49  C         18.2940   45.5640   23.5730 C.2    46  TYR46       0.2264
     50  O         19.4390   45.0970   23.5850 O.2    46  TYR46      -0.2867
     51  CB        16.4360   44.4480   24.8270 C.3    46  TYR46       0.0534
     52  CG        17.0780   43.1350   25.2460 C.ar   46  TYR46      -0.0201
     53  CD1       17.1440   42.7750   26.5850 C.ar   46  TYR46      -0.0009
     54  CD2       17.6730   42.2900   24.3080 C.ar   46  TYR46      -0.0009
     55  CE1       17.7620   41.5880   26.9830 C.ar   46  TYR46       0.0417
     56  CE2       18.2880   41.0970   24.6940 C.ar   46  TYR46       0.0417
     57  CZ        18.3310   40.7550   26.0330 C.ar   46  TYR46       0.1957
     58  OH        18.9430   39.5770   26.4400 O.3    46  TYR46      -0.2866
     59  N         23.5610   33.4310   27.2160 N.3    81  VAL81      -0.1245
     60  CA        22.2080   33.6770   27.7300 C.3    81  VAL81       0.1561
     61  C         22.2850   34.2880   29.1440 C.2    81  VAL81       0.2260
     62  O         21.6510   35.3050   29.4350 O.2    81  VAL81      -0.2867
     63  CB        21.3720   32.3820   27.7760 C.3    81  VAL81       0.0252
     64  CG1       20.0250   32.6200   28.5120 C.3    81  VAL81       0.0019
     65  CG2       21.1050   31.8380   26.3580 C.3    81  VAL81       0.0019
     66  N         21.6440   38.1220   30.6330 N.3    85  CYS85      -0.1235
     67  CA        20.6960   38.3120   31.7290 C.3    85  CYS85       0.1677
     68  C         21.2870   39.1760   32.8410 C.2    85  CYS85       0.2270
     69  O         20.6210   40.0850   33.3530 O.2    85  CYS85      -0.2867
     70  CB        20.2500   36.9560   32.2980 C.3    85  CYS85       0.0956
     71  SG        18.9550   37.0460   33.5970 S.3    85  CYS85      -0.0801
     72  N         21.5100   42.9580   31.8820 N.3    88  PHE88      -0.1227
     73  CA        20.2650   43.7110   31.7320 C.3    88  PHE88       0.1736
     74  C         19.3490   43.6940   32.9640 C.2    88  PHE88       0.2595
     75  O         18.4120   44.4990   33.0540 O.2    88  PHE88      -0.2718
     76  CB        19.4960   43.1730   30.5210 C.3    88  PHE88       0.0547
     77  CG        18.4740   44.1410   29.9580 C.ar   88  PHE88      -0.0202
     78  CD1       18.8680   45.1730   29.1170 C.ar   88  PHE88      -0.0042
     79  CD2       17.1290   43.9950   30.2400 C.ar   88  PHE88      -0.0042
     80  CE1       17.9300   46.0620   28.5800 C.ar   88  PHE88      -0.0003
     81  CE2       16.1880   44.8670   29.7060 C.ar   88  PHE88      -0.0003
     82  CZ        16.5950   45.9060   28.8760 C.ar   88  PHE88      -0.0000
     83  N         19.5980   42.7830   33.9030 N.am   89  ASN89      -0.1974
     84  CA        18.7190   42.6420   35.0610 C.3    89  ASN89       0.1688
     85  C         19.4550   42.7670   36.3980 C.2    89  ASN89       0.2292
     86  O         20.5810   42.2920   36.5500 O.2    89  ASN89      -0.2864
     87  CB        17.9840   41.2980   35.0300 C.3    89  ASN89       0.1181
     88  CG        17.1270   41.1220   33.7860 C.2    89  ASN89       0.2629
     89  OD1       15.9510   41.5110   33.7550 O.2    89  ASN89      -0.2716
     90  ND2       17.7050   40.5120   32.7610 N.am   89  ASN89      -0.0877
     91  N         13.7420   37.9020   37.2010 N.3    95  ILE95      -0.1245
     92  CA        14.5150   37.4390   36.0430 C.3    95  ILE95       0.1561
     93  C         15.9920   37.3010   36.4110 C.2    95  ILE95       0.2260
     94  O         16.6570   36.3280   36.0280 O.2    95  ILE95      -0.2867
     95  CB        14.3490   38.3890   34.8340 C.3    95  ILE95       0.0252
     96  CG1       12.8900   38.3670   34.3590 C.3    95  ILE95       0.0019
     97  CG2       15.2690   37.9680   33.6840 C.3    95  ILE95       0.0019
     98  CD1       12.6000   39.2890   33.1740 C.3    95  ILE95       0.0001
@<TRIPOS>BOND
     1    36    35    2
     2    35    34    1
     3    33    34    1
     4    49    50    2
     5    49    48    1
     6    34    37    1
     7    40    41    1
     8    54    56   ar
     9    54    52   ar
    10    43    42    2
    11    37    38    1
    12    37    39    1
    13    56    57   ar
    14    51    48    1
    15    51    52    1
    16    48    47    1
    17    42    41    1
    18    52    53   ar
    19    41    44    1
    20    44    46    1
    21    44    45    1
    22    57    58    1
    23    57    55   ar
    24    65    63    1
    25    25    24    2
    26    53    55   ar
    27    59    60    1
    28    24    23    1
    29    60    63    1
    30    60    61    1
    31    63    64    1
    32    23    26    1
    33    23    22    1
    34    80    82   ar
    35    80    78   ar
    36    18    17    2
    37    82    81   ar
    38    78    77   ar
    39    26    27    1
    40    61    62    2
    41    22    17   am
    42    17    16    1
    43     4     3    2
    44    81    79   ar
    45    77    79   ar
    46    77    76    1
    47    28    27   ar
    48    28    30   ar
    49    27    29   ar
    50    76    73    1
    51    66    67    1
    52    16    15    1
    53    16    19    1
    54     3     2    1
    55     3    15   am
    56     2     1    1
    57     2     5    1
    58    15    21    1
    59    30    32   ar
    60    29    31   ar
    61    67    70    1
    62    67    68    1
    63    73    72    1
    64    73    74    1
    65    19    20    1
    66     5     6    1
    67    70    71    1
    68    32    31   ar
    69    21    20    1
    70    90    88   am
    71    68    69    2
    72    11    13   ar
    73    11     8   ar
    74    74    75    2
    75    74    83   am
    76    98    96    1
    77    13    14   ar
    78     6     8   ar
    79     6     7   ar
    80    97    95    1
    81     8    10   ar
    82    89    88    2
    83    88    87    1
    84    83    84    1
    85    96    95    1
    86     7     9   ar
    87    14    12   ar
    88    95    92    1
    89    87    84    1
    90    10    12   ar
    91    10     9   ar
    92    84    85    1
    93    94    93    2
    94    92    93    1
    95    92    91    1
    96    85    86    2
