@<TRIPOS>MOLECULE
tmp/5pbdA00.pdb
 91 88 0 0 0
SMALL
GASTEIGER

@<TRIPOS>ATOM
      1  N         12.2290   32.8960   31.6190 N.3    33  PRO33      -0.2102
      2  CA        12.7210   34.1110   30.9460 C.3    33  PRO33       0.1504
      3  C         13.5760   33.8380   29.7130 C.2    33  PRO33       0.2575
      4  O         13.8760   34.7920   28.9840 O.2    33  PRO33      -0.2718
      5  CB        13.6000   34.7990   32.0110 C.3    33  PRO33       0.0282
      6  CG        13.2540   34.1300   33.3110 C.3    33  PRO33       0.0208
      7  CD        12.8400   32.7410   32.9550 C.3    33  PRO33       0.0893
      8  N         13.9810   32.5800   29.5140 N.am   34  PHE34      -0.1977
      9  CA        15.0230   32.2340   28.5430 C.3    34  PHE34       0.1639
     10  C         14.5610   31.3130   27.4160 C.2    34  PHE34       0.2290
     11  O         15.3650   30.9410   26.5540 O.2    34  PHE34      -0.2864
     12  CB        16.2060   31.5880   29.2900 C.3    34  PHE34       0.0560
     13  CG        16.5880   32.3320   30.5300 C.ar   34  PHE34      -0.0200
     14  CD1       17.0750   33.6300   30.4460 C.ar   34  PHE34      -0.0042
     15  CD2       16.4040   31.7560   31.7920 C.ar   34  PHE34      -0.0042
     16  CE1       17.3980   34.3540   31.6080 C.ar   34  PHE34      -0.0003
     17  CE2       16.7330   32.4690   32.9520 C.ar   34  PHE34      -0.0003
     18  CZ        17.2340   33.7570   32.8600 C.ar   34  PHE34      -0.0000
     19  N         14.1020   37.5420   23.6050 N.3    38  VAL38      -0.1245
     20  CA        13.5080   38.7560   24.1560 C.3    38  VAL38       0.1561
     21  C         12.9050   39.5620   23.0080 C.2    38  VAL38       0.2260
     22  O         13.5480   39.7310   21.9710 O.2    38  VAL38      -0.2867
     23  CB        14.5560   39.6060   24.9020 C.3    38  VAL38       0.0252
     24  CG1       13.9580   40.9500   25.3430 C.3    38  VAL38       0.0019
     25  CG2       15.1260   38.8330   26.0780 C.3    38  VAL38       0.0019
     26  N         10.5860   45.5170   24.4030 N.3    43  VAL43      -0.1231
     27  CA        11.3820   45.6840   25.6160 C.3    43  VAL43       0.1678
     28  C         12.3890   46.7970   25.4080 C.2    43  VAL43       0.2434
     29  O         13.3830   46.6270   24.6980 O.2    43  VAL43      -0.2733
     30  CB        12.1020   44.3840   26.0290 C.3    43  VAL43       0.0265
     31  CG1       12.9750   44.6240   27.2490 C.3    43  VAL43       0.0020
     32  CG2       11.0900   43.2900   26.3180 C.3    43  VAL43       0.0020
     33  N         12.1150   47.9580   26.0200 N.am   44  PRO44      -0.2729
     34  CA        12.9510   49.1550   25.8860 C.3    44  PRO44       0.1401
     35  C         14.4050   48.8820   26.2430 C.2    44  PRO44       0.2269
     36  O         14.6850   48.2160   27.2380 O.2    44  PRO44      -0.2865
     37  CB        12.3230   50.1390   26.8880 C.3    44  PRO44       0.0296
     38  CG        10.9160   49.6790   27.0450 C.3    44  PRO44       0.0237
     39  CD        10.9660   48.1820   26.9170 C.3    44  PRO44       0.0939
     40  N         16.6760   46.9680   25.1760 N.3    46  TYR46      -0.1241
     41  CA        17.3150   45.6590   24.9980 C.3    46  TYR46       0.1605
     42  C         18.1690   45.5970   23.7320 C.2    46  TYR46       0.2264
     43  O         19.3050   45.1060   23.7700 O.2    46  TYR46      -0.2867
     44  CB        16.2840   44.5180   24.9870 C.3    46  TYR46       0.0534
     45  CG        16.9270   43.2180   25.4310 C.ar   46  TYR46      -0.0201
     46  CD1       17.0810   42.9340   26.7800 C.ar   46  TYR46      -0.0009
     47  CD2       17.4350   42.3080   24.5050 C.ar   46  TYR46      -0.0009
     48  CE1       17.7040   41.7580   27.2100 C.ar   46  TYR46       0.0417
     49  CE2       18.0600   41.1220   24.9250 C.ar   46  TYR46       0.0417
     50  CZ        18.1900   40.8560   26.2760 C.ar   46  TYR46       0.1957
     51  OH        18.8120   39.6930   26.7130 O.3    46  TYR46      -0.2866
     52  N         23.5270   33.4970   27.3520 N.3    81  VAL81      -0.1245
     53  CA        22.1740   33.7200   27.8710 C.3    81  VAL81       0.1561
     54  C         22.2280   34.3230   29.2800 C.2    81  VAL81       0.2260
     55  O         21.5320   35.3090   29.5810 O.2    81  VAL81      -0.2867
     56  CB        21.3550   32.4210   27.9120 C.3    81  VAL81       0.0252
     57  CG1       19.9850   32.6630   28.5870 C.3    81  VAL81       0.0019
     58  CG2       21.1830   31.8390   26.4870 C.3    81  VAL81       0.0019
     59  N         21.6180   38.1630   30.7870 N.3    85  CYS85      -0.1235
     60  CA        20.6210   38.3400   31.8430 C.3    85  CYS85       0.1677
     61  C         21.1890   39.2110   32.9610 C.2    85  CYS85       0.2270
     62  O         20.5000   40.0990   33.4750 O.2    85  CYS85      -0.2867
     63  CB        20.1690   36.9830   32.3980 C.3    85  CYS85       0.0956
     64  SG        18.9040   37.0270   33.7140 S.3    85  CYS85      -0.0801
     65  N         21.3790   43.0030   31.9980 N.3    88  PHE88      -0.1227
     66  CA        20.1370   43.7490   31.8420 C.3    88  PHE88       0.1736
     67  C         19.2270   43.7450   33.0700 C.2    88  PHE88       0.2595
     68  O         18.3140   44.5660   33.1740 O.2    88  PHE88      -0.2718
     69  CB        19.3590   43.2010   30.6440 C.3    88  PHE88       0.0547
     70  CG        18.3570   44.1690   30.0760 C.ar   88  PHE88      -0.0202
     71  CD1       18.7650   45.1620   29.1950 C.ar   88  PHE88      -0.0042
     72  CD2       17.0090   44.0680   30.3880 C.ar   88  PHE88      -0.0042
     73  CE1       17.8460   46.0550   28.6510 C.ar   88  PHE88      -0.0003
     74  CE2       16.0880   44.9520   29.8460 C.ar   88  PHE88      -0.0003
     75  CZ        16.5110   45.9440   28.9730 C.ar   88  PHE88      -0.0000
     76  N         19.4550   42.8170   33.9890 N.am   89  ASN89      -0.1974
     77  CA        18.5320   42.6290   35.1040 C.3    89  ASN89       0.1688
     78  C         19.2140   42.7920   36.4570 C.2    89  ASN89       0.2292
     79  O         20.3600   42.3850   36.6350 O.2    89  ASN89      -0.2864
     80  CB        17.8770   41.2500   35.0370 C.3    89  ASN89       0.1181
     81  CG        17.0270   41.0660   33.7970 C.2    89  ASN89       0.2629
     82  OD1       15.8560   41.4490   33.7700 O.2    89  ASN89      -0.2716
     83  ND2       17.6110   40.4640   32.7580 N.am   89  ASN89      -0.0877
     84  N         13.7490   37.7160   37.3700 N.3    95  ILE95      -0.1245
     85  CA        14.5100   37.2840   36.2020 C.3    95  ILE95       0.1561
     86  C         15.9940   37.1910   36.5410 C.2    95  ILE95       0.2260
     87  O         16.6700   36.2220   36.1640 O.2    95  ILE95      -0.2867
     88  CB        14.2700   38.2260   35.0140 C.3    95  ILE95       0.0252
     89  CG1       12.8250   38.0380   34.5250 C.3    95  ILE95       0.0019
     90  CG2       15.2710   37.9600   33.8800 C.3    95  ILE95       0.0019
     91  CD1       12.4740   38.8470   33.3080 C.3    95  ILE95       0.0001
@<TRIPOS>BOND
     1    22    21    2
     2    21    20    1
     3    19    20    1
     4    42    43    2
     5    42    41    1
     6    20    23    1
     7    26    27    1
     8    47    49   ar
     9    47    45   ar
    10    29    28    2
    11    23    24    1
    12    23    25    1
    13    49    50   ar
    14    44    41    1
    15    44    45    1
    16    41    40    1
    17    28    27    1
    18    28    33   am
    19    45    46   ar
    20    27    30    1
    21    34    33    1
    22    34    35    1
    23    34    37    1
    24    33    39    1
    25    30    32    1
    26    30    31    1
    27    35    36    2
    28    50    51    1
    29    50    48   ar
    30    58    56    1
    31    11    10    2
    32    46    48   ar
    33    37    38    1
    34    39    38    1
    35    52    53    1
    36    10     9    1
    37    53    56    1
    38    53    54    1
    39    56    57    1
    40     9    12    1
    41     9     8    1
    42    73    75   ar
    43    73    71   ar
    44    75    74   ar
    45     4     3    2
    46    71    70   ar
    47    54    55    2
    48    12    13    1
    49     8     3   am
    50     3     2    1
    51    74    72   ar
    52    70    72   ar
    53    70    69    1
    54    14    13   ar
    55    14    16   ar
    56    13    15   ar
    57    69    66    1
    58    59    60    1
    59     2     1    1
    60     2     5    1
    61    16    18   ar
    62     1     7    1
    63    15    17   ar
    64    66    65    1
    65    66    67    1
    66    60    63    1
    67    60    61    1
    68     5     6    1
    69    63    64    1
    70    83    81   am
    71    18    17   ar
    72     7     6    1
    73    61    62    2
    74    67    68    2
    75    67    76   am
    76    91    89    1
    77    82    81    2
    78    81    80    1
    79    90    88    1
    80    76    77    1
    81    89    88    1
    82    88    85    1
    83    80    77    1
    84    77    78    1
    85    87    86    2
    86    85    86    1
    87    85    84    1
    88    78    79    2
