@<TRIPOS>MOLECULE
tmp/5pbeA00.pdb
 84 80 0 0 0
SMALL
GASTEIGER

@<TRIPOS>ATOM
      1  N         12.1370   32.7630   31.4690 N.3    33  PRO33      -0.2102
      2  CA        12.5740   34.0130   30.8160 C.3    33  PRO33       0.1504
      3  C         13.4420   33.7810   29.5820 C.2    33  PRO33       0.2575
      4  O         13.6420   34.7170   28.7880 O.2    33  PRO33      -0.2718
      5  CB        13.4070   34.7210   31.9040 C.3    33  PRO33       0.0282
      6  CG        13.0340   34.0160   33.2120 C.3    33  PRO33       0.0208
      7  CD        12.7610   32.5910   32.7930 C.3    33  PRO33       0.0893
      8  N         13.9450   32.5540   29.4340 N.am   34  PHE34      -0.1977
      9  CA        15.0190   32.2540   28.4770 C.3    34  PHE34       0.1639
     10  C         14.5750   31.3390   27.3270 C.2    34  PHE34       0.2290
     11  O         15.3750   31.0050   26.4630 O.2    34  PHE34      -0.2864
     12  CB        16.2190   31.6180   29.2260 C.3    34  PHE34       0.0560
     13  CG        16.6080   32.3640   30.4810 C.ar   34  PHE34      -0.0200
     14  CD1       17.1140   33.6530   30.4000 C.ar   34  PHE34      -0.0042
     15  CD2       16.4310   31.7940   31.7440 C.ar   34  PHE34      -0.0042
     16  CE1       17.4450   34.3640   31.5520 C.ar   34  PHE34      -0.0003
     17  CE2       16.7660   32.4960   32.9020 C.ar   34  PHE34      -0.0003
     18  CZ        17.2760   33.7850   32.8060 C.ar   34  PHE34      -0.0000
     19  N         14.1100   37.5960   23.4850 N.3    38  VAL38      -0.1245
     20  CA        13.4820   38.8080   24.0140 C.3    38  VAL38       0.1561
     21  C         12.9350   39.6250   22.8380 C.2    38  VAL38       0.2260
     22  O         13.5980   39.7620   21.8050 O.2    38  VAL38      -0.2867
     23  CB        14.4730   39.6560   24.8380 C.3    38  VAL38       0.0252
     24  CG1       13.8160   40.9710   25.2690 C.3    38  VAL38       0.0019
     25  CG2       14.9720   38.8770   26.0520 C.3    38  VAL38       0.0019
     26  N         10.5430   45.6920   24.2810 N.3    43  VAL43      -0.1245
     27  CA        11.3080   45.8960   25.5080 C.3    43  VAL43       0.1561
     28  C         12.3140   47.0360   25.3340 C.2    43  VAL43       0.2260
     29  O         13.3240   46.8890   24.6500 O.2    43  VAL43      -0.2867
     30  CB        12.0430   44.6110   25.9300 C.3    43  VAL43       0.0252
     31  CG1       12.8860   44.8630   27.1650 C.3    43  VAL43       0.0019
     32  CG2       11.0340   43.4750   26.1830 C.3    43  VAL43       0.0019
     33  N         16.6700   47.1180   25.1700 N.3    46  TYR46      -0.1241
     34  CA        17.3250   45.8120   24.9910 C.3    46  TYR46       0.1605
     35  C         18.1640   45.7590   23.7120 C.2    46  TYR46       0.2264
     36  O         19.3050   45.2810   23.7380 O.2    46  TYR46      -0.2867
     37  CB        16.2960   44.6550   25.0040 C.3    46  TYR46       0.0534
     38  CG        16.9330   43.3470   25.4450 C.ar   46  TYR46      -0.0201
     39  CD1       17.0110   43.0080   26.7930 C.ar   46  TYR46      -0.0009
     40  CD2       17.4860   42.4770   24.5160 C.ar   46  TYR46      -0.0009
     41  CE1       17.6230   41.8110   27.2120 C.ar   46  TYR46       0.0417
     42  CE2       18.1040   41.2730   24.9220 C.ar   46  TYR46       0.0417
     43  CZ        18.1720   40.9510   26.2620 C.ar   46  TYR46       0.1957
     44  OH        18.8000   39.7690   26.6570 O.3    46  TYR46      -0.2866
     45  N         23.6670   33.6540   27.3350 N.3    81  VAL81      -0.1245
     46  CA        22.2980   33.8660   27.8070 C.3    81  VAL81       0.1561
     47  C         22.3370   34.4620   29.2220 C.2    81  VAL81       0.2260
     48  O         21.6270   35.4360   29.5260 O.2    81  VAL81      -0.2867
     49  CB        21.4760   32.5460   27.8180 C.3    81  VAL81       0.0252
     50  CG1       20.1090   32.7430   28.5270 C.3    81  VAL81       0.0019
     51  CG2       21.2700   31.9880   26.3740 C.3    81  VAL81       0.0019
     52  N         21.6220   38.3190   30.7680 N.3    85  CYS85      -0.1235
     53  CA        20.6140   38.4670   31.8250 C.3    85  CYS85       0.1677
     54  C         21.1610   39.3170   32.9860 C.2    85  CYS85       0.2270
     55  O         20.4630   40.1970   33.5100 O.2    85  CYS85      -0.2867
     56  CB        20.1610   37.0870   32.3250 C.3    85  CYS85       0.0956
     57  SG        18.8830   37.0990   33.6530 S.3    85  CYS85      -0.0801
     58  N         21.2840   43.1560   32.0610 N.3    88  PHE88      -0.1227
     59  CA        20.0290   43.9050   31.8970 C.3    88  PHE88       0.1736
     60  C         19.1100   43.8800   33.1290 C.2    88  PHE88       0.2595
     61  O         18.2150   44.7170   33.2550 O.2    88  PHE88      -0.2718
     62  CB        19.2680   43.3650   30.6800 C.3    88  PHE88       0.0547
     63  CG        18.2420   44.3170   30.1240 C.ar   88  PHE88      -0.0202
     64  CD1       18.6290   45.3790   29.3190 C.ar   88  PHE88      -0.0042
     65  CD2       16.8930   44.1330   30.3760 C.ar   88  PHE88      -0.0042
     66  CE1       17.6780   46.2590   28.7800 C.ar   88  PHE88      -0.0003
     67  CE2       15.9420   45.0000   29.8390 C.ar   88  PHE88      -0.0003
     68  CZ        16.3420   46.0650   29.0410 C.ar   88  PHE88      -0.0000
     69  N         19.3250   42.9310   34.0370 N.am   89  ASN89      -0.1974
     70  CA        18.3930   42.7220   35.1460 C.3    89  ASN89       0.1688
     71  C         19.0510   42.8530   36.5190 C.2    89  ASN89       0.2292
     72  O         20.1700   42.3800   36.7280 O.2    89  ASN89      -0.2864
     73  CB        17.7370   41.3430   35.0430 C.3    89  ASN89       0.1181
     74  CG        16.9260   41.1690   33.7640 C.2    89  ASN89       0.2629
     75  OD1       15.7690   41.5990   33.6840 O.2    89  ASN89      -0.2716
     76  ND2       17.5260   40.5290   32.7610 N.am   89  ASN89      -0.0877
     77  N         13.6220   37.6810   37.2720 N.3    95  ILE95      -0.1245
     78  CA        14.4180   37.2470   36.1210 C.3    95  ILE95       0.1561
     79  C         15.9120   37.2140   36.4590 C.2    95  ILE95       0.2260
     80  O         16.6400   36.3060   36.0190 O.2    95  ILE95      -0.2867
     81  CB        14.1660   38.1590   34.8920 C.3    95  ILE95       0.0252
     82  CG1       12.7100   38.0090   34.4100 C.3    95  ILE95       0.0019
     83  CG2       15.1410   37.8440   33.7510 C.3    95  ILE95       0.0019
     84  CD1       12.3700   38.9030   33.2150 C.3    95  ILE95       0.0001
@<TRIPOS>BOND
     1    22    21    2
     2    21    20    1
     3    19    20    1
     4    35    36    2
     5    35    34    1
     6    20    23    1
     7    26    27    1
     8    40    42   ar
     9    40    38   ar
    10    29    28    2
    11    23    24    1
    12    23    25    1
    13    42    43   ar
    14    34    37    1
    15    34    33    1
    16    37    38    1
    17    28    27    1
    18    38    39   ar
    19    27    30    1
    20    30    32    1
    21    30    31    1
    22    43    44    1
    23    43    41   ar
    24    51    49    1
    25    11    10    2
    26    39    41   ar
    27    10     9    1
    28    45    46    1
    29    46    49    1
    30    46    47    1
    31    49    50    1
    32     9    12    1
    33     9     8    1
    34    66    68   ar
    35    66    64   ar
    36     4     3    2
    37    68    67   ar
    38    47    48    2
    39    12    13    1
    40    64    63   ar
    41     8     3   am
    42     3     2    1
    43    67    65   ar
    44    63    65   ar
    45    63    62    1
    46    14    13   ar
    47    14    16   ar
    48    13    15   ar
    49    62    59    1
    50    52    53    1
    51     2     1    1
    52     2     5    1
    53     1     7    1
    54    16    18   ar
    55    15    17   ar
    56    53    56    1
    57    53    54    1
    58    59    58    1
    59    59    60    1
    60     5     6    1
    61    56    57    1
    62    76    74   am
    63     7     6    1
    64    18    17   ar
    65    54    55    2
    66    60    61    2
    67    60    69   am
    68    84    82    1
    69    75    74    2
    70    83    81    1
    71    74    73    1
    72    69    70    1
    73    82    81    1
    74    81    78    1
    75    73    70    1
    76    70    71    1
    77    80    79    2
    78    78    79    1
    79    78    77    1
    80    71    72    2
