@<TRIPOS>MOLECULE
tmp/5pguB01.pdb
 168 159 0 0 0
SMALL
GASTEIGER

@<TRIPOS>ATOM
      1  N         31.2340   32.5640   81.7900 N.3   110  ILE110     -0.1245
      2  CA        32.6380   32.7080   82.1810 C.3   110  ILE110      0.1561
      3  C         33.3450   31.4630   81.6700 C.2   110  ILE110      0.2260
      4  O         32.6860   30.4690   81.3700 O.2   110  ILE110     -0.2867
      5  CB        32.9000   32.8910   83.7270 C.3   110  ILE110      0.0252
      6  CG1       32.2620   31.7800   84.5750 C.3   110  ILE110      0.0019
      7  CG2       32.4980   34.2470   84.2160 C.3   110  ILE110      0.0019
      8  CD1       33.0020   31.4950   85.9470 C.3   110  ILE110      0.0001
      9  N         35.7620   28.1140   82.3320 N.3   112  ASN112     -0.1225
     10  CA        35.9580   27.1910   83.4690 C.3   112  ASN112      0.1785
     11  C         37.1690   27.6580   84.2790 C.2   112  ASN112      0.2598
     12  O         38.2350   27.9610   83.7190 O.2   112  ASN112     -0.2718
     13  CB        36.1910   25.7370   82.9860 C.3   112  ASN112      0.1169
     14  CG        35.0010   25.0860   82.2880 C.2   112  ASN112      0.2627
     15  OD1       33.8310   25.4990   82.4320 O.2   112  ASN112     -0.2716
     16  ND2       35.2810   24.0470   81.5040 N.am  112  ASN112     -0.0877
     17  N         36.9860   27.7830   85.5900 N.am  113  THR113     -0.1939
     18  CA        38.0460   28.2900   86.4730 C.3   113  THR113      0.2028
     19  C         38.0370   27.5540   87.7860 C.2   113  THR113      0.2643
     20  O         36.9980   27.0400   88.2040 O.2   113  THR113     -0.2714
     21  CB        37.9670   29.8550   86.6150 C.3   113  THR113      0.1808
     22  OG1       39.0740   30.3660   87.3680 O.3   113  THR113     -0.2208
     23  CG2       36.6650   30.3380   87.2140 C.3   113  THR113      0.0379
     24  N         39.2050   27.5020   88.4260 N.am  114  SER114     -0.1935
     25  CA        39.3780   26.8380   89.6990 C.3   114  SER114      0.2055
     26  C         40.1230   27.7260   90.7070 C.2   114  SER114      0.2642
     27  O         40.6120   28.8030   90.3610 O.2   114  SER114     -0.2714
     28  CB        40.0910   25.5040   89.4860 C.3   114  SER114      0.2130
     29  OG        41.4120   25.7120   89.0180 O.3   114  SER114     -0.2179
     30  N         40.1790   27.2720   91.9590 N.am  115  LEU115     -0.1977
     31  CA        40.8890   27.9690   93.0100 C.3   115  LEU115      0.1596
     32  C         42.2990   27.4150   93.0290 C.2   115  LEU115      0.2287
     33  O         42.5150   26.2880   93.4630 O.2   115  LEU115     -0.2864
     34  CB        40.2210   27.7620   94.3820 C.3   115  LEU115      0.0297
     35  CG        38.9370   28.5040   94.6430 C.3   115  LEU115      0.0022
     36  CD1       38.1950   27.8550   95.7790 C.3   115  LEU115      0.0001
     37  CD2       39.2030   29.9780   94.9510 C.3   115  LEU115      0.0001
     38  N         31.4270   39.4410   90.4400 N.3   159  SER159     -0.1202
     39  CA        31.6080   38.7450   91.6990 C.3   159  SER159      0.2020
     40  C         32.0990   39.6950   92.7900 C.2   159  SER159      0.2619
     41  O         32.4160   40.8600   92.5130 O.2   159  SER159     -0.2717
     42  CB        32.5870   37.5850   91.4590 C.3   159  SER159      0.2103
     43  OG        33.1160   36.9200   92.5950 O.3   159  SER159     -0.2182
     44  N         32.1920   39.1960   94.0430 N.am  160  LEU160     -0.1965
     45  CA        32.8200   39.9720   95.1220 C.3   160  LEU160      0.1728
     46  C         34.3000   40.1520   94.7050 C.2   160  LEU160      0.2616
     47  O         34.8810   41.2260   94.9070 O.2   160  LEU160     -0.2715
     48  CB        32.7750   39.2090   96.4510 C.3   160  LEU160      0.0311
     49  CG        31.4220   39.0520   97.1580 C.3   160  LEU160      0.0022
     50  CD1       31.5890   38.2370   98.4500 C.3   160  LEU160      0.0001
     51  CD2       30.7960   40.4010   97.4850 C.3   160  LEU160      0.0001
     52  N         34.8770   39.0980   94.0680 N.am  161  ALA161     -0.1977
     53  CA        36.2400   39.0690   93.5150 C.3   161  ALA161      0.1597
     54  C         36.4310   40.0880   92.3790 C.2   161  ALA161      0.2287
     55  O         37.5600   40.3320   91.9620 O.2   161  ALA161     -0.2864
     56  CB        36.6050   37.6580   93.0580 C.3   161  ALA161      0.0319
     57  N         40.9300   38.7140   96.6880 N.3   166  TYR166     -0.1228
     58  CA        40.9200   37.3880   97.2950 C.3   166  TYR166      0.1721
     59  C         42.0390   36.5680   96.6710 C.2   166  TYR166      0.2437
     60  O         42.2660   36.6740   95.4710 O.2   166  TYR166     -0.2733
     61  CB        39.6020   36.6410   97.0520 C.3   166  TYR166      0.0547
     62  CG        38.3750   37.3130   97.6080 C.ar  166  TYR166     -0.0200
     63  CD1       37.9360   37.0520   98.9050 C.ar  166  TYR166     -0.0009
     64  CD2       37.6010   38.1420   96.8160 C.ar  166  TYR166     -0.0009
     65  CE1       36.7840   37.6570   99.4140 C.ar  166  TYR166      0.0417
     66  CE2       36.4480   38.7410   97.3060 C.ar  166  TYR166      0.0417
     67  CZ        36.0380   38.4960   98.6030 C.ar  166  TYR166      0.1957
     68  OH        34.8890   39.0870   99.0720 O.3   166  TYR166     -0.2866
     69  N         42.6880   35.6750   97.4400 N.am  167  PRO167     -0.2729
     70  CA        43.7140   34.8260   96.8380 C.3   167  PRO167      0.1401
     71  C         43.0880   33.7010   96.0140 C.2   167  PRO167      0.2269
     72  O         41.8910   33.4220   96.1550 O.2   167  PRO167     -0.2865
     73  CB        44.4600   34.2670   98.0600 C.3   167  PRO167      0.0296
     74  CG        43.4180   34.2360   99.1650 C.3   167  PRO167      0.0237
     75  CD        42.5070   35.3950   98.8900 C.3   167  PRO167      0.0939
     76  N         42.3410   33.4540   92.8280 N.3   169  VAL169     -0.1245
     77  CA        41.4410   33.8840   91.7370 C.3   169  VAL169      0.1561
     78  C         42.0120   35.0890   90.9640 C.2   169  VAL169      0.2260
     79  O         41.2370   35.8660   90.4410 O.2   169  VAL169     -0.2867
     80  CB        39.9730   34.1830   92.2300 C.3   169  VAL169      0.0252
     81  CG1       39.2710   32.9210   92.6920 C.3   169  VAL169      0.0019
     82  CG2       39.9170   35.2820   93.3130 C.3   169  VAL169      0.0019
     83  N         40.8060   35.4640   87.1670 N.3   172  TYR172     -0.1241
     84  CA        39.3590   35.5910   87.2760 C.3   172  TYR172      0.1605
     85  C         38.9760   36.9790   87.7970 C.2   172  TYR172      0.2264
     86  O         38.0860   37.6200   87.2510 O.2   172  TYR172     -0.2867
     87  CB        38.8200   34.4810   88.2010 C.3   172  TYR172      0.0534
     88  CG        37.3400   34.5870   88.5030 C.ar  172  TYR172     -0.0201
     89  CD1       36.3850   34.2250   87.5540 C.ar  172  TYR172     -0.0009
     90  CD2       36.8910   35.0390   89.7400 C.ar  172  TYR172     -0.0009
     91  CE1       35.0220   34.3160   87.8300 C.ar  172  TYR172      0.0417
     92  CE2       35.5300   35.1390   90.0250 C.ar  172  TYR172      0.0417
     93  CZ        34.5980   34.7590   89.0750 C.ar  172  TYR172      0.1957
     94  OH        33.2570   34.8290   89.3760 O.3   172  TYR172     -0.2866
     95  N         28.1480   39.3130   93.1750 N.3   204  LEU204     -0.1231
     96  CA        27.6990   38.1190   93.8600 C.3   204  LEU204      0.1693
     97  C         28.7390   37.4460   94.7390 C.2   204  LEU204      0.2593
     98  O         29.9190   37.3630   94.3710 O.2   204  LEU204     -0.2718
     99  CB        27.1220   37.0780   92.8780 C.3   204  LEU204      0.0284
    100  CG        26.2830   37.5450   91.6840 C.3   204  LEU204      0.0019
    101  CD1       25.9240   36.3830   90.8270 C.3   204  LEU204      0.0001
    102  CD2       25.0040   38.2820   92.1170 C.3   204  LEU204      0.0001
    103  N         28.2620   36.9530   95.8880 N.am  205  GLY205     -0.1942
    104  CA        29.0350   36.1580   96.8300 C.3   205  GLY205      0.2014
    105  C         28.9750   34.7020   96.4250 C.2   205  GLY205      0.2639
    106  O         28.5490   34.4030   95.3140 O.2   205  GLY205     -0.2714
    107  N         29.4070   33.7770   97.2830 N.am  206  LEU206     -0.1963
    108  CA        29.3220   32.3550   96.9480 C.3   206  LEU206      0.1728
    109  C         27.8630   31.9060   96.7040 C.2   206  LEU206      0.2616
    110  O         26.9900   32.2270   97.4890 O.2   206  LEU206     -0.2715
    111  CB        30.0150   31.4840   98.0190 C.3   206  LEU206      0.0311
    112  CG        30.1650   29.9860   97.6590 C.3   206  LEU206      0.0022
    113  CD1       30.9470   29.7800   96.3240 C.3   206  LEU206      0.0001
    114  CD2       30.7630   29.2070   98.8160 C.3   206  LEU206      0.0001
    115  N         27.6040   31.2370   95.5760 N.am  207  ILE207     -0.1977
    116  CA        26.2800   30.7490   95.1720 C.3   207  ILE207      0.1596
    117  C         26.3560   29.2260   95.0570 C.2   207  ILE207      0.2287
    118  O         27.3420   28.7090   94.5170 O.2   207  ILE207     -0.2864
    119  CB        25.7650   31.4490   93.8660 C.3   207  ILE207      0.0276
    120  CG1       25.9050   33.0030   93.8940 C.3   207  ILE207      0.0022
    121  CG2       24.3380   31.0320   93.5390 C.3   207  ILE207      0.0022
    122  CD1       25.1620   33.7990   95.0330 C.3   207  ILE207      0.0001
    123  N         25.7380   26.8190   93.2030 N.3   209  THR209     -0.1218
    124  CA        25.7460   26.1490   91.8920 C.3   209  THR209      0.1862
    125  C         26.6910   24.9600   91.9830 C.2   209  THR209      0.2287
    126  O         27.6380   25.0100   92.7620 O.2   209  THR209     -0.2866
    127  CB        26.1760   27.0950   90.7510 C.3   209  THR209      0.1770
    128  OG1       27.5730   27.4160   90.8390 O.3   209  THR209     -0.2211
    129  CG2       25.3240   28.3500   90.6660 C.3   209  THR209      0.0375
    130  N         29.0380   23.8740   89.9780 N.3   211  THR211     -0.1203
    131  CA        30.3960   24.2660   89.6330 C.3   211  THR211      0.1994
    132  C         31.1390   24.8760   90.8200 C.2   211  THR211      0.2617
    133  O         32.2410   24.4440   91.1390 O.2   211  THR211     -0.2717
    134  CB        30.3850   25.2410   88.4300 C.3   211  THR211      0.1784
    135  OG1       29.7500   24.6000   87.3330 O.3   211  THR211     -0.2211
    136  CG2       31.8020   25.6870   88.0140 C.3   211  THR211      0.0376
    137  N         30.5490   25.9020   91.4330 N.am  212  ALA212     -0.1979
    138  CA        31.1410   26.6180   92.5400 C.3   212  ALA212      0.1597
    139  C         31.3510   25.7220   93.7530 C.2   212  ALA212      0.2287
    140  O         32.3980   25.8170   94.3910 O.2   212  ALA212     -0.2864
    141  CB        30.2780   27.8010   92.8970 C.3   212  ALA212      0.0319
    142  N         34.3340   23.4390   92.9790 N.3   215  ALA215     -0.1231
    143  CA        35.5590   24.2270   92.9790 C.3   215  ALA215      0.1694
    144  C         36.0360   24.6660   94.3770 C.2   215  ALA215      0.2591
    145  O         37.2600   24.7310   94.5990 O.2   215  ALA215     -0.2718
    146  CB        35.3900   25.4400   92.0830 C.3   215  ALA215      0.0304
    147  N         35.0870   24.9860   95.3080 N.am  216  VAL216     -0.1980
    148  CA        35.4410   25.4570   96.6500 C.3   216  VAL216      0.1595
    149  C         35.7620   24.3150   97.6120 C.2   216  VAL216      0.2287
    150  O         36.4760   24.5580   98.5900 O.2   216  VAL216     -0.2864
    151  CB        34.4470   26.4770   97.3010 C.3   216  VAL216      0.0276
    152  CG1       34.2260   27.6850   96.4100 C.3   216  VAL216      0.0022
    153  CG2       33.1220   25.8500   97.7560 C.3   216  VAL216      0.0022
    154  N         37.7670   26.4680  100.3170 N.3   220  VAL220     -0.1245
    155  CA        37.0160   27.6070  100.8080 C.3   220  VAL220      0.1561
    156  C         35.8890   27.1210  101.6820 C.2   220  VAL220      0.2260
    157  O         35.1260   26.2380  101.2880 O.2   220  VAL220     -0.2867
    158  CB        36.5800   28.5420   99.6260 C.3   220  VAL220      0.0252
    159  CG1       35.3510   29.3860   99.9590 C.3   220  VAL220      0.0019
    160  CG2       37.7360   29.4250   99.1880 C.3   220  VAL220      0.0019
    161  N         32.9260   28.7990  103.4310 N.3   222  MET222     -0.1245
    162  CA        31.9790   29.8970  103.6030 C.3   222  MET222      0.1570
    163  C         30.5820   29.5100  103.1650 C.2   222  MET222      0.2261
    164  O         30.4200   28.5920  102.3660 O.2   222  MET222     -0.2867
    165  CB        32.4420   31.2060  102.9440 C.3   222  MET222      0.0387
    166  CG        32.4510   31.1940  101.4420 C.3   222  MET222      0.0595
    167  SD        32.8300   32.8410  100.7680 S.3   222  MET222     -0.1393
    168  CE        34.6310   32.8400  100.8660 C.3   222  MET222      0.0692
@<TRIPOS>BOND
     1     4     3    2
     2    16    14   am
     3     3     2    1
     4     1     2    1
     5     2     5    1
     6    14    15    2
     7    14    13    1
     8     9    10    1
     9    13    10    1
    10    10    11    1
    11    12    11    2
    12     5     7    1
    13     5     6    1
    14    11    17   am
    15     6     8    1
    16    17    18    1
    17    18    21    1
    18    18    19    1
    19    21    23    1
    20    21    22    1
    21    83    84    1
    22    86    85    2
    23    84    85    1
    24    84    87    1
    25   135   134    1
    26    89    91   ar
    27    89    88   ar
    28    19    20    2
    29    19    24   am
    30    91    93   ar
    31   136   134    1
    32    87    88    1
    33    24    25    1
    34   134   131    1
    35    88    90   ar
    36    29    28    1
    37    93    94    1
    38    93    92   ar
    39    28    25    1
    40   131   130    1
    41   131   132    1
    42    25    26    1
    43    90    92   ar
    44    27    26    2
    45    38    39    1
    46    79    78    2
    47   129   127    1
    48    26    30   am
    49   127   128    1
    50   127   124    1
    51   132   133    2
    52   132   137   am
    53   101   100    1
    54    78    77    1
    55   137   138    1
    56    42    39    1
    57    42    43    1
    58   100   102    1
    59   100    99    1
    60    39    40    1
    61    77    80    1
    62    77    76    1
    63   124   125    1
    64   124   123    1
    65    30    31    1
    66    55    54    2
    67   125   126    2
    68   146   143    1
    69    80    81    1
    70    80    82    1
    71    54    53    1
    72    41    40    2
    73   138   141    1
    74   138   139    1
    75    40    44   am
    76    99    96    1
    77   142   143    1
    78   143   144    1
    79    31    32    1
    80    31    34    1
    81    32    33    2
    82    56    53    1
    83    95    96    1
    84    53    52    1
    85   121   119    1
    86   139   140    2
    87    96    97    1
    88   119   120    1
    89   119   116    1
    90   120   122    1
    91    44    45    1
    92    52    46   am
    93    98    97    2
    94   144   145    2
    95   144   147   am
    96    34    35    1
    97   118   117    2
    98    35    37    1
    99    35    36    1
   100    46    47    2
   101    46    45    1
   102    97   103   am
   103   117   116    1
   104    45    48    1
   105   116   115    1
   106   147   148    1
   107   106   105    2
   108    60    59    2
   109   115   109   am
   110   103   104    1
   111    71    72    2
   112    71    70    1
   113   113   112    1
   114   152   151    1
   115   105   104    1
   116   105   107   am
   117    48    49    1
   118   148   151    1
   119   148   149    1
   120    59    58    1
   121    59    69   am
   122    57    58    1
   123   109   108    1
   124   109   110    2
   125    64    66   ar
   126    64    62   ar
   127    70    69    1
   128    70    73    1
   129   108   107    1
   130   108   111    1
   131    61    58    1
   132    61    62    1
   133    49    51    1
   134    49    50    1
   135   151   153    1
   136    66    67   ar
   137    69    75    1
   138    62    63   ar
   139   149   150    2
   140   112   111    1
   141   112   114    1
   142    73    74    1
   143    67    68    1
   144    67    65   ar
   145    75    74    1
   146    63    65   ar
   147   160   158    1
   148   158   159    1
   149   158   155    1
   150   154   155    1
   151   167   168    1
   152   167   166    1
   153   155   156    1
   154   157   156    2
   155   166   165    1
   156   164   163    2
   157   165   162    1
   158   163   162    1
   159   161   162    1
