@<TRIPOS>MOLECULE
tmp/5pgvB01.pdb
 176 167 0 0 0
SMALL
GASTEIGER

@<TRIPOS>ATOM
      1  N         31.2440   34.2410   76.8440 N.3   111  ILE111     -0.1245
      2  CA        32.6590   34.3680   77.1870 C.3   111  ILE111      0.1561
      3  C         33.3750   33.1520   76.6040 C.2   111  ILE111      0.2260
      4  O         32.7320   32.1220   76.3430 O.2   111  ILE111     -0.2867
      5  CB        32.9740   34.5170   78.7320 C.3   111  ILE111      0.0252
      6  CG1       32.2580   33.4490   79.5790 C.3   111  ILE111      0.0019
      7  CG2       32.7010   35.9380   79.2460 C.3   111  ILE111      0.0019
      8  CD1       33.0020   33.1430   80.9740 C.3   111  ILE111      0.0001
      9  N         37.0310   29.5430   80.4220 N.3   114  THR114     -0.1203
     10  CA        38.0780   29.9840   81.3520 C.3   114  THR114      0.1994
     11  C         38.0550   29.1660   82.6560 C.2   114  THR114      0.2619
     12  O         36.9870   28.7100   83.0940 O.2   114  THR114     -0.2717
     13  CB        37.9990   31.5250   81.5780 C.3   114  THR114      0.1784
     14  OG1       38.9050   31.9280   82.6020 O.3   114  THR114     -0.2211
     15  CG2       36.6240   31.9990   81.9600 C.3   114  THR114      0.0376
     16  N         39.2260   29.0140   83.2850 N.am  115  SER115     -0.1937
     17  CA        39.3880   28.2700   84.5330 C.3   115  SER115      0.2055
     18  C         40.1820   29.0770   85.5780 C.2   115  SER115      0.2642
     19  O         40.6780   30.1720   85.2740 O.2   115  SER115     -0.2714
     20  CB        40.0530   26.9240   84.2460 C.3   115  SER115      0.2130
     21  OG        41.3030   27.1280   83.6140 O.3   115  SER115     -0.2179
     22  N         40.2610   28.5660   86.8150 N.am  116  LEU116     -0.1977
     23  CA        41.0030   29.2340   87.8790 C.3   116  LEU116      0.1596
     24  C         42.4380   28.7510   87.8170 C.2   116  LEU116      0.2287
     25  O         42.7250   27.5750   88.0440 O.2   116  LEU116     -0.2864
     26  CB        40.3830   29.0120   89.2720 C.3   116  LEU116      0.0297
     27  CG        39.0090   29.6780   89.5370 C.3   116  LEU116      0.0022
     28  CD1       38.3880   29.1290   90.8030 C.3   116  LEU116      0.0001
     29  CD2       39.1240   31.2060   89.6570 C.3   116  LEU116      0.0001
     30  N         31.3050   41.0570   85.6960 N.3   160  SER160     -0.1202
     31  CA        31.5510   40.2760   86.8840 C.3   160  SER160      0.2020
     32  C         32.1300   41.1830   87.9790 C.2   160  SER160      0.2619
     33  O         32.5680   42.2930   87.6750 O.2   160  SER160     -0.2717
     34  CB        32.5460   39.1770   86.4980 C.3   160  SER160      0.2103
     35  OG        33.2280   38.5920   87.5910 O.3   160  SER160     -0.2182
     36  N         32.1420   40.7120   89.2540 N.am  161  LEU161     -0.1965
     37  CA        32.7780   41.4530   90.3590 C.3   161  LEU161      0.1728
     38  C         34.2740   41.5540   90.0300 C.2   161  LEU161      0.2616
     39  O         34.9080   42.5350   90.4120 O.2   161  LEU161     -0.2715
     40  CB        32.5830   40.7330   91.7090 C.3   161  LEU161      0.0311
     41  CG        31.2000   40.8460   92.3840 C.3   161  LEU161      0.0022
     42  CD1       31.1360   39.9710   93.6400 C.3   161  LEU161      0.0001
     43  CD2       30.9060   42.2700   92.8110 C.3   161  LEU161      0.0001
     44  N         34.8210   40.5470   89.2800 N.am  162  ALA162     -0.1977
     45  CA        36.2150   40.5030   88.7950 C.3   162  ALA162      0.1597
     46  C         36.4530   41.5460   87.6830 C.2   162  ALA162      0.2287
     47  O         37.5770   41.6970   87.2450 O.2   162  ALA162     -0.2864
     48  CB        36.5950   39.1040   88.3230 C.3   162  ALA162      0.0319
     49  N         40.9350   39.9420   91.8100 N.3   167  TYR167     -0.1228
     50  CA        40.8880   38.5820   92.3500 C.3   167  TYR167      0.1721
     51  C         42.0800   37.8420   91.7580 C.2   167  TYR167      0.2437
     52  O         42.3120   37.9750   90.5580 O.2   167  TYR167     -0.2733
     53  CB        39.6370   37.8220   91.8810 C.3   167  TYR167      0.0547
     54  CG        38.3290   38.2600   92.4790 C.ar  167  TYR167     -0.0200
     55  CD1       37.6060   39.3170   91.9250 C.ar  167  TYR167     -0.0009
     56  CD2       37.7670   37.5750   93.5580 C.ar  167  TYR167     -0.0009
     57  CE1       36.3640   39.6930   92.4360 C.ar  167  TYR167      0.0417
     58  CE2       36.5310   37.9570   94.0930 C.ar  167  TYR167      0.0417
     59  CZ        35.8310   39.0130   93.5200 C.ar  167  TYR167      0.1957
     60  OH        34.6120   39.3790   94.0200 O.3   167  TYR167     -0.2866
     61  N         42.7820   36.9870   92.5260 N.am  168  PRO168     -0.2718
     62  CA        43.8470   36.1710   91.9080 C.3   168  PRO168      0.1535
     63  C         43.2140   35.0450   91.0760 C.2   168  PRO168      0.2598
     64  O         42.0330   34.7250   91.2550 O.2   168  PRO168     -0.2715
     65  CB        44.5880   35.5780   93.1210 C.3   168  PRO168      0.0310
     66  CG        43.5310   35.5030   94.2200 C.3   168  PRO168      0.0237
     67  CD        42.6030   36.6790   93.9690 C.3   168  PRO168      0.0939
     68  N         44.0090   34.4460   90.1520 N.am  169  MET169     -0.1964
     69  CA        43.6630   33.2820   89.3150 C.3   169  MET169      0.1736
     70  C         42.7320   33.5730   88.1250 C.2   169  MET169      0.2616
     71  O         42.3460   32.6400   87.4010 O.2   169  MET169     -0.2715
     72  CB        43.1020   32.1170   90.1590 C.3   169  MET169      0.0427
     73  CG        44.0030   31.7460   91.3150 C.3   169  MET169      0.0599
     74  SD        43.3120   30.4210   92.2990 S.3   169  MET169     -0.1393
     75  CE        42.1640   31.4070   93.3930 C.3   169  MET169      0.0692
     76  N         42.4080   34.8470   87.8960 N.am  170  VAL170     -0.1977
     77  CA        41.5130   35.2940   86.8030 C.3   170  VAL170      0.1596
     78  C         42.0890   36.5230   86.1020 C.2   170  VAL170      0.2287
     79  O         41.3170   37.3920   85.6760 O.2   170  VAL170     -0.2864
     80  CB        40.0530   35.5560   87.3050 C.3   170  VAL170      0.0276
     81  CG1       39.3540   34.2640   87.6990 C.3   170  VAL170      0.0022
     82  CG2       40.0140   36.5580   88.4660 C.3   170  VAL170      0.0022
     83  N         40.7990   36.9740   82.3290 N.3   173  TYR173     -0.1241
     84  CA        39.3540   37.1170   82.4190 C.3   173  TYR173      0.1605
     85  C         38.9800   38.5030   82.9630 C.2   173  TYR173      0.2264
     86  O         38.1330   39.2040   82.4000 O.2   173  TYR173     -0.2867
     87  CB        38.8150   35.9740   83.3010 C.3   173  TYR173      0.0534
     88  CG        37.3520   36.1010   83.6580 C.ar  173  TYR173     -0.0201
     89  CD1       36.3590   35.7820   82.7340 C.ar  173  TYR173     -0.0009
     90  CD2       36.9560   36.5700   84.9130 C.ar  173  TYR173     -0.0009
     91  CE1       35.0060   35.9070   83.0520 C.ar  173  TYR173      0.0417
     92  CE2       35.6020   36.7020   85.2430 C.ar  173  TYR173      0.0417
     93  CZ        34.6310   36.3350   84.3210 C.ar  173  TYR173      0.1957
     94  OH        33.2930   36.4540   84.6190 O.3   173  TYR173     -0.2866
     95  N         28.2210   40.8100   88.4300 N.3   205  LEU205     -0.1231
     96  CA        27.7590   39.5920   89.0820 C.3   205  LEU205      0.1693
     97  C         28.8170   38.9320   89.9370 C.2   205  LEU205      0.2593
     98  O         29.9990   38.9300   89.5850 O.2   205  LEU205     -0.2718
     99  CB        27.2570   38.5650   88.0310 C.3   205  LEU205      0.0284
    100  CG        26.3750   39.0530   86.8720 C.3   205  LEU205      0.0019
    101  CD1       26.0440   37.9130   85.9380 C.3   205  LEU205      0.0001
    102  CD2       25.0740   39.7490   87.3630 C.3   205  LEU205      0.0001
    103  N         28.3580   38.3590   91.0540 N.am  206  GLY206     -0.1942
    104  CA        29.1620   37.5390   91.9400 C.3   206  GLY206      0.2014
    105  C         29.0320   36.1150   91.4650 C.2   206  GLY206      0.2639
    106  O         28.5350   35.8840   90.3630 O.2   206  GLY206     -0.2714
    107  N         29.4330   35.1400   92.2860 N.am  207  LEU207     -0.1963
    108  CA        29.3320   33.7230   91.9250 C.3   207  LEU207      0.1728
    109  C         27.8830   33.2810   91.6910 C.2   207  LEU207      0.2616
    110  O         27.0250   33.5110   92.5400 O.2   207  LEU207     -0.2715
    111  CB        30.0090   32.8520   92.9910 C.3   207  LEU207      0.0311
    112  CG        30.1820   31.3830   92.6450 C.3   207  LEU207      0.0022
    113  CD1       31.1140   31.2100   91.4410 C.3   207  LEU207      0.0001
    114  CD2       30.6850   30.5980   93.8600 C.3   207  LEU207      0.0001
    115  N         27.6220   32.6710   90.5210 N.am  208  ILE208     -0.1977
    116  CA        26.2990   32.1960   90.1060 C.3   208  ILE208      0.1596
    117  C         26.3860   30.6810   89.9530 C.2   208  ILE208      0.2287
    118  O         27.3780   30.1810   89.4290 O.2   208  ILE208     -0.2864
    119  CB        25.7540   32.9390   88.8170 C.3   208  ILE208      0.0276
    120  CG1       25.9230   34.4960   88.8870 C.3   208  ILE208      0.0022
    121  CG2       24.2960   32.5660   88.5020 C.3   208  ILE208      0.0022
    122  CD1       25.2730   35.2630   90.0920 C.3   208  ILE208      0.0001
    123  N         25.8620   28.3480   87.9860 N.3   210  THR210     -0.1218
    124  CA        25.8300   27.6840   86.6750 C.3   210  THR210      0.1862
    125  C         26.7750   26.4750   86.7670 C.2   210  THR210      0.2287
    126  O         27.7220   26.4910   87.5580 O.2   210  THR210     -0.2866
    127  CB        26.2050   28.6300   85.5050 C.3   210  THR210      0.1770
    128  OG1       27.5870   28.9900   85.5770 O.3   210  THR210     -0.2211
    129  CG2       25.3410   29.8600   85.4380 C.3   210  THR210      0.0375
    130  N         29.0680   25.4630   84.7460 N.3   212  THR212     -0.1203
    131  CA        30.4240   25.9000   84.4060 C.3   212  THR212      0.1994
    132  C         31.1080   26.5180   85.6290 C.2   212  THR212      0.2617
    133  O         32.2420   26.1520   85.9360 O.2   212  THR212     -0.2717
    134  CB        30.3980   26.8850   83.2240 C.3   212  THR212      0.1784
    135  OG1       29.7920   26.2530   82.1080 O.3   212  THR212     -0.2211
    136  CG2       31.7810   27.3430   82.8210 C.3   212  THR212      0.0376
    137  N         30.4270   27.4680   86.3060 N.am  213  ALA213     -0.1979
    138  CA        31.0120   28.1170   87.4910 C.3   213  ALA213      0.1597
    139  C         31.2640   27.1460   88.6290 C.2   213  ALA213      0.2287
    140  O         32.3500   27.1530   89.1850 O.2   213  ALA213     -0.2864
    141  CB        30.1400   29.2550   87.9630 C.3   213  ALA213      0.0319
    142  N         34.2190   24.9580   87.7500 N.3   216  ALA216     -0.1231
    143  CA        35.4860   25.7100   87.7570 C.3   216  ALA216      0.1694
    144  C         36.0050   26.0760   89.1660 C.2   216  ALA216      0.2591
    145  O         37.2210   26.0250   89.4050 O.2   216  ALA216     -0.2718
    146  CB        35.3830   26.9480   86.8760 C.3   216  ALA216      0.0304
    147  N         35.0950   26.4070   90.1050 N.am  217  VAL217     -0.1980
    148  CA        35.5190   26.8070   91.4640 C.3   217  VAL217      0.1595
    149  C         35.9170   25.6400   92.3460 C.2   217  VAL217      0.2287
    150  O         36.6780   25.8340   93.2990 O.2   217  VAL217     -0.2864
    151  CB        34.4890   27.7160   92.2070 C.3   217  VAL217      0.0276
    152  CG1       34.2080   28.9870   91.4260 C.3   217  VAL217      0.0022
    153  CG2       33.1940   26.9750   92.5350 C.3   217  VAL217      0.0022
    154  N         38.0610   27.7100   95.1540 N.3   221  VAL221     -0.1245
    155  CA        37.3450   28.8540   95.6740 C.3   221  VAL221      0.1561
    156  C         36.1200   28.3660   96.4280 C.2   221  VAL221      0.2260
    157  O         35.4280   27.4650   95.9640 O.2   221  VAL221     -0.2867
    158  CB        37.0580   29.8580   94.5150 C.3   221  VAL221      0.0252
    159  CG1       35.8000   30.6750   94.7620 C.3   221  VAL221      0.0019
    160  CG2       38.2630   30.7670   94.2780 C.3   221  VAL221      0.0019
    161  N         33.0470   30.0700   98.0480 N.3   223  MET223     -0.1245
    162  CA        32.1810   31.2350   98.1730 C.3   223  MET223      0.1570
    163  C         30.7770   30.7640   98.0000 C.2   223  MET223      0.2261
    164  O         30.5480   29.7190   97.4010 O.2   223  MET223     -0.2867
    165  CB        32.4530   32.2500   97.0500 C.3   223  MET223      0.0387
    166  CG        33.7900   32.9310   97.1100 C.3   223  MET223      0.0595
    167  SD        34.0500   33.8850   95.5930 S.3   223  MET223     -0.1393
    168  CE        35.7240   34.4570   95.8710 C.3   223  MET223      0.0692
    169  N         24.8380   39.6760   93.7260 N.3   249  ASP249     -0.1239
    170  CA        25.7140   38.8230   94.5430 C.3   249  ASP249      0.1674
    171  C         24.9370   38.2850   95.7410 C.2   249  ASP249      0.2266
    172  O         24.0270   38.9620   96.2230 O.2   249  ASP249     -0.2867
    173  CB        26.9150   39.6480   95.0550 C.3   249  ASP249      0.1410
    174  CG        27.9980   38.8180   95.7200 C.2   249  ASP249      0.3668
    175  OD1       28.7300   38.1560   95.0120 O.co2 249  ASP249     -0.2456
    176  OD2       28.0810   38.8220   96.9630 O.co2 249  ASP249     -0.2456
@<TRIPOS>BOND
     1     4     3    2
     2     3     2    1
     3     1     2    1
     4     2     5    1
     5     5     7    1
     6     5     6    1
     7     6     8    1
     8     9    10    1
     9    10    13    1
    10    10    11    1
    11    13    15    1
    12    13    14    1
    13   135   134    1
    14    83    84    1
    15    86    85    2
    16    84    85    1
    17    84    87    1
    18    11    12    2
    19    11    16   am
    20    89    91   ar
    21    89    88   ar
    22   136   134    1
    23    91    93   ar
    24   134   131    1
    25    16    17    1
    26    87    88    1
    27    21    20    1
    28    88    90   ar
    29    20    17    1
    30    93    94    1
    31    93    92   ar
    32   131   130    1
    33   131   132    1
    34    17    18    1
    35    90    92   ar
    36    19    18    2
    37   129   127    1
    38   127   128    1
    39   127   124    1
    40    18    22   am
    41   132   133    2
    42   132   137   am
    43    79    78    2
    44    30    31    1
    45   101   100    1
    46    78    77    1
    47   137   138    1
    48    34    31    1
    49    34    35    1
    50   124   125    1
    51   124   123    1
    52   125   126    2
    53    77    80    1
    54    77    76    1
    55    22    23    1
    56   100   102    1
    57   100    99    1
    58   146   143    1
    59    31    32    1
    60    47    46    2
    61    80    81    1
    62    80    82    1
    63    71    70    2
    64   138   141    1
    65   138   139    1
    66    33    32    2
    67    46    45    1
    68   142   143    1
    69   143   144    1
    70    24    23    1
    71    24    25    2
    72    23    26    1
    73    76    70   am
    74    32    36   am
    75    99    96    1
    76    70    69    1
    77    48    45    1
    78    95    96    1
    79   121   119    1
    80   139   140    2
    81    45    44    1
    82   119   120    1
    83   119   116    1
    84   120   122    1
    85    96    97    1
    86   144   145    2
    87   144   147   am
    88    36    37    1
    89    26    27    1
    90    44    38   am
    91    69    68    1
    92    69    72    1
    93   118   117    2
    94    27    29    1
    95    27    28    1
    96    98    97    2
    97    97   103   am
    98   117   116    1
    99    38    37    1
   100    38    39    2
   101   147   148    1
   102   116   115    1
   103    68    63   am
   104    72    73    1
   105    37    40    1
   106   106   105    2
   107   115   109   am
   108    52    51    2
   109   103   104    1
   110    63    64    2
   111    63    62    1
   112    73    74    1
   113   152   151    1
   114   113   112    1
   115   148   151    1
   116   148   149    1
   117   105   104    1
   118   105   107   am
   119   109   108    1
   120   109   110    2
   121    40    41    1
   122    51    50    1
   123    51    61   am
   124    49    50    1
   125    53    50    1
   126    53    54    1
   127    62    61    1
   128    62    65    1
   129    55    57   ar
   130    55    54   ar
   131   108   107    1
   132   108   111    1
   133   151   153    1
   134    74    75    1
   135   149   150    2
   136    41    43    1
   137    41    42    1
   138    57    59   ar
   139    54    56   ar
   140    61    67    1
   141   112   111    1
   142   112   114    1
   143    65    66    1
   144    59    60    1
   145    59    58   ar
   146    56    58   ar
   147   169   170    1
   148    67    66    1
   149   160   158    1
   150   158   159    1
   151   158   155    1
   152   170   173    1
   153   170   171    1
   154   175   174   ar
   155   173   174    1
   156   154   155    1
   157   167   168    1
   158   167   166    1
   159   155   156    1
   160   174   176   ar
   161   171   172    2
   162   157   156    2
   163   165   166    1
   164   165   162    1
   165   164   163    2
   166   163   162    1
   167   161   162    1
