@<TRIPOS>MOLECULE
tmp/5pgwC01.pdb
 176 167 0 0 0
SMALL
GASTEIGER

@<TRIPOS>ATOM
      1  N         35.8500   58.3330  132.5400 N.3   111  ILE111     -0.1245
      2  CA        34.4500   58.0980  132.2290 C.3   111  ILE111      0.1561
      3  C         33.7850   57.9030  133.5680 C.2   111  ILE111      0.2260
      4  O         34.4820   57.7250  134.5830 O.2   111  ILE111     -0.2867
      5  CB        34.1480   56.9160  131.2250 C.3   111  ILE111      0.0252
      6  CG1       34.7860   55.5740  131.6440 C.3   111  ILE111      0.0019
      7  CG2       34.5160   57.2670  129.8140 C.3   111  ILE111      0.0019
      8  CD1       34.0130   54.3480  131.1400 C.3   111  ILE111      0.0001
      9  N         30.2840   52.7280  134.5030 N.3   114  THR114     -0.1203
     10  CA        29.2420   52.2070  133.6210 C.3   114  THR114      0.1994
     11  C         29.2860   50.7030  133.7090 C.2   114  THR114      0.2619
     12  O         30.3640   50.1320  133.8020 O.2   114  THR114     -0.2717
     13  CB        29.5630   52.6480  132.1570 C.3   114  THR114      0.1784
     14  OG1       29.7170   54.0640  132.0920 O.3   114  THR114     -0.2211
     15  CG2       28.5230   52.2050  131.1360 C.3   114  THR114      0.0376
     16  N         28.1310   50.0570  133.5970 N.am  115  SER115     -0.1937
     17  CA        28.0080   48.6090  133.5270 C.3   115  SER115      0.2055
     18  C         27.1360   48.2910  132.3000 C.2   115  SER115      0.2642
     19  O         26.5540   49.2170  131.7250 O.2   115  SER115     -0.2714
     20  CB        27.4510   48.0370  134.8340 C.3   115  SER115      0.2130
     21  OG        26.0890   48.3190  135.0420 O.3   115  SER115     -0.2179
     22  N         27.1170   47.0200  131.8410 N.am  116  LEU116     -0.1977
     23  CA        26.3200   46.6270  130.6840 C.3   116  LEU116      0.1596
     24  C         24.9050   46.3380  131.1320 C.2   116  LEU116      0.2287
     25  O         24.6990   45.4550  131.9460 O.2   116  LEU116     -0.2864
     26  CB        26.8910   45.3900  129.9710 C.3   116  LEU116      0.0297
     27  CG        28.2920   45.4600  129.3390 C.3   116  LEU116      0.0022
     28  CD1       28.6200   44.1200  128.6810 C.3   116  LEU116      0.0001
     29  CD2       28.3860   46.5580  128.3050 C.3   116  LEU116      0.0001
     30  N         35.8240   55.1720  121.8480 N.3   160  SER160     -0.1202
     31  CA        35.5350   53.7440  121.7540 C.3   160  SER160      0.2020
     32  C         34.9660   53.3800  120.3650 C.2   160  SER160      0.2619
     33  O         34.5490   54.2730  119.6040 O.2   160  SER160     -0.2717
     34  CB        34.5180   53.3990  122.8510 C.3   160  SER160      0.2103
     35  OG        33.8690   52.1440  122.7050 O.3   160  SER160     -0.2182
     36  N         34.9290   52.0620  120.0560 N.am  161  LEU161     -0.1965
     37  CA        34.2730   51.5340  118.8600 C.3   161  LEU161      0.1728
     38  C         32.7810   51.8720  118.9790 C.2   161  LEU161      0.2616
     39  O         32.1330   52.1790  117.9770 O.2   161  LEU161     -0.2715
     40  CB        34.4450   50.0140  118.7820 C.3   161  LEU161      0.0311
     41  CG        35.8010   49.4810  118.3330 C.3   161  LEU161      0.0022
     42  CD1       35.7650   47.9770  118.2790 C.3   161  LEU161      0.0001
     43  CD2       36.1990   49.9920  116.9520 C.3   161  LEU161      0.0001
     44  N         32.2750   51.9020  120.2380 N.am  162  ALA162     -0.1977
     45  CA        30.9150   52.2990  120.6190 C.3   162  ALA162      0.1597
     46  C         30.6820   53.8280  120.4360 C.2   162  ALA162      0.2287
     47  O         29.5680   54.2960  120.5700 O.2   162  ALA162     -0.2864
     48  CB        30.6170   51.8660  122.0510 C.3   162  ALA162      0.0319
     49  N         26.1560   49.6940  119.5380 N.3   167  TYR167     -0.1228
     50  CA        26.2420   48.4870  120.3480 C.3   167  TYR167      0.1721
     51  C         25.0480   48.4880  121.3040 C.2   167  TYR167      0.2437
     52  O         24.7700   49.5310  121.9000 O.2   167  TYR167     -0.2733
     53  CB        27.4930   48.5140  121.2350 C.3   167  TYR167      0.0547
     54  CG        28.7980   48.1410  120.5780 C.ar  167  TYR167     -0.0200
     55  CD1       29.5110   49.0730  119.8230 C.ar  167  TYR167     -0.0009
     56  CD2       29.4030   46.9150  120.8390 C.ar  167  TYR167     -0.0009
     57  CE1       30.7540   48.7680  119.2860 C.ar  167  TYR167      0.0417
     58  CE2       30.6500   46.5990  120.3050 C.ar  167  TYR167      0.0417
     59  CZ        31.3170   47.5290  119.5250 C.ar  167  TYR167      0.1957
     60  OH        32.5440   47.2400  118.9920 O.3   167  TYR167     -0.2866
     61  N         24.4410   47.3140  121.5920 N.am  168  PRO168     -0.2718
     62  CA        23.4130   47.2770  122.6480 C.3   168  PRO168      0.1535
     63  C         24.0750   47.3100  124.0420 C.2   168  PRO168      0.2598
     64  O         25.2970   47.1230  124.1480 O.2   168  PRO168     -0.2715
     65  CB        22.7050   45.9470  122.3920 C.3   168  PRO168      0.0310
     66  CG        23.7430   45.0820  121.7440 C.3   168  PRO168      0.0237
     67  CD        24.7220   45.9630  121.0430 C.3   168  PRO168      0.0939
     68  N         23.2770   47.5630  125.0970 N.am  169  MET169     -0.1964
     69  CA        23.6500   47.5830  126.5300 C.3   169  MET169      0.1736
     70  C         24.5320   48.7630  126.9740 C.2   169  MET169      0.2616
     71  O         24.9750   48.8100  128.1340 O.2   169  MET169     -0.2715
     72  CB        24.2950   46.2600  126.9870 C.3   169  MET169      0.0427
     73  CG        23.4620   45.0290  126.7030 C.3   169  MET169      0.0599
     74  SD        24.4880   43.5750  127.0770 S.3   169  MET169     -0.1393
     75  CE        25.2960   43.3410  125.5080 C.3   169  MET169      0.0692
     76  N         24.7880   49.7110  126.0610 N.am  170  VAL170     -0.1977
     77  CA        25.6400   50.8970  126.3130 C.3   170  VAL170      0.1596
     78  C         25.0960   52.1760  125.6800 C.2   170  VAL170      0.2287
     79  O         25.8890   53.0070  125.2570 O.2   170  VAL170     -0.2864
     80  CB        27.1200   50.6400  125.8890 C.3   170  VAL170      0.0276
     81  CG1       27.8500   49.7680  126.9080 C.3   170  VAL170      0.0022
     82  CG2       27.2280   50.0790  124.4620 C.3   170  VAL170      0.0022
     83  N         26.4020   55.5680  127.3660 N.3   173  TYR173     -0.1241
     84  CA        27.8450   55.5670  127.1520 C.3   173  TYR173      0.1605
     85  C         28.1830   55.8970  125.6850 C.2   173  TYR173      0.2264
     86  O         29.0080   56.7670  125.4150 O.2   173  TYR173     -0.2867
     87  CB        28.4240   54.1990  127.5770 C.3   173  TYR173      0.0534
     88  CG        29.8770   53.9910  127.1940 C.ar  173  TYR173     -0.0201
     89  CD1       30.9040   54.4920  127.9840 C.ar  173  TYR173     -0.0009
     90  CD2       30.2210   53.2680  126.0500 C.ar  173  TYR173     -0.0009
     91  CE1       32.2350   54.2840  127.6490 C.ar  173  TYR173      0.0417
     92  CE2       31.5540   53.0720  125.6900 C.ar  173  TYR173      0.0417
     93  CZ        32.5590   53.5660  126.5010 C.ar  173  TYR173      0.1957
     94  OH        33.8750   53.3460  126.1610 O.3   173  TYR173     -0.2866
     95  N         38.8370   52.7490  120.5400 N.3   205  LEU205     -0.1231
     96  CA        39.3020   51.4940  121.1190 C.3   205  LEU205      0.1693
     97  C         38.2580   50.4190  121.1770 C.2   205  LEU205      0.2593
     98  O         37.0810   50.6990  121.4220 O.2   205  LEU205     -0.2718
     99  CB        39.8810   51.6920  122.5420 C.3   205  LEU205      0.0284
    100  CG        40.7240   52.9330  122.8450 C.3   205  LEU205      0.0019
    101  CD1       41.0850   52.9830  124.3110 C.3   205  LEU205      0.0001
    102  CD2       41.9650   53.0190  121.9540 C.3   205  LEU205      0.0001
    103  N         38.7280   49.1810  121.0120 N.am  206  GLY206     -0.1942
    104  CA        37.9360   47.9730  121.1690 C.3   206  GLY206      0.2014
    105  C         38.0930   47.5220  122.6030 C.2   206  GLY206      0.2639
    106  O         38.5770   48.2840  123.4290 O.2   206  GLY206     -0.2714
    107  N         37.6930   46.3050  122.9240 N.am  207  LEU207     -0.1963
    108  CA        37.8390   45.7900  124.2850 C.3   207  LEU207      0.1728
    109  C         39.3040   45.7420  124.7450 C.2   207  LEU207      0.2616
    110  O         40.1680   45.2430  124.0180 O.2   207  LEU207     -0.2715
    111  CB        37.1720   44.4040  124.4090 C.3   207  LEU207      0.0311
    112  CG        36.9780   43.8620  125.8290 C.3   207  LEU207      0.0022
    113  CD1       36.0420   44.7550  126.6370 C.3   207  LEU207      0.0001
    114  CD2       36.4640   42.4590  125.7810 C.3   207  LEU207      0.0001
    115  N         39.5690   46.2910  125.9530 N.am  208  ILE208     -0.1977
    116  CA        40.9010   46.3800  126.5470 C.3   208  ILE208      0.1596
    117  C         40.8370   45.6300  127.8640 C.2   208  ILE208      0.2287
    118  O         39.8380   45.7350  128.5730 O.2   208  ILE208     -0.2864
    119  CB        41.4320   47.8530  126.6920 C.3   208  ILE208      0.0276
    120  CG1       41.1350   48.7520  125.4400 C.3   208  ILE208      0.0022
    121  CG2       42.9060   47.8870  127.0470 C.3   208  ILE208      0.0022
    122  CD1       41.7770   48.2720  124.0840 C.3   208  ILE208      0.0001
    123  N         41.3400   45.8450  130.9090 N.3   210  THR210     -0.1218
    124  CA        41.3840   46.5280  132.2050 C.3   210  THR210      0.1862
    125  C         40.4760   45.7680  133.1680 C.2   210  THR210      0.2287
    126  O         39.5220   45.1260  132.7210 O.2   210  THR210     -0.2866
    127  CB        40.9970   48.0180  132.1090 C.3   210  THR210      0.1770
    128  OG1       39.6120   48.1360  131.7550 O.3   210  THR210     -0.2211
    129  CG2       41.8730   48.7840  131.1290 C.3   210  THR210      0.0375
    130  N         38.2160   46.8510  135.2400 N.3   212  THR212     -0.1203
    131  CA        36.8430   47.3430  135.1130 C.3   212  THR212      0.1994
    132  C         36.1130   46.6920  133.9490 C.2   212  THR212      0.2617
    133  O         35.0160   46.1760  134.1650 O.2   212  THR212     -0.2717
    134  CB        36.8070   48.8740  135.0350 C.3   212  THR212      0.1784
    135  OG1       37.5420   49.3940  136.1230 O.3   212  THR212     -0.2211
    136  CG2       35.4000   49.4360  135.0970 C.3   212  THR212      0.0376
    137  N         36.7100   46.7030  132.7310 N.am  213  ALA213     -0.1979
    138  CA        36.0980   46.0940  131.5300 C.3   213  ALA213      0.1597
    139  C         35.9070   44.5900  131.6760 C.2   213  ALA213      0.2287
    140  O         34.8450   44.0810  131.3340 O.2   213  ALA213     -0.2864
    141  CB        36.9310   46.3940  130.2940 C.3   213  ALA213      0.0319
    142  N         33.0880   44.0060  134.0800 N.3   216  ALA216     -0.1231
    143  CA        31.8460   44.4420  133.4380 C.3   216  ALA216      0.1694
    144  C         31.2970   43.4700  132.3720 C.2   216  ALA216      0.2591
    145  O         30.0890   43.3140  132.2760 O.2   216  ALA216     -0.2718
    146  CB        32.0390   45.8320  132.8420 C.3   216  ALA216      0.0304
    147  N         32.1730   42.8100  131.5980 N.am  217  VAL217     -0.1980
    148  CA        31.7690   41.8850  130.5190 C.3   217  VAL217      0.1595
    149  C         31.5350   40.4630  131.0290 C.2   217  VAL217      0.2287
    150  O         30.8250   39.6850  130.3840 O.2   217  VAL217     -0.2864
    151  CB        32.7340   41.9200  129.2930 C.3   217  VAL217      0.0276
    152  CG1       32.8010   43.3160  128.7010 C.3   217  VAL217      0.0022
    153  CG2       34.1410   41.4270  129.6440 C.3   217  VAL217      0.0022
    154  N         29.2560   38.9930  128.0670 N.3   221  VAL221     -0.1245
    155  CA        29.8210   39.0070  126.7520 C.3   221  VAL221      0.1561
    156  C         31.1800   38.2610  126.7410 C.2   221  VAL221      0.2260
    157  O         31.9570   38.3660  127.6900 O.2   221  VAL221     -0.2867
    158  CB        29.8100   40.5050  126.3240 C.3   221  VAL221      0.0252
    159  CG1       31.1210   40.9800  125.7480 C.3   221  VAL221      0.0019
    160  CG2       28.6310   40.8020  125.4080 C.3   221  VAL221      0.0019
    161  N         34.3870   37.7960  124.4680 N.3   223  MET223     -0.1245
    162  CA        35.1190   38.3570  123.3510 C.3   223  MET223      0.1570
    163  C         36.5600   38.6650  123.7250 C.2   223  MET223      0.2261
    164  O         36.8950   38.8260  124.9000 O.2   223  MET223     -0.2867
    165  CB        34.3950   39.6040  122.8260 C.3   223  MET223      0.0387
    166  CG        34.1320   40.6130  123.9170 C.3   223  MET223      0.0595
    167  SD        33.2340   42.0740  123.4130 S.3   223  MET223     -0.1393
    168  CE        34.3420   42.7370  122.1700 C.3   223  MET223      0.0692
    169  N         42.2080   47.7440  118.2530 N.3   249  ASP249     -0.1239
    170  CA        41.3310   46.5970  118.5000 C.3   249  ASP249      0.1674
    171  C         42.0240   45.2770  118.1520 C.2   249  ASP249      0.2266
    172  O         42.9180   45.2590  117.3110 O.2   249  ASP249     -0.2867
    173  CB        40.0180   46.7260  117.6830 C.3   249  ASP249      0.1410
    174  CG        38.9390   45.7120  118.0420 C.2   249  ASP249      0.3668
    175  OD1       38.5800   45.6220  119.2300 O.co2 249  ASP249     -0.2456
    176  OD2       38.4950   44.9870  117.1500 O.co2 249  ASP249     -0.2456
@<TRIPOS>BOND
     1    43    41    1
     2   176   174   ar
     3   172   171    2
     4   173   174    1
     5   173   170    1
     6    39    38    2
     7   174   175   ar
     8   171   170    1
     9   169   170    1
    10    42    41    1
    11    41    40    1
    12    40    37    1
    13    37    38    1
    14    37    36    1
    15    38    44   am
    16    60    59    1
    17    57    59   ar
    18    57    55   ar
    19    59    58   ar
    20    49    50    1
    21    33    32    2
    22    55    54   ar
    23    36    32   am
    24    44    45    1
    25    58    56   ar
    26    50    53    1
    27    50    51    1
    28    32    31    1
    29    46    47    2
    30    46    45    1
    31    95    96    1
    32    54    56   ar
    33    54    53    1
    34    45    48    1
    35   103   104    1
    36   103    97   am
    37    67    61    1
    38    67    66    1
    39    96    97    1
    40    96    99    1
    41   104   105    1
    42    97    98    2
    43    51    61   am
    44    51    52    2
    45    61    62    1
    46    66    65    1
    47    31    30    1
    48    31    34    1
    49   102   100    1
    50   168   167    1
    51    65    62    1
    52    99   100    1
    53   105   107   am
    54   105   106    2
    55    62    63    1
    56    35    34    1
    57   165   162    1
    58   165   166    1
    59   100   101    1
    60   107   108    1
    61   162   163    1
    62   162   161    1
    63   167   166    1
    64   163   164    2
    65   110   109    2
    66    63    64    2
    67    63    68   am
    68   122   120    1
    69   108   111    1
    70   108   109    1
    71   111   112    1
    72    82    80    1
    73   109   115   am
    74    68    69    1
    75    79    78    2
    76   160   158    1
    77    86    85    2
    78   120   119    1
    79    75    74    1
    80    78    77    1
    81    85    84    1
    82    92    90   ar
    83    92    93   ar
    84   159   158    1
    85   114   112    1
    86   112   113    1
    87    80    77    1
    88    80    81    1
    89   115   116    1
    90    90    88   ar
    91    76    77    1
    92    76    70   am
    93    94    93    1
    94   158   155    1
    95    93    91   ar
    96    69    70    1
    97    69    72    1
    98   116   119    1
    99   116   117    1
   100   119   121    1
   101    73    72    1
   102    73    74    1
   103   156   155    1
   104   156   157    2
   105   155   154    1
   106    70    71    2
   107    84    83    1
   108    84    87    1
   109    88    87    1
   110    88    89   ar
   111    91    89   ar
   112   117   118    2
   113    29    27    1
   114    28    27    1
   115   152   151    1
   116   151   153    1
   117   151   148    1
   118    27    26    1
   119     7     5    1
   120    26    23    1
   121   141   138    1
   122   150   149    2
   123   148   149    1
   124   148   147    1
   125    23    24    1
   126    23    22    1
   127   123   124    1
   128   129   127    1
   129    24    25    2
   130    15    13    1
   131     8     6    1
   132     5     6    1
   133     5     2    1
   134   140   139    2
   135   138   139    1
   136   138   137    1
   137   147   144   am
   138    19    18    2
   139   128   127    1
   140    22    18   am
   141    14    13    1
   142   127   124    1
   143    13    10    1
   144   124   125    1
   145     2     1    1
   146     2     3    1
   147   145   144    2
   148    18    17    1
   149   144   143    1
   150   126   125    2
   151   137   132   am
   152   146   143    1
   153   143   142    1
   154    17    16    1
   155    17    20    1
   156     3     4    2
   157    16    11   am
   158    10    11    1
   159    10     9    1
   160    11    12    2
   161   132   133    2
   162   132   131    1
   163    20    21    1
   164   134   136    1
   165   134   131    1
   166   134   135    1
   167   131   130    1
