@<TRIPOS>MOLECULE
tmp/5pgxA01.pdb
 168 159 0 0 0
SMALL
GASTEIGER

@<TRIPOS>ATOM
      1  N         52.9300   53.6400   78.4990 N.3    96  ILE96      -0.1245
      2  CA        51.5430   53.5980   78.0090 C.3    96  ILE96       0.1561
      3  C         51.5430   53.7410   76.4920 C.2    96  ILE96       0.2260
      4  O         52.4360   54.3920   75.9460 O.2    96  ILE96      -0.2867
      5  CB        50.5810   54.6530   78.6540 C.3    96  ILE96       0.0252
      6  CG1       51.1200   56.1030   78.5250 C.3    96  ILE96       0.0019
      7  CG2       50.2030   54.3070   80.1010 C.3    96  ILE96       0.0019
      8  CD1       50.0410   57.1740   78.0790 C.3    96  ILE96       0.0001
      9  N         47.6030   57.9020   73.7510 N.3    99  THR99      -0.1203
     10  CA        46.1680   58.0930   73.9860 C.3    99  THR99       0.1994
     11  C         45.7420   59.5470   73.8120 C.2    99  THR99       0.2619
     12  O         46.4560   60.4520   74.2250 O.2    99  THR99      -0.2717
     13  CB        45.7690   57.6270   75.4260 C.3    99  THR99       0.1784
     14  OG1       46.6370   56.6060   75.8710 O.3    99  THR99      -0.2211
     15  CG2       44.3350   57.1260   75.5090 C.3    99  THR99       0.0376
     16  N         44.5280   59.7550   73.3020 N.am  100  SER100     -0.1937
     17  CA        43.9320   61.0780   73.2020 C.3   100  SER100      0.2055
     18  C         42.5300   61.0480   73.8030 C.2   100  SER100      0.2642
     19  O         41.9420   59.9690   73.9660 O.2   100  SER100     -0.2714
     20  CB        43.9130   61.5810   71.7570 C.3   100  SER100      0.2130
     21  OG        43.0700   60.8120   70.9160 O.3   100  SER100     -0.2179
     22  N         42.0140   62.2290   74.1720 N.am  101  LEU101     -0.1977
     23  CA        40.6720   62.3760   74.7180 C.3   101  LEU101      0.1596
     24  C         39.6720   62.2550   73.5670 C.2   101  LEU101      0.2287
     25  O         39.7810   62.9830   72.5820 O.2   101  LEU101     -0.2864
     26  CB        40.5070   63.7100   75.4860 C.3   101  LEU101      0.0297
     27  CG        41.3180   63.8790   76.7940 C.3   101  LEU101      0.0022
     28  CD1       41.4740   65.3370   77.1510 C.3   101  LEU101      0.0001
     29  CD2       40.6620   63.1810   77.9630 C.3   101  LEU101      0.0001
     30  N         46.8400   56.0890   87.5700 N.3   145  SER145     -0.1202
     31  CA        46.1820   57.3930   87.4450 C.3   145  SER145      0.2020
     32  C         44.9610   57.4600   88.3590 C.2   145  SER145      0.2619
     33  O         44.5320   56.4380   88.8840 O.2   145  SER145     -0.2717
     34  CB        45.7390   57.5730   85.9900 C.3   145  SER145      0.2103
     35  OG        44.7780   58.5860   85.7710 O.3   145  SER145     -0.2182
     36  N         44.3800   58.6680   88.5230 N.am  146  LEU146     -0.1965
     37  CA        43.1240   58.8730   89.2400 C.3   146  LEU146      0.1728
     38  C         42.0240   58.1500   88.4430 C.2   146  LEU146      0.2616
     39  O         41.1110   57.5920   89.0480 O.2   146  LEU146     -0.2715
     40  CB        42.7850   60.3670   89.3500 C.3   146  LEU146      0.0311
     41  CG        43.5770   61.2170   90.3620 C.3   146  LEU146      0.0022
     42  CD1       43.1740   62.6750   90.2570 C.3   146  LEU146      0.0001
     43  CD2       43.3620   60.7320   91.8010 C.3   146  LEU146      0.0001
     44  N         42.1530   58.0930   87.0870 N.am  147  ALA147     -0.1977
     45  CA        41.2550   57.3840   86.1570 C.3   147  ALA147      0.1597
     46  C         41.3760   55.8620   86.3640 C.2   147  ALA147      0.2287
     47  O         40.6330   55.0850   85.7720 O.2   147  ALA147     -0.2864
     48  CB        41.6050   57.7410   84.7180 C.3   147  ALA147      0.0319
     49  N         36.0000   58.7720   84.6320 N.3   152  TYR152     -0.1228
     50  CA        36.0380   60.0430   83.9000 C.3   152  TYR152      0.1721
     51  C         35.5970   59.7570   82.4710 C.2   152  TYR152      0.2437
     52  O         36.0250   58.7390   81.9120 O.2   152  TYR152     -0.2733
     53  CB        37.4750   60.5630   83.7810 C.3   152  TYR152      0.0547
     54  CG        38.1570   61.0470   85.0350 C.ar  152  TYR152     -0.0200
     55  CD1       38.7610   60.1520   85.9120 C.ar  152  TYR152     -0.0009
     56  CD2       38.3490   62.4110   85.2630 C.ar  152  TYR152     -0.0009
     57  CE1       39.4790   60.5980   87.0210 C.ar  152  TYR152      0.0417
     58  CE2       39.0940   62.8670   86.3510 C.ar  152  TYR152      0.0417
     59  CZ        39.6440   61.9530   87.2350 C.ar  152  TYR152      0.1957
     60  OH        40.3680   62.3810   88.3130 O.3   152  TYR152     -0.2866
     61  N         34.8600   60.6720   81.8050 N.am  153  PRO153     -0.2718
     62  CA        34.5520   60.4520   80.3840 C.3   153  PRO153      0.1535
     63  C         35.7910   60.7010   79.5100 C.2   153  PRO153      0.2598
     64  O         36.7810   61.2560   80.0140 O.2   153  PRO153     -0.2715
     65  CB        33.4840   61.5120   80.0930 C.3   153  PRO153      0.0310
     66  CG        33.7890   62.6240   81.0640 C.3   153  PRO153      0.0237
     67  CD        34.3060   61.9520   82.2980 C.3   153  PRO153      0.0939
     68  N         35.7230   60.2960   78.2060 N.am  154  MET154     -0.1964
     69  CA        36.7140   60.5260   77.1260 C.3   154  MET154      0.1736
     70  C         38.0300   59.7280   77.2020 C.2   154  MET154      0.2616
     71  O         38.9000   59.9140   76.3320 O.2   154  MET154     -0.2715
     72  CB        37.0560   62.0190   76.9790 C.3   154  MET154      0.0427
     73  CG        35.8780   62.9000   76.6810 C.3   154  MET154      0.0599
     74  SD        36.4030   64.6290   76.8370 S.3   154  MET154     -0.1393
     75  CE        36.3850   64.8650   78.6530 C.3   154  MET154      0.0692
     76  N         38.1620   58.8430   78.2050 N.am  155  VAL155     -0.1977
     77  CA        39.3320   57.9920   78.4220 C.3   155  VAL155      0.1596
     78  C         38.8850   56.5660   78.8320 C.2   155  VAL155      0.2287
     79  O         39.5360   55.9370   79.6840 O.2   155  VAL155     -0.2864
     80  CB        40.2930   58.6100   79.4830 C.3   155  VAL155      0.0276
     81  CG1       41.1100   59.7480   78.9020 C.3   155  VAL155      0.0022
     82  CG2       39.5550   59.0540   80.7570 C.3   155  VAL155      0.0022
     83  N         41.5370   53.7570   78.4390 N.3   158  TYR158     -0.1241
     84  CA        42.6400   54.1170   79.3130 C.3   158  TYR158      0.1605
     85  C         42.2820   53.7890   80.7620 C.2   158  TYR158      0.2264
     86  O         43.1010   53.2400   81.4810 O.2   158  TYR158     -0.2867
     87  CB        42.9940   55.6090   79.1140 C.3   158  TYR158      0.0534
     88  CG        44.0410   56.1290   80.0730 C.ar  158  TYR158     -0.0201
     89  CD1       45.3980   56.0410   79.7710 C.ar  158  TYR158     -0.0009
     90  CD2       43.6800   56.6800   81.3010 C.ar  158  TYR158     -0.0009
     91  CE1       46.3680   56.4950   80.6640 C.ar  158  TYR158      0.0417
     92  CE2       44.6390   57.1490   82.1930 C.ar  158  TYR158      0.0417
     93  CZ        45.9810   57.0400   81.8790 C.ar  158  TYR158      0.1957
     94  OH        46.9200   57.5210   82.7550 O.3   158  TYR158     -0.2866
     95  N         48.1070   59.0890   90.1130 N.3   190  LEU190     -0.1231
     96  CA        48.4880   60.4320   89.7110 C.3   190  LEU190      0.1693
     97  C         47.3810   61.1950   89.0280 C.2   190  LEU190      0.2593
     98  O         46.6280   60.6360   88.2400 O.2   190  LEU190     -0.2718
     99  CB        49.7160   60.4230   88.7860 C.3   190  LEU190      0.0284
    100  CG        50.7690   59.3160   88.9070 C.3   190  LEU190      0.0019
    101  CD1       51.6830   59.3530   87.7060 C.3   190  LEU190      0.0001
    102  CD2       51.6120   59.4640   90.1780 C.3   190  LEU190      0.0001
    103  N         47.3570   62.4960   89.2900 N.am  191  GLY191     -0.1942
    104  CA        46.4820   63.4590   88.6400 C.3   191  GLY191      0.2014
    105  C         47.2400   64.0370   87.4650 C.2   191  GLY191      0.2638
    106  O         48.2470   63.4600   87.0600 O.2   191  GLY191     -0.2714
    107  N         46.7820   65.1710   86.9030 N.am  192  LEU192     -0.1977
    108  CA        47.4440   65.7640   85.7380 C.3   192  LEU192      0.1596
    109  C         48.8490   66.2490   86.0390 C.2   192  LEU192      0.2287
    110  O         49.0750   66.9210   87.0390 O.2   192  LEU192     -0.2864
    111  CB        46.6120   66.8630   85.0670 C.3   192  LEU192      0.0297
    112  CG        47.0740   67.2340   83.6490 C.3   192  LEU192      0.0022
    113  CD1       46.7790   66.1180   82.6500 C.3   192  LEU192      0.0001
    114  CD2       46.4440   68.5150   83.2010 C.3   192  LEU192      0.0001
    115  N         53.5320   67.1160   81.4840 N.3   195  THR195     -0.1218
    116  CA        54.4020   66.5240   80.4560 C.3   195  THR195      0.1862
    117  C         53.9940   67.1060   79.1010 C.2   195  THR195      0.2287
    118  O         52.8510   67.5360   78.9450 O.2   195  THR195     -0.2866
    119  CB        54.4010   64.9740   80.4770 C.3   195  THR195      0.1770
    120  OG1       53.1620   64.4690   79.9940 O.3   195  THR195     -0.2211
    121  CG2       54.7110   64.3900   81.8540 C.3   195  THR195      0.0375
    122  N         53.3410   65.6600   76.2760 N.3   197  THR197     -0.1203
    123  CA        52.2820   64.8400   75.6850 C.3   197  THR197      0.1994
    124  C         50.9240   65.1590   76.3290 C.2   197  THR197      0.2617
    125  O         49.9390   65.3160   75.6070 O.2   197  THR197     -0.2717
    126  CB        52.6310   63.3480   75.8080 C.3   197  THR197      0.1784
    127  OG1       54.0330   63.1610   75.6240 O.3   197  THR197     -0.2211
    128  CG2       51.8470   62.4800   74.8310 C.3   197  THR197      0.0376
    129  N         50.8820   65.2510   77.6840 N.am  198  ALA198     -0.1979
    130  CA        49.6700   65.5570   78.4540 C.3   198  ALA198      0.1597
    131  C         49.1020   66.9180   78.1330 C.2   198  ALA198      0.2287
    132  O         47.9210   67.0080   77.8500 O.2   198  ALA198     -0.2864
    133  CB        49.9380   65.4580   79.9410 C.3   198  ALA198      0.0319
    134  N         47.5690   66.8720   74.7010 N.3   201  ALA201     -0.1231
    135  CA        46.3550   66.0590   74.6430 C.3   201  ALA201      0.1694
    136  C         45.1520   66.6480   75.4220 C.2   201  ALA201      0.2591
    137  O         44.0080   66.3750   75.0460 O.2   201  ALA201     -0.2718
    138  CB        46.6480   64.6330   75.0900 C.3   201  ALA201      0.0304
    139  N         45.4050   67.4530   76.4860 N.am  202  VAL202     -0.1980
    140  CA        44.3430   68.0490   77.3220 C.3   202  VAL202      0.1595
    141  C         43.8950   69.4610   76.8470 C.2   202  VAL202      0.2287
    142  O         42.7700   69.8690   77.1660 O.2   202  VAL202     -0.2864
    143  CB        44.6650   68.0440   78.8540 C.3   202  VAL202      0.0276
    144  CG1       45.0390   66.6490   79.3480 C.3   202  VAL202      0.0022
    145  CG2       45.7340   69.0710   79.2350 C.3   202  VAL202      0.0022
    146  N         39.8810   69.5460   79.1200 N.3   206  VAL206     -0.1245
    147  CA        40.0070   69.7100   80.5520 C.3   206  VAL206      0.1561
    148  C         41.1830   70.6350   80.8210 C.2   206  VAL206      0.2260
    149  O         42.3120   70.3420   80.4160 O.2   206  VAL206     -0.2867
    150  CB        40.1650   68.3440   81.2640 C.3   206  VAL206      0.0252
    151  CG1       40.3090   68.5050   82.7740 C.3   206  VAL206      0.0019
    152  CG2       38.9160   67.5020   80.9880 C.3   206  VAL206      0.0019
    153  N         42.3380   71.6970   83.9640 N.3   208  MET208     -0.1245
    154  CA        42.5450   71.5590   85.4090 C.3   208  MET208      0.1570
    155  C         43.9870   72.0030   85.7140 C.2   208  MET208      0.2261
    156  O         44.7660   72.2140   84.7780 O.2   208  MET208     -0.2867
    157  CB        42.2730   70.1040   85.8840 C.3   208  MET208      0.0387
    158  CG        43.0900   69.0230   85.1550 C.3   208  MET208      0.0595
    159  SD        43.0650   67.3750   85.9350 S.3   208  MET208     -0.1393
    160  CE        41.4120   66.7920   85.4750 C.3   208  MET208      0.0692
    161  N         48.6820   64.6410   93.2980 N.3   234  ASP234     -0.1239
    162  CA        47.8100   65.5420   92.5340 C.3   234  ASP234      0.1674
    163  C         47.7840   66.9620   93.1380 C.2   234  ASP234      0.2266
    164  O         47.8980   67.1220   94.3550 O.2   234  ASP234     -0.2867
    165  CB        46.3740   64.9650   92.4360 C.3   234  ASP234      0.1410
    166  CG        45.3750   65.8390   91.6960 C.2   234  ASP234      0.3668
    167  OD1       45.6240   66.1650   90.5100 O.co2 234  ASP234     -0.2456
    168  OD2       44.3700   66.2210   92.3050 O.co2 234  ASP234     -0.2456
@<TRIPOS>BOND
     1    21    20    1
     2    20    17    1
     3    25    24    2
     4    17    16    1
     5    17    18    1
     6    16    11   am
     7    24    23    1
     8     9    10    1
     9    18    19    2
    10    18    22   am
    11    11    10    1
    12    11    12    2
    13    10    13    1
    14    22    23    1
    15   135   134    1
    16   135   138    1
    17   135   136    1
    18    23    26    1
    19   128   126    1
    20   137   136    2
    21   136   139   am
    22    13    15    1
    23    13    14    1
    24    26    27    1
    25   125   124    2
    26   127   126    1
    27   123   126    1
    28   123   122    1
    29   123   124    1
    30     4     3    2
    31   124   129   am
    32    71    70    2
    33   139   140    1
    34     3     2    1
    35    73    74    1
    36    73    72    1
    37    27    28    1
    38    27    29    1
    39    74    75    1
    40   141   142    2
    41   141   140    1
    42    72    69    1
    43    69    70    1
    44    69    68    1
    45    70    76   am
    46   140   143    1
    47   129   130    1
    48   132   131    2
    49     2     1    1
    50     2     5    1
    51     8     6    1
    52   131   130    1
    53    76    77    1
    54    68    63   am
    55    77    78    1
    56    77    80    1
    57    83    84    1
    58   130   133    1
    59     6     5    1
    60     5     7    1
    61    78    79    2
    62   143   145    1
    63   143   144    1
    64    81    80    1
    65   118   117    2
    66   117   116    1
    67    87    84    1
    68    87    88    1
    69   146   147    1
    70    84    85    1
    71    80    82    1
    72    63    64    2
    73    63    62    1
    74    89    88   ar
    75    89    91   ar
    76   120   119    1
    77    88    90   ar
    78    65    62    1
    79    65    66    1
    80    62    61    1
    81   149   148    2
    82   116   119    1
    83   116   115    1
    84   119   121    1
    85   147   148    1
    86   147   150    1
    87    91    93   ar
    88    85    86    2
    89   152   150    1
    90    66    67    1
    91   150   151    1
    92    90    92   ar
    93    61    67    1
    94    61    51   am
    95    93    92   ar
    96    93    94    1
    97    52    51    2
    98    51    50    1
    99   113   112    1
   100   114   112    1
   101   112   111    1
   102    53    50    1
   103    53    54    1
   104    50    49    1
   105   153   154    1
   106    48    45    1
   107   156   155    2
   108    54    56   ar
   109    54    55   ar
   110   111   108    1
   111   158   157    1
   112   158   159    1
   113    56    58   ar
   114   154   155    1
   115   154   157    1
   116   160   159    1
   117   108   109    1
   118   108   107    1
   119    35    34    1
   120    47    46    2
   121    55    57   ar
   122    34    31    1
   123   109   110    2
   124    45    46    1
   125    45    44    1
   126    58    59   ar
   127   107   105   am
   128    57    59   ar
   129   106   105    2
   130    44    38   am
   131    59    60    1
   132    31    30    1
   133    31    32    1
   134   105   104    1
   135   101   100    1
   136    98    97    2
   137    32    36   am
   138    32    33    2
   139    38    39    2
   140    38    37    1
   141    36    37    1
   142   104   103    1
   143    99   100    1
   144    99    96    1
   145   100   102    1
   146    97   103   am
   147    97    96    1
   148    37    40    1
   149    40    41    1
   150    96    95    1
   151    42    41    1
   152    41    43    1
   153   167   166   ar
   154   166   168   ar
   155   166   165    1
   156   165   162    1
   157   162   163    1
   158   162   161    1
   159   163   164    2
