@<TRIPOS>MOLECULE
tmp/5pgyD01.pdb
 160 151 0 0 0
SMALL
GASTEIGER

@<TRIPOS>ATOM
      1  N         15.1510   71.7540  119.3470 N.3    97  ILE97      -0.1245
      2  CA        16.5380   71.9780  119.7370 C.3    97  ILE97       0.1561
      3  C         16.5590   73.2730  120.4990 C.2    97  ILE97       0.2260
      4  O         15.5830   74.0140  120.4280 O.2    97  ILE97      -0.2867
      5  CB        17.5850   71.9860  118.5720 C.3    97  ILE97       0.0252
      6  CG1       17.2860   73.1050  117.5190 C.3    97  ILE97       0.0019
      7  CG2       17.7500   70.6120  117.9360 C.3    97  ILE97       0.0019
      8  CD1       18.4570   73.5580  116.6680 C.3    97  ILE97       0.0001
      9  N         20.3850   78.0320  118.5190 N.3   100  THR100     -0.1203
     10  CA        21.8070   77.8750  118.2280 C.3   100  THR100      0.1994
     11  C         22.1950   78.8150  117.0830 C.2   100  THR100      0.2619
     12  O         21.4420   78.9930  116.1350 O.2   100  THR100     -0.2717
     13  CB        22.0790   76.3760  117.8780 C.3   100  THR100      0.1784
     14  OG1       21.7050   75.5580  119.0030 O.3   100  THR100     -0.2211
     15  CG2       23.5520   76.0840  117.4960 C.3   100  THR100      0.0376
     16  N         23.3620   79.4230  117.1890 N.am  101  SER101     -0.1937
     17  CA        23.8790   80.2970  116.1390 C.3   101  SER101      0.2055
     18  C         25.2750   79.7610  115.7820 C.2   101  SER101      0.2642
     19  O         25.8370   79.0090  116.5660 O.2   101  SER101     -0.2714
     20  CB        23.9380   81.7350  116.6370 C.3   101  SER101      0.2130
     21  OG        24.6920   81.7930  117.8320 O.3   101  SER101     -0.2179
     22  N         25.8280   80.1130  114.6200 N.am  102  LEU102     -0.1977
     23  CA        27.1390   79.6160  114.2250 C.3   102  LEU102      0.1596
     24  C         28.2200   80.4170  114.9170 C.2   102  LEU102      0.2287
     25  O         28.2460   81.6440  114.7940 O.2   102  LEU102     -0.2864
     26  CB        27.3240   79.6750  112.7010 C.3   102  LEU102      0.0297
     27  CG        26.3020   78.9480  111.8080 C.3   102  LEU102      0.0022
     28  CD1       26.6780   79.0900  110.3420 C.3   102  LEU102      0.0001
     29  CD2       26.2700   77.4880  112.1010 C.3   102  LEU102      0.0001
     30  N         21.0400   65.5640  112.0830 N.3   146  SER146     -0.1202
     31  CA        21.6600   66.4510  111.1120 C.3   146  SER146      0.2020
     32  C         22.8730   65.7800  110.5040 C.2   146  SER146      0.2619
     33  O         23.3880   64.8220  111.0830 O.2   146  SER146     -0.2717
     34  CB        22.1060   67.7130  111.8590 C.3   146  SER146      0.2103
     35  OG        23.0510   68.5080  111.1640 O.3   146  SER146     -0.2182
     36  N         23.3810   66.3280  109.3670 N.am  147  LEU147     -0.1965
     37  CA        24.6550   65.8780  108.7900 C.3   147  LEU147      0.1728
     38  C         25.7610   66.1490  109.8380 C.2   147  LEU147      0.2616
     39  O         26.7410   65.4120  109.9150 O.2   147  LEU147     -0.2715
     40  CB        24.9760   66.6510  107.4980 C.3   147  LEU147      0.0311
     41  CG        24.1980   66.2600  106.2620 C.3   147  LEU147      0.0022
     42  CD1       24.5680   67.1650  105.0890 C.3   147  LEU147      0.0001
     43  CD2       24.4800   64.8300  105.8820 C.3   147  LEU147      0.0001
     44  N         25.5740   67.1990  110.6550 N.am  148  ALA148     -0.1977
     45  CA        26.4790   67.5680  111.7450 C.3   148  ALA148      0.1597
     46  C         26.4100   66.5520  112.9100 C.2   148  ALA148      0.2287
     47  O         27.2040   66.6520  113.8340 O.2   148  ALA148     -0.2864
     48  CB        26.2080   68.9880  112.2340 C.3   148  ALA148      0.0319
     49  N         31.6950   69.4450  111.5180 N.3   153  TYR153     -0.1228
     50  CA        31.5000   70.7590  110.9310 C.3   153  TYR153      0.1721
     51  C         32.0840   71.7650  111.9120 C.2   153  TYR153      0.2437
     52  O         31.7440   71.7000  113.0880 O.2   153  TYR153     -0.2733
     53  CB        30.0020   71.0900  110.7930 C.3   153  TYR153      0.0547
     54  CG        29.2920   70.5420  109.5880 C.ar  153  TYR153     -0.0200
     55  CD1       28.8440   69.2280  109.5610 C.ar  153  TYR153     -0.0009
     56  CD2       28.9440   71.3720  108.5250 C.ar  153  TYR153     -0.0009
     57  CE1       28.1580   68.7200  108.4610 C.ar  153  TYR153      0.0417
     58  CE2       28.2230   70.8870  107.4350 C.ar  153  TYR153      0.0417
     59  CZ        27.8570   69.5530  107.3950 C.ar  153  TYR153      0.1957
     60  OH        27.1630   69.0590  106.3240 O.3   153  TYR153     -0.2866
     61  N         32.8810   72.7620  111.4700 N.am  154  PRO154     -0.2729
     62  CA        33.2950   73.8120  112.4070 C.3   154  PRO154      0.1401
     63  C         32.0870   74.7280  112.6910 C.2   154  PRO154      0.2269
     64  O         31.0990   74.7060  111.9400 O.2   154  PRO154     -0.2865
     65  CB        34.3810   74.5460  111.6430 C.3   154  PRO154      0.0296
     66  CG        34.0230   74.3760  110.2170 C.3   154  PRO154      0.0237
     67  CD        33.3800   73.0200  110.1020 C.3   154  PRO154      0.0939
     68  N         29.8270   74.6030  115.0840 N.3   156  VAL156     -0.1245
     69  CA        28.6660   73.9430  115.7140 C.3   156  VAL156      0.1561
     70  C         29.1330   72.8180  116.6530 C.2   156  VAL156      0.2260
     71  O         28.4850   71.7800  116.6990 O.2   156  VAL156     -0.2867
     72  CB        27.6540   73.4080  114.6610 C.3   156  VAL156      0.0252
     73  CG1       26.8530   74.5340  114.0100 C.3   156  VAL156      0.0019
     74  CG2       28.3250   72.5130  113.6130 C.3   156  VAL156      0.0019
     75  N         26.3460   71.7620  119.3600 N.3   159  TYR159     -0.1241
     76  CA        25.2080   71.2190  118.6180 C.3   159  TYR159      0.1605
     77  C         25.5690   69.8420  118.0540 C.2   159  TYR159      0.2264
     78  O         24.8180   68.8820  118.2200 O.2   159  TYR159     -0.2867
     79  CB        24.8850   72.1860  117.4790 C.3   159  TYR159      0.0534
     80  CG        23.8830   71.6770  116.4770 C.ar  159  TYR159     -0.0201
     81  CD1       22.5110   71.7680  116.7230 C.ar  159  TYR159     -0.0009
     82  CD2       24.2950   71.1790  115.2450 C.ar  159  TYR159     -0.0009
     83  CE1       21.5780   71.3460  115.7790 C.ar  159  TYR159      0.0417
     84  CE2       23.3670   70.7350  114.2960 C.ar  159  TYR159      0.0417
     85  CZ        22.0110   70.8420  114.5600 C.ar  159  TYR159      0.1957
     86  OH        21.0840   70.4450  113.6290 O.3   159  TYR159     -0.2866
     87  N         19.6770   65.2610  108.2390 N.3   191  LEU191     -0.1231
     88  CA        19.3450   66.3540  107.3400 C.3   191  LEU191      0.1693
     89  C         20.4950   67.2850  107.0190 C.2   191  LEU191      0.2593
     90  O         21.3270   67.5740  107.8840 O.2   191  LEU191     -0.2718
     91  CB        18.1810   67.1830  107.9060 C.3   191  LEU191      0.0284
     92  CG        17.0060   66.4570  108.5910 C.3   191  LEU191      0.0019
     93  CD1       15.9940   67.4670  109.1040 C.3   191  LEU191      0.0001
     94  CD2       16.3520   65.4250  107.6680 C.3   191  LEU191      0.0001
     95  N         20.4850   67.7960  105.7790 N.am  192  GLY192     -0.1942
     96  CA        21.3800   68.8410  105.3250 C.3   192  GLY192      0.2014
     97  C         20.6770   70.1680  105.5600 C.2   192  GLY192      0.2639
     98  O         19.6620   70.1950  106.2770 O.2   192  GLY192     -0.2714
     99  N         21.1640   71.2740  104.9470 N.am  193  LEU193     -0.1963
    100  CA        20.5310   72.5940  105.1290 C.3   193  LEU193      0.1728
    101  C         19.0800   72.6520  104.6110 C.2   193  LEU193      0.2616
    102  O         18.7910   72.2160  103.5020 O.2   193  LEU193     -0.2715
    103  CB        21.3960   73.7300  104.5330 C.3   193  LEU193      0.0311
    104  CG        20.9830   75.1760  104.8840 C.3   193  LEU193      0.0022
    105  CD1       21.1840   75.4930  106.3790 C.3   193  LEU193      0.0001
    106  CD2       21.7390   76.1710  104.0500 C.3   193  LEU193      0.0001
    107  N         18.1690   73.1360  105.4650 N.am  194  ILE194     -0.1977
    108  CA        16.7410   73.2420  105.1610 C.3   194  ILE194      0.1596
    109  C         16.3640   74.7120  105.2360 C.2   194  ILE194      0.2287
    110  O         16.8300   75.4010  106.1480 O.2   194  ILE194     -0.2864
    111  CB        15.8540   72.3510  106.0980 C.3   194  ILE194      0.0276
    112  CG1       16.3970   70.8920  106.2590 C.3   194  ILE194      0.0022
    113  CG2       14.3830   72.3580  105.6490 C.3   194  ILE194      0.0022
    114  CD1       16.5340   69.9840  104.9320 C.3   194  ILE194      0.0001
    115  N         14.4180   76.7440  106.5480 N.3   196  THR196     -0.1218
    116  CA        13.6000   77.3030  107.6370 C.3   196  THR196      0.1862
    117  C         14.1040   78.7250  107.9010 C.2   196  THR196      0.2287
    118  O         15.2760   79.0180  107.6220 O.2   196  THR196     -0.2866
    119  CB        13.6440   76.4210  108.9140 C.3   196  THR196      0.1770
    120  OG1       14.9430   76.5080  109.4920 O.3   196  THR196     -0.2211
    121  CG2       13.2480   74.9560  108.6470 C.3   196  THR196      0.0375
    122  N         14.8280   80.2000  110.7110 N.3   198  THR198     -0.1203
    123  CA        15.9370   80.1470  111.6710 C.3   198  THR198      0.1994
    124  C         17.2650   79.8220  110.9640 C.2   198  THR198      0.2617
    125  O         18.2510   80.5290  111.1910 O.2   198  THR198     -0.2717
    126  CB        15.6270   79.1310  112.7870 C.3   198  THR198      0.1784
    127  OG1       14.4270   79.5180  113.4390 O.3   198  THR198     -0.2211
    128  CG2       16.7520   79.0120  113.7970 C.3   198  THR198      0.0376
    129  N         17.3050   78.7640  110.1330 N.am  199  ALA199     -0.1979
    130  CA        18.5550   78.3740  109.4520 C.3   199  ALA199      0.1597
    131  C         19.0160   79.4100  108.4390 C.2   199  ALA199      0.2287
    132  O         20.2050   79.7240  108.3890 O.2   199  ALA199     -0.2864
    133  CB        18.3990   77.0190  108.7890 C.3   199  ALA199      0.0319
    134  N         20.4940   82.2490  110.4180 N.3   202  ALA202     -0.1231
    135  CA        21.7490   81.8600  111.0650 C.3   202  ALA202      0.1694
    136  C         22.9480   81.7190  110.1140 C.2   202  ALA202      0.2591
    137  O         24.0490   82.1290  110.4860 O.2   202  ALA202     -0.2718
    138  CB        21.5520   80.5980  111.8760 C.3   202  ALA202      0.0304
    139  N         22.7410   81.1840  108.9000 N.am  203  VAL203     -0.1980
    140  CA        23.8290   80.9800  107.9250 C.3   203  VAL203      0.1595
    141  C         24.2240   82.2500  107.1630 C.2   203  VAL203      0.2287
    142  O         25.3280   82.2930  106.5870 O.2   203  VAL203     -0.2864
    143  CB        23.5520   79.8200  106.9270 C.3   203  VAL203      0.0276
    144  CG1       23.3030   78.5090  107.6570 C.3   203  VAL203      0.0022
    145  CG2       22.4050   80.1440  105.9560 C.3   203  VAL203      0.0022
    146  N         27.8820   80.8790  106.0270 N.3   207  VAL207     -0.1245
    147  CA        27.9420   79.6610  105.2470 C.3   207  VAL207      0.1561
    148  C         27.1330   79.8790  103.9790 C.2   207  VAL207      0.2260
    149  O         25.9960   80.3600  104.0210 O.2   207  VAL207     -0.2867
    150  CB        27.4870   78.4190  106.0570 C.3   207  VAL207      0.0252
    151  CG1       27.4700   77.1710  105.1890 C.3   207  VAL207      0.0019
    152  CG2       28.3990   78.1890  107.2450 C.3   207  VAL207      0.0019
    153  N         25.6960   77.8000  101.1400 N.3   209  MET209     -0.1245
    154  CA        25.3030   76.4520  100.7000 C.3   209  MET209      0.1570
    155  C         23.8390   76.4060  100.2370 C.2   209  MET209      0.2261
    156  O         23.0760   77.3450  100.4930 O.2   209  MET209     -0.2867
    157  CB        25.6260   75.3620  101.7630 C.3   209  MET209      0.0387
    158  CG        24.8920   75.5520  103.0860 C.3   209  MET209      0.0595
    159  SD        25.5040   74.6360  104.5340 S.3   209  MET209     -0.1393
    160  CE        25.0570   72.9460  104.0740 C.3   209  MET209      0.0692
@<TRIPOS>BOND
     1   155   156    2
     2   155   154    1
     3   154   153    1
     4   154   157    1
     5   157   158    1
     6   158   159    1
     7   102   101    2
     8   148   149    2
     9   148   147    1
    10   106   104    1
    11   160   159    1
    12   103   104    1
    13   103   100    1
    14   101   100    1
    15   101   107   am
    16   104   105    1
    17   114   112    1
    18    99   100    1
    19    99    97   am
    20    42    41    1
    21   108   109    1
    22   108   107    1
    23   108   111    1
    24   151   150    1
    25   109   110    2
    26   147   146    1
    27   147   150    1
    28    96    97    1
    29    96    95    1
    30    97    98    2
    31   113   111    1
    32    95    89   am
    33    43    41    1
    34   145   143    1
    35   150   152    1
    36   111   112    1
    37    41    40    1
    38    60    59    1
    39   115   116    1
    40   142   141    2
    41   143   144    1
    42   143   140    1
    43    89    88    1
    44    89    90    2
    45   141   140    1
    46    88    91    1
    47    88    87    1
    48    59    58   ar
    49    59    57   ar
    50    58    56   ar
    51    40    37    1
    52   118   117    2
    53   116   117    1
    54   116   119    1
    55    94    92    1
    56    91    92    1
    57   140   139    1
    58   132   131    2
    59   131   130    1
    60    57    55   ar
    61    56    54   ar
    62    92    93    1
    63   121   119    1
    64   133   130    1
    65    37    36    1
    66    37    38    1
    67   139   136   am
    68   119   120    1
    69    36    32   am
    70   130   129    1
    71    55    54   ar
    72    54    53    1
    73    38    39    2
    74    38    44   am
    75    67    66    1
    76    67    61    1
    77   136   137    2
    78   136   135    1
    79   129   124   am
    80    66    65    1
    81    28    27    1
    82   134   135    1
    83    32    33    2
    84    32    31    1
    85    44    45    1
    86   122   123    1
    87    53    50    1
    88    50    49    1
    89    50    51    1
    90   124   125    2
    91   124   123    1
    92   135   138    1
    93    31    34    1
    94    31    30    1
    95    35    34    1
    96    61    51   am
    97    61    62    1
    98    65    62    1
    99   123   126    1
   100    45    48    1
   101    45    46    1
   102    27    29    1
   103    27    26    1
   104    51    52    2
   105    64    63    2
   106    62    63    1
   107    26    23    1
   108   126   127    1
   109   126   128    1
   110    46    47    2
   111    74    72    1
   112    86    85    1
   113    73    72    1
   114    23    22    1
   115    23    24    1
   116    84    85   ar
   117    84    82   ar
   118    85    83   ar
   119    22    18   am
   120    72    69    1
   121    25    24    2
   122    68    69    1
   123    82    80   ar
   124    69    70    1
   125    83    81   ar
   126    18    17    1
   127    18    19    2
   128    12    11    2
   129    17    20    1
   130    17    16    1
   131    80    81   ar
   132    80    79    1
   133    20    21    1
   134    70    71    2
   135     8     6    1
   136    11    16   am
   137    11    10    1
   138    79    76    1
   139    15    13    1
   140     6     5    1
   141    13    10    1
   142    13    14    1
   143     7     5    1
   144    77    78    2
   145    77    76    1
   146    10     9    1
   147     5     2    1
   148    76    75    1
   149     1     2    1
   150     2     3    1
   151     4     3    2
