@<TRIPOS>MOLECULE
tmp/5pgzB01.pdb
 150 140 0 0 0
SMALL
GASTEIGER

@<TRIPOS>ATOM
      1  N         67.1640   68.1180   18.9040 N.3    97  ILE97      -0.1245
      2  CA        68.2010   67.1020   18.6700 C.3    97  ILE97       0.1561
      3  C         69.2100   67.6470   17.6570 C.2    97  ILE97       0.2260
      4  O         68.8290   68.4070   16.7710 O.2    97  ILE97      -0.2867
      5  CB        67.6980   65.6760   18.2330 C.3    97  ILE97       0.0252
      6  CG1       66.8250   65.7100   16.9580 C.3    97  ILE97       0.0019
      7  CG2       67.0130   64.9020   19.3550 C.3    97  ILE97       0.0019
      8  CD1       67.1230   64.5760   16.0210 C.3    97  ILE97       0.0001
      9  N         71.3420   64.1680   12.6630 N.3   100  THR100     -0.1218
     10  CA        71.7630   62.7810   12.5530 C.3   100  THR100      0.1862
     11  C         71.3480   62.2430   11.2020 C.2   100  THR100      0.2287
     12  O         70.2140   62.4590   10.7470 O.2   100  THR100     -0.2866
     13  CB        71.3460   61.8900   13.7490 C.3   100  THR100      0.1770
     14  OG1       70.0170   62.1980   14.1690 O.3   100  THR100     -0.2211
     15  CG2       72.3150   61.9890   14.9260 C.3   100  THR100      0.0375
     16  N         71.4810   58.6140    8.8070 N.3   102  LEU102     -0.1245
     17  CA        71.4890   57.1630    8.9460 C.3   102  LEU102      0.1561
     18  C         72.6580   56.5470    8.2170 C.2   102  LEU102      0.2260
     19  O         72.6690   56.4830    6.9860 O.2   102  LEU102     -0.2867
     20  CB        70.1840   56.5600    8.4450 C.3   102  LEU102      0.0270
     21  CG        69.0910   56.4860    9.4720 C.3   102  LEU102      0.0019
     22  CD1       68.1500   57.6580    9.3460 C.3   102  LEU102      0.0001
     23  CD2       68.3480   55.2010    9.3430 C.3   102  LEU102      0.0001
     24  N         62.2080   58.2940   21.1400 N.3   146  SER146     -0.1202
     25  CA        61.6580   57.5110   20.0460 C.3   146  SER146      0.2020
     26  C         61.6050   56.0550   20.4250 C.2   146  SER146      0.2619
     27  O         61.8740   55.7130   21.5840 O.2   146  SER146     -0.2717
     28  CB        62.4560   57.7140   18.7640 C.3   146  SER146      0.2103
     29  OG        63.7680   57.2020   18.8720 O.3   146  SER146     -0.2182
     30  N         61.2420   55.1930   19.4520 N.am  147  LEU147     -0.1965
     31  CA        61.2070   53.7430   19.6420 C.3   147  LEU147      0.1728
     32  C         62.6400   53.3130   19.8350 C.2   147  LEU147      0.2616
     33  O         62.9260   52.4890   20.7000 O.2   147  LEU147     -0.2715
     34  CB        60.6170   53.0270   18.4120 C.3   147  LEU147      0.0311
     35  CG        59.2120   53.4000   17.9400 C.3   147  LEU147      0.0022
     36  CD1       58.7580   52.4510   16.8700 C.3   147  LEU147      0.0001
     37  CD2       58.2140   53.3600   19.0610 C.3   147  LEU147      0.0001
     38  N         63.5480   53.9700   19.0910 N.am  148  ALA148     -0.1977
     39  CA        64.9960   53.8020   19.1560 C.3   148  ALA148      0.1597
     40  C         65.6380   54.1740   20.5350 C.2   148  ALA148      0.2287
     41  O         66.8450   54.0150   20.7140 O.2   148  ALA148     -0.2864
     42  CB        65.6480   54.5820   18.0320 C.3   148  ALA148      0.0319
     43  N         67.9410   49.5910   16.4150 N.3   153  GLN153     -0.1231
     44  CA        67.8380   49.6090   14.9440 C.3   153  GLN153      0.1683
     45  C         69.2370   49.9400   14.3750 C.2   153  GLN153      0.2434
     46  O         69.9330   50.7580   14.9800 O.2   153  GLN153     -0.2733
     47  CB        66.8880   50.7500   14.5060 C.3   153  GLN153      0.0380
     48  CG        65.5190   50.3150   14.0370 C.3   153  GLN153      0.0905
     49  CD        64.6100   51.5000   13.8100 C.2   153  GLN153      0.2608
     50  OE1       64.1070   52.1270   14.7540 O.2   153  GLN153     -0.2717
     51  NE2       64.3530   51.8170   12.5510 N.am  153  GLN153     -0.0878
     52  N         69.6640   49.4220   13.2000 N.am  154  PRO154     -0.2729
     53  CA        70.9940   49.8100   12.6780 C.3   154  PRO154      0.1401
     54  C         71.0280   51.2330   12.1280 C.2   154  PRO154      0.2269
     55  O         69.9790   51.8000   11.8230 O.2   154  PRO154     -0.2865
     56  CB        71.2640   48.7840   11.5600 C.3   154  PRO154      0.0296
     57  CG        70.2230   47.7070   11.7450 C.3   154  PRO154      0.0237
     58  CD        69.0320   48.4120   12.3270 C.3   154  PRO154      0.0939
     59  N         71.8340   54.1610   13.5870 N.3   156  ILE156     -0.1245
     60  CA        71.5170   55.2350   14.5410 C.3   156  ILE156      0.1561
     61  C         72.1350   55.0100   15.9440 C.2   156  ILE156      0.2260
     62  O         71.5840   55.5120   16.9200 O.2   156  ILE156     -0.2867
     63  CB        69.9820   55.5080   14.6150 C.3   156  ILE156      0.0252
     64  CG1       69.1770   54.2130   14.8170 C.3   156  ILE156      0.0019
     65  CG2       69.4940   56.3010   13.3750 C.3   156  ILE156      0.0019
     66  CD1       68.2320   54.2840   15.8320 C.3   156  ILE156      0.0001
     67  N         72.6270   58.1130   18.2680 N.3   159  TYR159     -0.1241
     68  CA        71.2830   58.6010   18.5080 C.3   159  TYR159      0.1605
     69  C         70.5570   57.7230   19.5430 C.2   159  TYR159      0.2264
     70  O         70.0850   58.2590   20.5450 O.2   159  TYR159     -0.2867
     71  CB        70.5310   58.7650   17.1760 C.3   159  TYR159      0.0534
     72  CG        69.0860   59.1710   17.3180 C.ar  159  TYR159     -0.0201
     73  CD1       68.7380   60.4600   17.7050 C.ar  159  TYR159     -0.0009
     74  CD2       68.0620   58.2760   17.0340 C.ar  159  TYR159     -0.0009
     75  CE1       67.4030   60.8290   17.8680 C.ar  159  TYR159      0.0417
     76  CE2       66.7240   58.6320   17.1880 C.ar  159  TYR159      0.0417
     77  CZ        66.3960   59.9090   17.6040 C.ar  159  TYR159      0.1957
     78  OH        65.0610   60.2210   17.7100 O.3   159  TYR159     -0.2866
     79  N         58.1740   57.8880   20.4440 N.3   191  LEU191     -0.1231
     80  CA        57.5080   58.0920   19.1520 C.3   191  LEU191      0.1693
     81  C         58.0570   57.2060   18.0420 C.2   191  LEU191      0.2593
     82  O         59.2480   56.8670   18.0430 O.2   191  LEU191     -0.2718
     83  CB        57.6070   59.5780   18.6900 C.3   191  LEU191      0.0284
     84  CG        57.4630   60.7140   19.7460 C.3   191  LEU191      0.0019
     85  CD1       57.9970   62.0190   19.2140 C.3   191  LEU191      0.0001
     86  CD2       56.0080   60.8740   20.2280 C.3   191  LEU191      0.0001
     87  N         57.1830   56.8670   17.0850 N.am  192  GLY192     -0.1942
     88  CA        57.5250   56.1430   15.8620 C.3   192  GLY192      0.2014
     89  C         57.8390   57.1310   14.7500 C.2   192  GLY192      0.2639
     90  O         57.9820   58.3190   15.0310 O.2   192  GLY192     -0.2714
     91  N         57.9350   56.6770   13.4800 N.am  193  LEU193     -0.1963
     92  CA        58.2250   57.5460   12.3160 C.3   193  LEU193      0.1728
     93  C         57.1720   58.6400   12.0990 C.2   193  LEU193      0.2616
     94  O         55.9860   58.3340   11.9470 O.2   193  LEU193     -0.2715
     95  CB        58.4200   56.7190   11.0390 C.3   193  LEU193      0.0311
     96  CG        58.8570   57.4700    9.7910 C.3   193  LEU193      0.0022
     97  CD1       60.2520   58.0730    9.9440 C.3   193  LEU193      0.0001
     98  CD2       58.8250   56.5530    8.5960 C.3   193  LEU193      0.0001
     99  N         57.6220   59.9150   12.1270 N.am  194  ILE194     -0.1977
    100  CA        56.7810   61.1100   12.0300 C.3   194  ILE194      0.1596
    101  C         57.0330   61.8660   10.7040 C.2   194  ILE194      0.2287
    102  O         58.1660   61.9400   10.2160 O.2   194  ILE194     -0.2864
    103  CB        56.9300   61.9910   13.3190 C.3   194  ILE194      0.0276
    104  CG1       56.6120   61.2160   14.6190 C.3   194  ILE194      0.0022
    105  CG2       56.1380   63.2870   13.2780 C.3   194  ILE194      0.0022
    106  CD1       55.2790   60.4760   14.7040 C.3   194  ILE194      0.0001
    107  N         57.6500   64.5870    9.5530 N.3   196  THR196     -0.1218
    108  CA        58.5360   65.7440    9.4270 C.3   196  THR196      0.1862
    109  C         59.3780   65.6250    8.1930 C.2   196  THR196      0.2287
    110  O         59.8110   64.5270    7.8440 O.2   196  THR196     -0.2866
    111  CB        59.3730   66.0180   10.6880 C.3   196  THR196      0.1770
    112  OG1       60.4240   65.0600   10.8100 O.3   196  THR196     -0.2211
    113  CG2       58.5310   66.0930   11.9530 C.3   196  THR196      0.0375
    114  N         62.3780   66.6200    7.6590 N.3   198  THR198     -0.1203
    115  CA        63.7250   66.2550    8.0960 C.3   198  THR198      0.1994
    116  C         63.9330   64.7330    8.1550 C.2   198  THR198      0.2617
    117  O         64.9400   64.2290    7.6360 O.2   198  THR198     -0.2717
    118  CB        64.0400   66.9540    9.4150 C.3   198  THR198      0.1784
    119  OG1       63.3680   68.2240    9.4540 O.3   198  THR198     -0.2211
    120  CG2       65.5330   67.1310    9.6260 C.3   198  THR198      0.0376
    121  N         62.9640   64.0110    8.7750 N.am  199  ALA199     -0.1979
    122  CA        62.9570   62.5550    8.8890 C.3   199  ALA199      0.1597
    123  C         62.8420   61.9460    7.5030 C.2   199  ALA199      0.2287
    124  O         63.6760   61.1160    7.1330 O.2   199  ALA199     -0.2864
    125  CB        61.7990   62.1000    9.7640 C.3   199  ALA199      0.0319
    126  N         65.9420   62.0540    5.5510 N.3   202  GLU202     -0.1231
    127  CA        66.9680   61.2030    6.1510 C.3   202  GLU202      0.1699
    128  C         66.8020   59.6910    5.9080 C.2   202  GLU202      0.2592
    129  O         67.8060   58.9700    5.9000 O.2   202  GLU202     -0.2718
    130  CB        67.0690   61.5090    7.6420 C.3   202  GLU202      0.0402
    131  CG        68.4960   61.5750    8.1430 C.3   202  GLU202      0.1161
    132  CD        69.4080   62.4860    7.3450 C.2   202  GLU202      0.3649
    133  OE1       69.2100   63.7230    7.4040 O.co2 202  GLU202     -0.2457
    134  OE2       70.2930   61.9610    6.6280 O.co2 202  GLU202     -0.2457
    135  N         65.5570   59.2260    5.7180 N.am  203  ILE203     -0.1980
    136  CA        65.2520   57.8150    5.4700 C.3   203  ILE203      0.1595
    137  C         65.2370   57.4820    3.9950 C.2   203  ILE203      0.2287
    138  O         65.2150   56.2980    3.6440 O.2   203  ILE203     -0.2864
    139  CB        63.9260   57.3400    6.1390 C.3   203  ILE203      0.0276
    140  CG1       62.7080   58.1560    5.6400 C.3   203  ILE203      0.0022
    141  CG2       64.0360   57.3070    7.6600 C.3   203  ILE203      0.0022
    142  CD1       61.4490   57.3710    5.5100 C.3   203  ILE203      0.0001
    143  N         64.9200   53.4860    4.5460 N.3   207  ILE207     -0.1245
    144  CA        63.7510   52.9080    5.2020 C.3   207  ILE207      0.1561
    145  C         62.4640   53.2150    4.4390 C.2   207  ILE207      0.2260
    146  O         62.1440   54.3730    4.1480 O.2   207  ILE207     -0.2867
    147  CB        63.6660   53.2850    6.7320 C.3   207  ILE207      0.0252
    148  CG1       64.6360   52.4300    7.5680 C.3   207  ILE207      0.0019
    149  CG2       62.2520   53.1280    7.3080 C.3   207  ILE207      0.0019
    150  CD1       65.6270   53.1780    8.2070 C.3   207  ILE207      0.0001
@<TRIPOS>BOND
     1   138   137    2
     2   137   136    1
     3   146   145    2
     4   145   144    1
     5   143   144    1
     6   144   147    1
     7   136   135    1
     8   136   139    1
     9   142   140    1
    10   126   127    1
    11   140   139    1
    12   135   128   am
    13   129   128    2
    14   128   127    1
    15   139   141    1
    16   127   130    1
    17   134   132   ar
    18   147   149    1
    19   147   148    1
    20    19    18    2
    21   124   123    2
    22   132   133   ar
    23   132   131    1
    24   123   122    1
    25   148   150    1
    26   117   116    2
    27   130   131    1
    28   114   115    1
    29   110   109    2
    30   115   116    1
    31   115   118    1
    32   116   121   am
    33   109   108    1
    34    18    17    1
    35    20    17    1
    36    20    21    1
    37    98    96    1
    38   121   122    1
    39    16    17    1
    40   122   125    1
    41    23    21    1
    42    22    21    1
    43   118   119    1
    44   118   120    1
    45   108   107    1
    46   108   111    1
    47    96    97    1
    48    96    95    1
    49   102   101    2
    50   111   112    1
    51   111   113    1
    52   101   100    1
    53    12    11    2
    54    95    92    1
    55    11    10    1
    56    56    57    1
    57    56    53    1
    58    57    58    1
    59    55    54    2
    60    94    93    2
    61   100    99    1
    62   100   103    1
    63    93    99   am
    64    93    92    1
    65    54    53    1
    66    92    91    1
    67    58    52    1
    68    51    49   am
    69    10     9    1
    70    10    13    1
    71    53    52    1
    72    52    45   am
    73   105   103    1
    74   103   104    1
    75    65    63    1
    76    91    89   am
    77    59    60    1
    78    13    14    1
    79    13    15    1
    80    49    48    1
    81    49    50    2
    82    48    47    1
    83    45    44    1
    84    45    46    2
    85    47    44    1
    86    60    63    1
    87    60    61    1
    88    63    64    1
    89   104   106    1
    90    89    90    2
    91    89    88    1
    92    64    66    1
    93    44    43    1
    94    88    87    1
    95    61    62    2
    96     8     6    1
    97     4     3    2
    98    36    35    1
    99     6     5    1
   100    74    76   ar
   101    74    72   ar
   102    87    81   am
   103    71    72    1
   104    71    68    1
   105    76    77   ar
   106    72    73   ar
   107    77    78    1
   108    77    75   ar
   109     3     2    1
   110    73    75   ar
   111    35    34    1
   112    35    37    1
   113    42    39    1
   114    81    82    2
   115    81    80    1
   116     5     2    1
   117     5     7    1
   118    67    68    1
   119    34    31    1
   120    68    69    1
   121     2     1    1
   122    83    80    1
   123    83    84    1
   124    28    29    1
   125    28    25    1
   126    38    39    1
   127    38    32   am
   128    80    79    1
   129    39    40    1
   130    85    84    1
   131    30    31    1
   132    30    26   am
   133    69    70    2
   134    31    32    1
   135    84    86    1
   136    32    33    2
   137    25    26    1
   138    25    24    1
   139    26    27    2
   140    40    41    2
