@<TRIPOS>MOLECULE
tmp/5ph1A01.pdb
 110 107 0 0 0
SMALL
GASTEIGER

@<TRIPOS>ATOM
      1  N          2.8400  -20.9330   20.1510 N.3   299  GLN299     -0.1231
      2  CA         3.7830  -20.8530   21.2570 C.3   299  GLN299      0.1698
      3  C          5.1030  -21.5270   20.9550 C.2   299  GLN299      0.2592
      4  O          5.1530  -22.5520   20.2700 O.2   299  GLN299     -0.2718
      5  CB         3.2090  -21.4880   22.5240 C.3   299  GLN299      0.0381
      6  CG         1.8610  -20.9600   22.9820 C.3   299  GLN299      0.0905
      7  CD         1.8520  -19.4750   23.3250 C.2   299  GLN299      0.2608
      8  OE1        2.8990  -18.8300   23.4160 O.2   299  GLN299     -0.2717
      9  NE2        0.6600  -18.9300   23.5190 N.am  299  GLN299     -0.0878
     10  N          6.1670  -20.9520   21.5020 N.am  300  CYS300     -0.1956
     11  CA         7.4600  -21.6130   21.5510 C.3   300  CYS300      0.1843
     12  C          7.5180  -22.5330   22.7700 C.2   300  CYS300      0.2626
     13  O          7.3450  -22.0840   23.9050 O.2   300  CYS300     -0.2714
     14  CB         8.5880  -20.5830   21.6010 C.3   300  CYS300      0.0997
     15  SG        10.1640  -21.2270   22.2010 S.3   300  CYS300     -0.0797
     16  N          7.7430  -23.8210   22.5270 N.am  301  SER301     -0.1950
     17  CA         7.8520  -24.8020   23.6010 C.3   301  SER301      0.1924
     18  C          9.2330  -25.4460   23.6080 C.2   301  SER301      0.2314
     19  O          9.5230  -26.2960   24.4500 O.2   301  SER301     -0.2863
     20  CB         6.7730  -25.8820   23.4650 C.3   301  SER301      0.2116
     21  OG         5.4690  -25.3320   23.5650 O.3   301  SER301     -0.2180
     22  N          5.9540  -14.2890   33.6800 N.3   309  PHE309     -0.1241
     23  CA         5.0570  -15.2570   34.2950 C.3   309  PHE309      0.1605
     24  C          3.6020  -14.8320   34.1190 C.2   309  PHE309      0.2264
     25  O          2.6830  -15.6140   34.3490 O.2   309  PHE309     -0.2867
     26  CB         5.3730  -15.4540   35.7780 C.3   309  PHE309      0.0534
     27  CG         4.5610  -16.5410   36.4140 C.ar  309  PHE309     -0.0203
     28  CD1        4.8620  -17.8720   36.1760 C.ar  309  PHE309     -0.0042
     29  CD2        3.4760  -16.2360   37.2170 C.ar  309  PHE309     -0.0042
     30  CE1        4.1080  -18.8760   36.7420 C.ar  309  PHE309     -0.0003
     31  CE2        2.7180  -17.2370   37.7850 C.ar  309  PHE309     -0.0003
     32  CZ         3.0340  -18.5570   37.5430 C.ar  309  PHE309     -0.0000
     33  N          1.8390  -17.1780   31.8900 N.3   312  ASP312     -0.1239
     34  CA         1.4180  -18.4740   32.4150 C.3   312  ASP312      0.1674
     35  C         -0.0900  -18.5740   32.4340 C.2   312  ASP312      0.2266
     36  O         -0.6700  -19.5610   31.9810 O.2   312  ASP312     -0.2867
     37  CB         1.9530  -18.7090   33.8300 C.3   312  ASP312      0.1410
     38  CG         1.7330  -20.1350   34.3050 C.2   312  ASP312      0.3668
     39  OD1        0.5920  -20.4820   34.6950 O.co2 312  ASP312     -0.2456
     40  OD2        2.7050  -20.9170   34.2710 O.co2 312  ASP312     -0.2456
     41  N         -1.9960  -18.6120   28.9360 N.3   315  VAL315     -0.1245
     42  CA        -1.9320  -19.9190   28.2840 C.3   315  VAL315      0.1561
     43  C         -2.8320  -20.8960   29.0420 C.2   315  VAL315      0.2260
     44  O         -3.5780  -21.6630   28.4380 O.2   315  VAL315     -0.2867
     45  CB        -0.4830  -20.4620   28.1960 C.3   315  VAL315      0.0252
     46  CG1       -0.4600  -21.8140   27.5100 C.3   315  VAL315      0.0019
     47  CG2        0.4090  -19.4660   27.4440 C.3   315  VAL315      0.0019
     48  N         -2.4870  -26.8060   25.4060 N.3   322  ARG322     -0.1231
     49  CA        -1.0710  -26.5300   25.1820 C.3   322  ARG322      0.1694
     50  C         -0.2990  -26.2750   26.4680 C.2   322  ARG322      0.2592
     51  O          0.9320  -26.2980   26.4690 O.2   322  ARG322     -0.2718
     52  CB        -0.8990  -25.3200   24.2670 C.3   322  ARG322      0.0321
     53  CG        -1.3900  -25.5200   22.8580 C.3   322  ARG322      0.0489
     54  CD        -1.1050  -24.2820   22.0340 C.3   322  ARG322      0.2205
     55  NE        -1.5440  -24.4240   20.6510 N.pl3 322  ARG322     -0.0865
     56  CZ        -1.4320  -23.4670   19.7370 C.cat 322  ARG322      0.5346
     57  NH1       -0.8950  -22.3000   20.0620 N.pl3 322  ARG322      0.1354
     58  NH2       -1.8590  -23.6760   18.5010 N.pl3 322  ARG322      0.1354
     59  N         -1.0250  -26.0200   27.5510 N.am  323  TYR323     -0.1976
     60  CA        -0.4300  -25.5230   28.7880 C.3   323  TYR323      0.1639
     61  C          0.6930  -26.4080   29.3250 C.2   323  TYR323      0.2290
     62  O          1.7720  -25.9120   29.6500 O.2   323  TYR323     -0.2864
     63  CB        -1.5110  -25.3570   29.8570 C.3   323  TYR323      0.0560
     64  CG        -1.0010  -24.7440   31.1400 C.ar  323  TYR323     -0.0198
     65  CD1       -0.4280  -23.4770   31.1490 C.ar  323  TYR323     -0.0009
     66  CD2       -1.0920  -25.4310   32.3430 C.ar  323  TYR323     -0.0009
     67  CE1        0.0390  -22.9110   32.3250 C.ar  323  TYR323      0.0417
     68  CE2       -0.6270  -24.8760   33.5230 C.ar  323  TYR323      0.0417
     69  CZ        -0.0600  -23.6180   33.5100 C.ar  323  TYR323      0.1957
     70  OH         0.3980  -23.0650   34.6850 O.3   323  TYR323     -0.2866
     71  N          2.6130  -28.7460   27.8320 N.3   325  LEU325     -0.1231
     72  CA         3.7840  -28.7610   26.9590 C.3   325  LEU325      0.1693
     73  C          4.5090  -27.4170   26.9640 C.2   325  LEU325      0.2592
     74  O          5.7400  -27.3630   26.9130 O.2   325  LEU325     -0.2718
     75  CB         3.3790  -29.1320   25.5310 C.3   325  LEU325      0.0284
     76  CG         4.4850  -29.1000   24.4740 C.3   325  LEU325      0.0019
     77  CD1        5.6030  -30.0680   24.8340 C.3   325  LEU325      0.0001
     78  CD2        3.9210  -29.4110   23.0960 C.3   325  LEU325      0.0001
     79  N          3.7410  -26.3360   27.0300 N.am  326  TRP326     -0.1962
     80  CA         4.3040  -24.9920   27.0060 C.3   326  TRP326      0.1771
     81  C          5.0850  -24.6830   28.2810 C.2   326  TRP326      0.2619
     82  O          6.1380  -24.0450   28.2350 O.2   326  TRP326     -0.2715
     83  CB         3.1990  -23.9520   26.8060 C.3   326  TRP326      0.0590
     84  CG         3.6680  -22.5510   27.0260 C.ar  326  TRP326      0.0006
     85  CD1        4.2810  -21.7390   26.1190 C.ar  326  TRP326      0.0946
     86  CD2        3.5690  -21.7950   28.2390 C.ar  326  TRP326      0.0152
     87  NE1        4.5720  -20.5240   26.6900 N.ar  326  TRP326     -0.2442
     88  CE2        4.1450  -20.5320   27.9910 C.ar  326  TRP326      0.0810
     89  CE3        3.0530  -22.0650   29.5090 C.ar  326  TRP326      0.0012
     90  CZ2        4.2160  -19.5400   28.9660 C.ar  326  TRP326      0.0191
     91  CZ3        3.1230  -21.0770   30.4760 C.ar  326  TRP326      0.0001
     92  CH2        3.7020  -19.8310   30.1990 C.ar  326  TRP326      0.0015
     93  N          4.5660  -25.1400   29.4150 N.am  327  LYS327     -0.1977
     94  CA         5.1670  -24.8320   30.7070 C.3   327  LYS327      0.1596
     95  C          6.4740  -25.5940   30.9180 C.2   327  LYS327      0.2287
     96  O          7.3410  -25.1530   31.6740 O.2   327  LYS327     -0.2864
     97  CB         4.1810  -25.1400   31.8340 C.3   327  LYS327      0.0298
     98  CG         4.5820  -24.5800   33.1880 C.3   327  LYS327      0.0038
     99  CD         3.3940  -24.5500   34.1330 C.3   327  LYS327      0.0206
    100  CE         2.6920  -25.8970   34.1720 C.3   327  LYS327      0.1093
    101  NZ         3.5370  -26.9490   34.7960 N.3   327  LYS327     -0.1314
    102  N          9.1150  -23.5020   29.5890 N.3   330  GLN330     -0.1245
    103  CA         9.3750  -22.4230   30.5330 C.3   330  GLN330      0.1566
    104  C         10.1680  -22.9330   31.7300 C.2   330  GLN330      0.2260
    105  O         10.9370  -22.1910   32.3400 O.2   330  GLN330     -0.2867
    106  CB         8.0620  -21.7930   31.0020 C.3   330  GLN330      0.0367
    107  CG         7.2260  -21.1950   29.8840 C.3   330  GLN330      0.0905
    108  CD         7.8800  -19.9830   29.2520 C.2   330  GLN330      0.2608
    109  OE1        8.1950  -19.0060   29.9330 O.2   330  GLN330     -0.2717
    110  NE2        8.0900  -20.0390   27.9420 N.am  330  GLN330     -0.0878
@<TRIPOS>BOND
     1    58    56    1
     2    56    57    1
     3    56    55    2
     4     1     2    1
     5     4     3    2
     6    55    54    1
     7     3     2    1
     8     3    10   am
     9     2     5    1
    10    10    11    1
    11    11    14    1
    12    11    12    1
    13    14    15    1
    14    54    53    1
    15     5     6    1
    16    16    12   am
    17    16    17    1
    18    12    13    2
    19    53    52    1
    20     6     7    1
    21    78    76    1
    22     7     8    2
    23     7     9   am
    24    20    21    1
    25    20    17    1
    26    17    18    1
    27    18    19    2
    28    52    49    1
    29    76    77    1
    30    76    75    1
    31    49    48    1
    32    49    50    1
    33    75    72    1
    34    85    87   ar
    35    85    84   ar
    36    50    51    2
    37    50    59   am
    38    87    88   ar
    39    83    80    1
    40    83    84    1
    41    74    73    2
    42    72    73    1
    43    72    71    1
    44    73    79   am
    45    80    79    1
    46    80    81    1
    47    84    86   ar
    48    47    45    1
    49    46    45    1
    50    59    60    1
    51   110   108   am
    52    88    86   ar
    53    88    90   ar
    54    45    42    1
    55    82    81    2
    56    86    89   ar
    57    81    93   am
    58    42    41    1
    59    42    43    1
    60    44    43    2
    61    60    61    1
    62    60    63    1
    63    90    92   ar
    64   108   107    1
    65   108   109    2
    66    61    62    2
    67    93    94    1
    68    89    91   ar
    69   102   103    1
    70    63    64    1
    71   107   106    1
    72    92    91   ar
    73   103   106    1
    74   103   104    1
    75    94    95    1
    76    94    97    1
    77    95    96    2
    78    64    65   ar
    79    64    66   ar
    80    65    67   ar
    81   104   105    2
    82    97    98    1
    83    33    34    1
    84    36    35    2
    85    67    69   ar
    86    66    68   ar
    87    34    35    1
    88    34    37    1
    89    98    99    1
    90    69    68   ar
    91    69    70    1
    92    22    23    1
    93    37    38    1
    94    24    23    1
    95    24    25    2
    96    99   100    1
    97   100   101    1
    98    40    38   ar
    99    23    26    1
   100    38    39   ar
   101    26    27    1
   102    28    27   ar
   103    28    30   ar
   104    27    29   ar
   105    30    32   ar
   106    29    31   ar
   107    32    31   ar
