@<TRIPOS>MOLECULE
tmp/5ph2A01.pdb
 104 99 0 0 0
SMALL
GASTEIGER

@<TRIPOS>ATOM
      1  N          5.3020  -11.1350   16.3870 N.3   183  THR183     -0.1218
      2  CA         4.0430  -10.6460   16.9250 C.3   183  THR183      0.1862
      3  C          4.2020  -10.5770   18.4430 C.2   183  THR183      0.2287
      4  O          5.2060  -11.0440   18.9920 O.2   183  THR183     -0.2866
      5  CB         2.8470  -11.5450   16.5450 C.3   183  THR183      0.1770
      6  OG1        3.0550  -12.8700   17.0560 O.3   183  THR183     -0.2211
      7  CG2        2.6690  -11.5950   15.0220 C.3   183  THR183      0.0375
      8  N         -0.1900  -12.9950   20.9230 N.3   187  ASP187     -0.1239
      9  CA        -0.7070  -12.1310   19.8540 C.3   187  ASP187      0.1674
     10  C         -1.5390  -10.9630   20.3990 C.2   187  ASP187      0.2266
     11  O         -2.5400  -10.5520   19.8130 O.2   187  ASP187     -0.2867
     12  CB        -1.4810  -12.9560   18.8140 C.3   187  ASP187      0.1410
     13  CG        -0.5750  -13.9140   18.0790 C.2   187  ASP187      0.3668
     14  OD1        0.6520  -13.6860   18.1410 O.co2 187  ASP187     -0.2456
     15  OD2       -1.0600  -14.8790   17.4500 O.co2 187  ASP187     -0.2456
     16  N          5.3090  -16.2870    7.8110 N.3   214  GLU214     -0.1245
     17  CA         5.8000  -17.4740    8.5030 C.3   214  GLU214      0.1567
     18  C          6.3350  -18.5060    7.5130 C.2   214  GLU214      0.2260
     19  O          7.3870  -19.1020    7.7320 O.2   214  GLU214     -0.2867
     20  CB         4.7010  -18.0970    9.3650 C.3   214  GLU214      0.0388
     21  CG         4.2750  -17.1970   10.5240 C.3   214  GLU214      0.1160
     22  CD         3.0730  -17.7120   11.2810 C.2   214  GLU214      0.3649
     23  OE1        2.4630  -18.7120   10.8410 O.co2 214  GLU214     -0.2457
     24  OE2        2.7280  -17.1080   12.3250 O.co2 214  GLU214     -0.2457
     25  N         10.1950  -19.8700    7.2670 N.3   218  ARG218     -0.1245
     26  CA        10.5780  -21.2790    7.3600 C.3   218  ARG218      0.1563
     27  C         11.5070  -21.6680    6.2130 C.2   218  ARG218      0.2260
     28  O         12.4140  -22.4780    6.3890 O.2   218  ARG218     -0.2867
     29  CB         9.3460  -22.1900    7.3700 C.3   218  ARG218      0.0307
     30  CG         8.4560  -22.0240    8.5930 C.3   218  ARG218      0.0489
     31  CD         7.4580  -23.1710    8.7360 C.3   218  ARG218      0.2205
     32  NE         6.6460  -23.3670    7.5380 N.pl3 218  ARG218     -0.0865
     33  CZ         5.4830  -22.7670    7.3110 C.cat 218  ARG218      0.5346
     34  NH1        4.9870  -21.9170    8.1980 N.pl3 218  ARG218      0.1354
     35  NH2        4.8180  -23.0120    6.1910 N.pl3 218  ARG218      0.1354
     36  N          8.6200  -25.0010   15.9220 N.3   229  GLY229     -0.1210
     37  CA         7.4990  -24.7310   15.0380 C.3   229  GLY229      0.1956
     38  C          7.0000  -23.3020   15.0920 C.2   229  GLY229      0.2612
     39  O          6.1610  -22.8990   14.2780 O.2   229  GLY229     -0.2717
     40  N          7.5100  -22.5350   16.0510 N.am  230  ALA230     -0.1965
     41  CA         7.1400  -21.1280   16.1880 C.3   230  ALA230      0.1728
     42  C          8.3780  -20.2680   16.4380 C.2   230  ALA230      0.2616
     43  O          8.3780  -19.4090   17.3150 O.2   230  ALA230     -0.2715
     44  CB         6.1240  -20.9520   17.3120 C.3   230  ALA230      0.0334
     45  N          9.4300  -20.4740   15.6560 N.am  231  PHE231     -0.1960
     46  CA        10.7110  -19.8550   16.0050 C.3   231  PHE231      0.1771
     47  C         10.7340  -18.3300   15.8770 C.2   231  PHE231      0.2619
     48  O         11.6420  -17.6930   16.4040 O.2   231  PHE231     -0.2715
     49  CB        11.8610  -20.4560   15.1760 C.3   231  PHE231      0.0574
     50  CG        11.8660  -20.0430   13.7340 C.ar  231  PHE231     -0.0200
     51  CD1       12.5490  -18.9070   13.3260 C.ar  231  PHE231     -0.0042
     52  CD2       11.2170  -20.8060   12.7790 C.ar  231  PHE231     -0.0042
     53  CE1       12.5620  -18.5260   11.9960 C.ar  231  PHE231     -0.0003
     54  CE2       11.2300  -20.4320   11.4430 C.ar  231  PHE231     -0.0003
     55  CZ        11.8990  -19.2900   11.0560 C.ar  231  PHE231     -0.0000
     56  N          9.7590  -17.7240   15.2030 N.am  232  LEU232     -0.1963
     57  CA         9.7720  -16.2640   15.1570 C.3   232  LEU232      0.1728
     58  C          9.5270  -15.6930   16.5550 C.2   232  LEU232      0.2616
     59  O          9.8840  -14.5470   16.8210 O.2   232  LEU232     -0.2715
     60  CB         8.7560  -15.7100   14.1480 C.3   232  LEU232      0.0311
     61  CG         9.1120  -15.9410   12.6740 C.3   232  LEU232      0.0022
     62  CD1        8.0120  -15.4270   11.7730 C.3   232  LEU232      0.0001
     63  CD2       10.4530  -15.2840   12.3180 C.3   232  LEU232      0.0001
     64  N          8.9610  -16.5090   17.4480 N.am  233  ARG233     -0.1977
     65  CA         8.8080  -16.1420   18.8600 C.3   233  ARG233      0.1597
     66  C         10.1590  -15.8640   19.5280 C.2   233  ARG233      0.2287
     67  O         10.2170  -15.2340   20.5900 O.2   233  ARG233     -0.2864
     68  CB         8.0880  -17.2530   19.6380 C.3   233  ARG233      0.0334
     69  CG         6.6470  -17.5100   19.2140 C.3   233  ARG233      0.0492
     70  CD         5.7170  -16.5430   19.8890 C.3   233  ARG233      0.2205
     71  NE         4.3340  -16.6990   19.4500 N.pl3 233  ARG233     -0.0865
     72  CZ         3.4660  -15.6960   19.4130 C.cat 233  ARG233      0.5346
     73  NH1        3.8560  -14.4780   19.7690 N.pl3 233  ARG233      0.1354
     74  NH2        2.2240  -15.9050   19.0070 N.pl3 233  ARG233      0.1354
     75  N         -1.6270  -10.2200   16.0630 N.3   267  TYR267     -0.1241
     76  CA        -1.0510  -11.0280   14.9940 C.3   267  TYR267      0.1605
     77  C         -0.5410  -10.1620   13.8320 C.2   267  TYR267      0.2264
     78  O         -0.4070  -10.6240   12.7000 O.2   267  TYR267     -0.2867
     79  CB        -2.0590  -12.0940   14.5190 C.3   267  TYR267      0.0534
     80  CG        -1.4160  -13.1830   13.6750 C.ar  267  TYR267     -0.0201
     81  CD1       -0.3840  -13.9620   14.1900 C.ar  267  TYR267     -0.0009
     82  CD2       -1.8340  -13.4210   12.3620 C.ar  267  TYR267     -0.0009
     83  CE1        0.2170  -14.9470   13.4320 C.ar  267  TYR267      0.0417
     84  CE2       -1.2430  -14.4170   11.5900 C.ar  267  TYR267      0.0417
     85  CZ        -0.2130  -15.1720   12.1310 C.ar  267  TYR267      0.1957
     86  OH         0.3750  -16.1570   11.3700 O.3   267  TYR267     -0.2866
     87  N          2.6150   -8.9400   12.4360 N.3   269  TYR269     -0.1241
     88  CA         4.0730   -9.0790   12.4590 C.3   269  TYR269      0.1605
     89  C          4.7240   -7.7450   12.1870 C.2   269  TYR269      0.2264
     90  O          4.3320   -7.0410   11.2520 O.2   269  TYR269     -0.2867
     91  CB         4.5560  -10.0980   11.4180 C.3   269  TYR269      0.0534
     92  CG         4.5370  -11.5250   11.9100 C.ar  269  TYR269     -0.0201
     93  CD1        5.5350  -11.9960   12.7630 C.ar  269  TYR269     -0.0009
     94  CD2        3.5240  -12.4030   11.5290 C.ar  269  TYR269     -0.0009
     95  CE1        5.5250  -13.3050   13.2210 C.ar  269  TYR269      0.0417
     96  CE2        3.5020  -13.6970   11.9880 C.ar  269  TYR269      0.0417
     97  CZ         4.5100  -14.1460   12.8320 C.ar  269  TYR269      0.1957
     98  OH         4.5110  -15.4400   13.2980 O.3   269  TYR269     -0.2866
     99  N          0.1370  -19.1150   18.3630 N.3   298  SER298     -0.1217
    100  CA         1.1910  -20.1150   18.3680 C.3   298  SER298      0.1889
    101  C          2.0420  -19.9570   19.6140 C.2   298  SER298      0.2288
    102  O          2.1060  -18.8690   20.1970 O.2   298  SER298     -0.2866
    103  CB         2.0720  -19.9830   17.1260 C.3   298  SER298      0.2089
    104  OG         2.8670  -18.8070   17.1900 O.3   298  SER298     -0.2183
@<TRIPOS>BOND
     1    35    33    1
     2    27    28    2
     3    27    26    1
     4    25    26    1
     5    33    32    2
     6    33    34    1
     7    26    29    1
     8    29    30    1
     9    18    19    2
    10    18    17    1
    11    32    31    1
    12    16    17    1
    13    17    20    1
    14    30    31    1
    15    20    21    1
    16    21    22    1
    17    23    22   ar
    18    55    54   ar
    19    55    53   ar
    20    90    89    2
    21    22    24   ar
    22    86    85    1
    23    91    92    1
    24    91    88    1
    25    54    52   ar
    26    94    92   ar
    27    94    96   ar
    28    84    85   ar
    29    84    82   ar
    30    62    61    1
    31    92    93   ar
    32    96    97   ar
    33    53    51   ar
    34    85    83   ar
    35    89    88    1
    36    63    61    1
    37    82    80   ar
    38    87    88    1
    39    61    60    1
    40    78    77    2
    41    93    95   ar
    42    52    50   ar
    43    97    95   ar
    44    97    98    1
    45    51    50   ar
    46    83    81   ar
    47    80    81   ar
    48    80    79    1
    49    50    49    1
    50    77    76    1
    51    60    57    1
    52    39    38    2
    53    79    76    1
    54    76    75    1
    55     7     5    1
    56    37    38    1
    57    37    36    1
    58    38    40   am
    59    57    56    1
    60    57    58    1
    61    49    46    1
    62    56    47   am
    63    45    46    1
    64    45    42   am
    65    47    46    1
    66    47    48    2
    67    40    41    1
    68    41    42    1
    69    41    44    1
    70     1     2    1
    71    42    43    2
    72     5     2    1
    73     5     6    1
    74    58    59    2
    75    58    64   am
    76     2     3    1
    77   103   104    1
    78   103   100    1
    79    64    65    1
    80    15    13   ar
    81    13    14   ar
    82    13    12    1
    83    99   100    1
    84   100   101    1
    85     3     4    2
    86    12     9    1
    87    65    66    1
    88    65    68    1
    89    74    72    1
    90    69    68    1
    91    69    70    1
    92    72    71    2
    93    72    73    1
    94    71    70    1
    95    66    67    2
    96   101   102    2
    97    11    10    2
    98     9    10    1
    99     9     8    1
