@<TRIPOS>MOLECULE
tmp/5ph3A01.pdb
 89 85 0 0 0
SMALL
GASTEIGER

@<TRIPOS>ATOM
      1  N         -0.1420  -12.9730   20.9790 N.3   187  ASP187     -0.1239
      2  CA        -0.7030  -12.0390   19.9800 C.3   187  ASP187      0.1674
      3  C         -1.5620  -10.8670   20.4870 C.2   187  ASP187      0.2266
      4  O         -2.5470  -10.4660   19.8600 O.2   187  ASP187     -0.2867
      5  CB        -1.4310  -12.8630   18.9190 C.3   187  ASP187      0.1410
      6  CG        -0.4910  -13.8440   18.2320 C.2   187  ASP187      0.3668
      7  OD1        0.7350  -13.6710   18.3980 O.co2 187  ASP187     -0.2456
      8  OD2       -0.9540  -14.7670   17.5260 O.co2 187  ASP187     -0.2456
      9  N         -2.3190   -8.6800    9.5530 N.3   207  PRO207     -0.2102
     10  CA        -2.6460   -9.9180   10.2630 C.3   207  PRO207      0.1504
     11  C         -3.2730  -10.9890    9.3730 C.2   207  PRO207      0.2575
     12  O         -2.9550  -12.1620    9.5190 O.2   207  PRO207     -0.2718
     13  CB        -3.6080   -9.4330   11.3520 C.3   207  PRO207      0.0282
     14  CG        -3.0660   -8.0750   11.6980 C.3   207  PRO207      0.0208
     15  CD        -2.6810   -7.4890   10.3450 C.3   207  PRO207      0.0893
     16  N         -4.1080  -10.6040    8.4200 N.am  208  GLU208     -0.1980
     17  CA        -4.7410  -11.6260    7.6020 C.3   208  GLU208      0.1602
     18  C         -3.7310  -12.3760    6.7270 C.2   208  GLU208      0.2287
     19  O         -4.0310  -13.4590    6.2290 O.2   208  GLU208     -0.2864
     20  CB        -5.8480  -11.0120    6.7450 C.3   208  GLU208      0.0415
     21  CG        -5.3870  -10.0750    5.6530 C.3   208  GLU208      0.1163
     22  CD        -6.5190   -9.2000    5.1540 C.2   208  GLU208      0.3649
     23  OE1       -6.9700   -9.4080    4.0090 O.co2 208  GLU208     -0.2457
     24  OE2       -6.9680   -8.3140    5.9190 O.co2 208  GLU208     -0.2457
     25  N         -0.4190  -12.9850    7.9030 N.3   210  GLY210     -0.1210
     26  CA         0.6910  -13.3930    8.7460 C.3   210  GLY210      0.1956
     27  C          1.2890  -14.7440    8.3900 C.2   210  GLY210      0.2611
     28  O          2.4990  -14.9530    8.5210 O.2   210  GLY210     -0.2717
     29  N          0.4620  -15.6760    7.9330 N.am  211  GLN211     -0.1979
     30  CA         0.9820  -16.9960    7.5950 C.3   211  GLN211      0.1601
     31  C          1.9310  -16.9630    6.4050 C.2   211  GLN211      0.2287
     32  O          2.7930  -17.8260    6.2790 O.2   211  GLN211     -0.2864
     33  CB        -0.1600  -17.9640    7.3250 C.3   211  GLN211      0.0394
     34  CG        -0.9750  -18.2640    8.5710 C.3   211  GLN211      0.0908
     35  CD        -2.2400  -19.0130    8.2660 C.2   211  GLN211      0.2608
     36  OE1       -3.0600  -18.5630    7.4650 O.2   211  GLN211     -0.2717
     37  NE2       -2.4200  -20.1520    8.9140 N.am  211  GLN211     -0.0878
     38  N          5.2000  -16.2770    7.9380 N.3   214  GLU214     -0.1245
     39  CA         5.6540  -17.4860    8.6260 C.3   214  GLU214      0.1567
     40  C          6.2370  -18.4970    7.6440 C.2   214  GLU214      0.2260
     41  O          7.2870  -19.0970    7.9040 O.2   214  GLU214     -0.2867
     42  CB         4.5120  -18.1170    9.4170 C.3   214  GLU214      0.0388
     43  CG         4.0680  -17.2730   10.5970 C.3   214  GLU214      0.1160
     44  CD         2.8060  -17.7750   11.2740 C.2   214  GLU214      0.3649
     45  OE1        2.1810  -18.7460   10.7810 O.co2 214  GLU214     -0.2457
     46  OE2        2.4330  -17.1840   12.3110 O.co2 214  GLU214     -0.2457
     47  N         -1.6840  -10.1910   16.1050 N.3   267  TYR267     -0.1241
     48  CA        -1.1340  -11.0160   15.0300 C.3   267  TYR267      0.1605
     49  C         -0.5950  -10.1680   13.8670 C.2   267  TYR267      0.2264
     50  O         -0.4360  -10.6530   12.7500 O.2   267  TYR267     -0.2867
     51  CB        -2.1690  -12.0610   14.5540 C.3   267  TYR267      0.0534
     52  CG        -1.5640  -13.1610   13.6990 C.ar  267  TYR267     -0.0201
     53  CD1       -0.5610  -13.9920   14.1970 C.ar  267  TYR267     -0.0009
     54  CD2       -1.9700  -13.3390   12.3750 C.ar  267  TYR267     -0.0009
     55  CE1       -0.0010  -14.9900   13.4030 C.ar  267  TYR267      0.0417
     56  CE2       -1.4310  -14.3290   11.5840 C.ar  267  TYR267      0.0417
     57  CZ        -0.4430  -15.1480   12.0920 C.ar  267  TYR267      0.1957
     58  OH         0.0900  -16.1190   11.2710 O.3   267  TYR267     -0.2866
     59  N         -7.7560  -14.0820   19.1200 N.3   293  TYR293     -0.1241
     60  CA        -6.3540  -14.1710   18.7060 C.3   293  TYR293      0.1605
     61  C         -5.4970  -14.8140   19.7970 C.2   293  TYR293      0.2264
     62  O         -4.6000  -15.6000   19.5080 O.2   293  TYR293     -0.2867
     63  CB        -5.8020  -12.7890   18.3540 C.3   293  TYR293      0.0534
     64  CG        -6.3570  -12.2390   17.0740 C.ar  293  TYR293     -0.0201
     65  CD1       -7.5710  -11.5600   17.0550 C.ar  293  TYR293     -0.0009
     66  CD2       -5.6820  -12.4110   15.8780 C.ar  293  TYR293     -0.0009
     67  CE1       -8.0900  -11.0550   15.8810 C.ar  293  TYR293      0.0417
     68  CE2       -6.1900  -11.9090   14.6910 C.ar  293  TYR293      0.0417
     69  CZ        -7.3960  -11.2290   14.7000 C.ar  293  TYR293      0.1957
     70  OH        -7.9170  -10.7260   13.5290 O.3   293  TYR293     -0.2866
     71  N         -5.5590  -18.4830   19.6200 N.3   296  MET296     -0.1230
     72  CA        -4.9160  -19.0350   18.4320 C.3   296  MET296      0.1702
     73  C         -3.4140  -18.7880   18.3820 C.2   296  MET296      0.2592
     74  O         -2.7500  -19.1800   17.4230 O.2   296  MET296     -0.2718
     75  CB        -5.5540  -18.4380   17.1750 C.3   296  MET296      0.0401
     76  CG        -7.0450  -18.6980   17.0540 C.3   296  MET296      0.0596
     77  SD        -7.7420  -18.1720   15.4770 S.3   296  MET296     -0.1393
     78  CE        -7.6400  -16.3910   15.5910 C.3   296  MET296      0.0692
     79  N         -2.8750  -18.1090   19.3870 N.am  297  ALA297     -0.1966
     80  CA        -1.4720  -17.7240   19.3480 C.3   297  ALA297      0.1728
     81  C         -0.5360  -18.9330   19.3530 C.2   297  ALA297      0.2616
     82  O         -0.6860  -19.8490   20.1630 O.2   297  ALA297     -0.2715
     83  CB        -1.1510  -16.8140   20.5220 C.3   297  ALA297      0.0334
     84  N          0.4420  -18.9380   18.4480 N.am  298  SER298     -0.1950
     85  CA         1.4320  -20.0140   18.3980 C.3   298  SER298      0.1924
     86  C          2.4930  -19.8120   19.4740 C.2   298  SER298      0.2314
     87  O          2.9590  -18.6940   19.6800 O.2   298  SER298     -0.2863
     88  CB         2.0960  -20.0840   17.0200 C.3   298  SER298      0.2116
     89  OG         1.1650  -20.4230   16.0080 O.3   298  SER298     -0.2180
@<TRIPOS>BOND
     1    23    22   ar
     2    22    21    1
     3    22    24   ar
     4    21    20    1
     5    19    18    2
     6    32    31    2
     7    31    30    1
     8    18    17    1
     9    20    17    1
    10    33    30    1
    11    33    34    1
    12    36    35    2
    13    30    29    1
    14    17    16    1
    15    40    41    2
    16    40    39    1
    17    25    26    1
    18    29    27   am
    19    38    39    1
    20    35    34    1
    21    35    37   am
    22    27    28    2
    23    27    26    1
    24    16    11   am
    25    39    42    1
    26    11    12    2
    27    11    10    1
    28    42    43    1
    29     9    10    1
    30     9    15    1
    31    10    13    1
    32    15    14    1
    33    43    44    1
    34    45    44   ar
    35    58    57    1
    36    44    46   ar
    37    13    14    1
    38    56    57   ar
    39    56    54   ar
    40    57    55   ar
    41    54    52   ar
    42    50    49    2
    43    55    53   ar
    44    70    69    1
    45    52    53   ar
    46    52    51    1
    47    49    48    1
    48    51    48    1
    49    68    69   ar
    50    68    66   ar
    51    69    67   ar
    52    48    47    1
    53    77    78    1
    54    77    76    1
    55    66    64   ar
    56    67    65   ar
    57    89    88    1
    58    88    85    1
    59    76    75    1
    60    65    64   ar
    61    64    63    1
    62    75    72    1
    63    74    73    2
    64     8     6   ar
    65     6     7   ar
    66     6     5    1
    67    63    60    1
    68    73    72    1
    69    73    79   am
    70    85    84    1
    71    85    86    1
    72    72    71    1
    73    84    81   am
    74    60    59    1
    75    60    61    1
    76     5     2    1
    77    80    81    1
    78    80    79    1
    79    80    83    1
    80    81    82    2
    81    86    87    2
    82    62    61    2
    83     4     3    2
    84     2     3    1
    85     2     1    1
