@<TRIPOS>MOLECULE
tmp/5ph7A01.pdb
 83 78 0 0 0
SMALL
GASTEIGER

@<TRIPOS>ATOM
      1  N          2.5880  -20.8730   19.7230 N.3   299  GLN299     -0.1231
      2  CA         3.5780  -20.7770   20.7810 C.3   299  GLN299      0.1698
      3  C          4.8380  -21.5560   20.4530 C.2   299  GLN299      0.2592
      4  O          4.7950  -22.5740   19.7590 O.2   299  GLN299     -0.2718
      5  CB         2.9990  -21.2800   22.1070 C.3   299  GLN299      0.0381
      6  CG         1.6810  -20.6260   22.5180 C.3   299  GLN299      0.0905
      7  CD         1.8270  -19.1740   22.9600 C.2   299  GLN299      0.2608
      8  OE1        2.9090  -18.5860   22.8940 O.2   299  GLN299     -0.2717
      9  NE2        0.7280  -18.5920   23.4230 N.am  299  GLN299     -0.0878
     10  N          5.9580  -21.0490   20.9500 N.am  300  CYS300     -0.1956
     11  CA         7.2200  -21.7700   20.9420 C.3   300  CYS300      0.1843
     12  C          7.0130  -23.2040   21.4500 C.2   300  CYS300      0.2626
     13  O          6.2520  -23.4110   22.3830 O.2   300  CYS300     -0.2714
     14  CB         8.2210  -21.0050   21.8070 C.3   300  CYS300      0.0997
     15  SG         9.8030  -21.8130   22.1200 S.3   300  CYS300     -0.0797
     16  N          7.6550  -24.1870   20.8210 N.am  301  SER301     -0.1936
     17  CA         7.5030  -25.5820   21.2310 C.3   301  SER301      0.2055
     18  C          8.8110  -26.1790   21.7460 C.2   301  SER301      0.2643
     19  O          8.8630  -27.3580   22.0940 O.2   301  SER301     -0.2714
     20  CB         6.9740  -26.4280   20.0660 C.3   301  SER301      0.2130
     21  OG         7.9140  -26.4720   19.0020 O.3   301  SER301     -0.2179
     22  N          9.8550  -25.3560   21.8010 N.am  302  CYS302     -0.1953
     23  CA        11.2030  -25.8330   22.1040 C.3   302  CYS302      0.1843
     24  C         11.7510  -25.2920   23.4200 C.2   302  CYS302      0.2626
     25  O         12.8170  -25.7130   23.8730 O.2   302  CYS302     -0.2714
     26  CB        12.1610  -25.4560   20.9720 C.3   302  CYS302      0.0997
     27  SG        12.6640  -23.7030   20.9820 S.3   302  CYS302     -0.0797
     28  N         11.0440  -24.3390   24.0140 N.am  303  GLY303     -0.1954
     29  CA        11.4490  -23.7910   25.2950 C.3   303  GLY303      0.1869
     30  C         12.3650  -22.5800   25.2500 C.2   303  GLY303      0.2309
     31  O         12.6800  -22.0070   26.2900 O.2   303  GLY303     -0.2863
     32  N         11.7720  -19.5330   23.8590 N.3   305  ALA305     -0.1245
     33  CA        11.0780  -18.2590   24.0540 C.3   305  ALA305      0.1562
     34  C         10.7280  -18.0200   25.5170 C.2   305  ALA305      0.2260
     35  O         10.2100  -18.9080   26.1960 O.2   305  ALA305     -0.2867
     36  CB         9.8160  -18.2030   23.2030 C.3   305  ALA305      0.0290
     37  N          8.6900  -16.7720   28.7020 N.3   307  VAL307     -0.1245
     38  CA         7.2880  -16.6010   29.0740 C.3   307  VAL307      0.1561
     39  C          7.1970  -15.8870   30.4090 C.2   307  VAL307      0.2260
     40  O          7.6150  -16.4230   31.4390 O.2   307  VAL307     -0.2867
     41  CB         6.5380  -17.9470   29.1690 C.3   307  VAL307      0.0252
     42  CG1        5.0850  -17.7180   29.5770 C.3   307  VAL307      0.0019
     43  CG2        6.6070  -18.6870   27.8490 C.3   307  VAL307      0.0019
     44  N          2.0320  -13.9770   31.3810 N.3   311  MET311     -0.1245
     45  CA         1.6410  -14.7230   30.1940 C.3   311  MET311      0.1570
     46  C          1.2420  -16.1550   30.5600 C.2   311  MET311      0.2261
     47  O          0.3850  -16.7450   29.9020 O.2   311  MET311     -0.2867
     48  CB         2.7700  -14.7060   29.1560 C.3   311  MET311      0.0387
     49  CG         2.4140  -15.3570   27.8250 C.3   311  MET311      0.0595
     50  SD         3.8150  -15.4280   26.6970 S.3   311  MET311     -0.1393
     51  CE         3.4150  -16.9470   25.8280 C.3   311  MET311      0.0692
     52  N         -1.9790  -18.3370   28.9460 N.3   315  VAL315     -0.1245
     53  CA        -1.8940  -19.6310   28.2790 C.3   315  VAL315      0.1561
     54  C         -2.7740  -20.6340   29.0180 C.2   315  VAL315      0.2260
     55  O         -3.5290  -21.3850   28.4020 O.2   315  VAL315     -0.2867
     56  CB        -0.4330  -20.1540   28.2000 C.3   315  VAL315      0.0252
     57  CG1       -0.3930  -21.5040   27.5080 C.3   315  VAL315      0.0019
     58  CG2        0.4540  -19.1440   27.4600 C.3   315  VAL315      0.0019
     59  N         -2.5280  -26.4800   25.1450 N.3   322  ARG322     -0.1245
     60  CA        -1.1260  -26.1060   24.9630 C.3   322  ARG322      0.1563
     61  C         -0.4080  -26.0010   26.2960 C.2   322  ARG322      0.2260
     62  O          0.7650  -26.3280   26.4000 O.2   322  ARG322     -0.2867
     63  CB        -0.9950  -24.7730   24.2220 C.3   322  ARG322      0.0307
     64  CG        -1.4290  -24.7880   22.7670 C.3   322  ARG322      0.0489
     65  CD        -1.0930  -23.4490   22.1340 C.3   322  ARG322      0.2205
     66  NE        -1.8720  -23.1900   20.9290 N.pl3 322  ARG322     -0.0865
     67  CZ        -1.3550  -23.0990   19.7100 C.cat 322  ARG322      0.5346
     68  NH1       -2.1450  -22.8550   18.6730 N.pl3 322  ARG322      0.1354
     69  NH2       -0.0480  -23.2470   19.5310 N.pl3 322  ARG322      0.1354
     70  N          2.7950  -28.2330   27.4570 N.3   326  TRP326     -0.1241
     71  CA         4.0060  -27.4810   27.7570 C.3   326  TRP326      0.1605
     72  C          4.5510  -27.8560   29.1330 C.2   326  TRP326      0.2264
     73  O          5.7460  -28.1250   29.2910 O.2   326  TRP326     -0.2867
     74  CB         3.7000  -25.9840   27.6690 C.3   326  TRP326      0.0550
     75  CG         4.7780  -25.0470   28.1340 C.ar  326  TRP326      0.0003
     76  CD1        6.1270  -25.2280   28.0530 C.ar  326  TRP326      0.0946
     77  CD2        4.5790  -23.7680   28.7460 C.ar  326  TRP326      0.0152
     78  NE1        6.7820  -24.1380   28.5770 N.ar  326  TRP326     -0.2442
     79  CE2        5.8540  -23.2290   29.0110 C.ar  326  TRP326      0.0810
     80  CE3        3.4450  -23.0270   29.0950 C.ar  326  TRP326      0.0012
     81  CZ2        6.0260  -21.9820   29.6140 C.ar  326  TRP326      0.0191
     82  CZ3        3.6150  -21.7920   29.6900 C.ar  326  TRP326      0.0001
     83  CH2        4.8970  -21.2810   29.9450 C.ar  326  TRP326      0.0015
@<TRIPOS>BOND
     1    68    67    1
     2    21    20    1
     3    69    67    1
     4    67    66    2
     5     1     2    1
     6     4     3    2
     7    20    17    1
     8     3     2    1
     9     3    10   am
    10     2     5    1
    11    16    17    1
    12    16    12   am
    13    66    65    1
    14    11    10    1
    15    11    12    1
    16    11    14    1
    17    26    27    1
    18    26    23    1
    19    17    18    1
    20    12    13    2
    21    18    22   am
    22    18    19    2
    23    22    23    1
    24    14    15    1
    25    23    24    1
    26     5     6    1
    27    65    64    1
    28     6     7    1
    29    64    63    1
    30     8     7    2
    31     7     9   am
    32    36    33    1
    33    24    25    2
    34    24    28   am
    35    32    33    1
    36    28    29    1
    37    33    34    1
    38    63    60    1
    39    60    59    1
    40    60    61    1
    41    30    29    1
    42    30    31    2
    43    34    35    2
    44    51    50    1
    45    61    62    2
    46    50    49    1
    47    70    71    1
    48    58    56    1
    49    57    56    1
    50    74    71    1
    51    74    75    1
    52    71    72    1
    53    49    48    1
    54    43    41    1
    55    76    75   ar
    56    76    78   ar
    57    75    77   ar
    58    56    53    1
    59    53    52    1
    60    53    54    1
    61    55    54    2
    62    78    79   ar
    63    37    38    1
    64    77    79   ar
    65    77    80   ar
    66    79    81   ar
    67    38    41    1
    68    38    39    1
    69    80    82   ar
    70    72    73    2
    71    48    45    1
    72    41    42    1
    73    81    83   ar
    74    82    83   ar
    75    47    46    2
    76    45    46    1
    77    45    44    1
    78    39    40    2
