@<TRIPOS>MOLECULE
tmp/5ph8A02.pdb
 71 69 0 0 0
SMALL
GASTEIGER

@<TRIPOS>ATOM
      1  N         24.2690  -12.3890   11.9160 N.3    70  SER70      -0.1202
      2  CA        24.8290  -13.4580   11.0870 C.3    70  SER70       0.2020
      3  C         23.9330  -13.6900    9.8910 C.2    70  SER70       0.2619
      4  O         22.7200  -13.7250   10.0410 O.2    70  SER70      -0.2717
      5  CB        24.9120  -14.7690   11.8680 C.3    70  SER70       0.2103
      6  OG        25.6980  -14.6210   13.0280 O.3    70  SER70      -0.2182
      7  N         24.5220  -13.8890    8.7170 N.am   71  GLY71      -0.1942
      8  CA        23.7520  -14.1960    7.5270 C.3    71  GLY71       0.2014
      9  C         24.1290  -13.2810    6.3860 C.2    71  GLY71       0.2638
     10  O         25.3000  -12.9760    6.1810 O.2    71  GLY71      -0.2714
     11  N         23.1190  -12.8320    5.6560 N.am   72  ARG72      -0.1977
     12  CA        23.3040  -11.9480    4.5220 C.3    72  ARG72       0.1597
     13  C         22.6560  -10.6050    4.8370 C.2    72  ARG72       0.2287
     14  O         21.9140  -10.4850    5.8130 O.2    72  ARG72      -0.2864
     15  CB        22.6840  -12.5790    3.2770 C.3    72  ARG72       0.0334
     16  CG        23.2370  -13.9640    2.9660 C.3    72  ARG72       0.0492
     17  CD        22.5390  -14.5740    1.7670 C.3    72  ARG72       0.2205
     18  NE        21.1390  -14.8940    2.0260 N.pl3  72  ARG72      -0.0865
     19  CZ        20.6670  -16.1280    2.1670 C.cat  72  ARG72       0.5346
     20  NH1       19.3770  -16.3230    2.3920 N.pl3  72  ARG72       0.1354
     21  NH2       21.4820  -17.1680    2.0810 N.pl3  72  ARG72       0.1354
     22  N         18.8390  -11.0300    4.8310 N.3    75  VAL75      -0.1245
     23  CA        18.2980  -12.1840    5.5500 C.3    75  VAL75       0.1561
     24  C         19.3100  -12.5770    6.6020 C.2    75  VAL75       0.2260
     25  O         20.3440  -13.1780    6.2940 O.2    75  VAL75      -0.2867
     26  CB        18.0570  -13.4010    4.6210 C.3    75  VAL75       0.0252
     27  CG1       17.4860  -14.5800    5.4030 C.3    75  VAL75       0.0019
     28  CG2       17.1440  -13.0290    3.4530 C.3    75  VAL75       0.0019
     29  N         20.0450  -13.3090   11.1540 N.3    77  THR77      -0.1218
     30  CA        19.5900  -13.3690   12.5280 C.3    77  THR77       0.1862
     31  C         20.4820  -12.4840   13.3790 C.2    77  THR77       0.2287
     32  O         21.5810  -12.1220   12.9750 O.2    77  THR77      -0.2866
     33  CB        19.6170  -14.8040   13.0770 C.3    77  THR77       0.1770
     34  OG1       20.9500  -15.3160   12.9820 O.3    77  THR77      -0.2211
     35  CG2       18.6830  -15.6970   12.2850 C.3    77  THR77       0.0375
     36  N         13.5280  -19.4040    4.7110 N.3   220  LEU220     -0.1231
     37  CA        14.7610  -18.6190    4.8260 C.3   220  LEU220      0.1693
     38  C         15.6240  -18.9900    6.0250 C.2   220  LEU220      0.2592
     39  O         16.8280  -18.7170    6.0300 O.2   220  LEU220     -0.2718
     40  CB        14.4390  -17.1280    4.8950 C.3   220  LEU220      0.0284
     41  CG        13.8410  -16.5160    3.6350 C.3   220  LEU220      0.0019
     42  CD1       13.5690  -15.0220    3.8370 C.3   220  LEU220      0.0001
     43  CD2       14.7890  -16.7320    2.4660 C.3   220  LEU220      0.0001
     44  N         15.0060  -19.5780    7.0460 N.am  221  PHE221     -0.1963
     45  CA        15.7100  -19.9670    8.2650 C.3   221  PHE221      0.1756
     46  C         15.4090  -21.4290    8.5590 C.2   221  PHE221      0.2461
     47  O         14.7780  -21.7610    9.5590 O.2   221  PHE221     -0.2730
     48  CB        15.2930  -19.0770    9.4450 C.3   221  PHE221      0.0574
     49  CG        15.4950  -17.6080    9.1920 C.ar  221  PHE221     -0.0200
     50  CD1       16.7270  -17.0110    9.4160 C.ar  221  PHE221     -0.0042
     51  CD2       14.4660  -16.8270    8.6990 C.ar  221  PHE221     -0.0042
     52  CE1       16.9230  -15.6600    9.1650 C.ar  221  PHE221     -0.0003
     53  CE2       14.6560  -15.4700    8.4440 C.ar  221  PHE221     -0.0003
     54  CZ        15.8870  -14.8880    8.6800 C.ar  221  PHE221     -0.0000
     55  N         15.8780  -22.3190    7.6800 N.am  222  PRO222     -0.2716
     56  CA        15.4490  -23.7200    7.7390 C.3   222  PRO222      0.1536
     57  C         15.8630  -24.4480    9.0220 C.2   222  PRO222      0.2599
     58  O         15.0610  -25.2120    9.5580 O.2   222  PRO222     -0.2715
     59  CB        16.0980  -24.3440    6.4990 C.3   222  PRO222      0.0310
     60  CG        17.1730  -23.3950    6.0890 C.3   222  PRO222      0.0237
     61  CD        16.7550  -22.0390    6.5330 C.3   222  PRO222      0.0939
     62  N         17.0760  -24.2100    9.5080 N.am  223  GLY223     -0.1941
     63  CA        17.5220  -24.8170   10.7520 C.3   223  GLY223      0.2014
     64  C         16.6700  -24.3720   11.9320 C.2   223  GLY223      0.2639
     65  O         16.2530  -25.1830   12.7610 O.2   223  GLY223     -0.2714
     66  N         16.4070  -23.0720   12.0080 N.am  224  SER224     -0.1949
     67  CA        15.5780  -22.5230   13.0770 C.3   224  SER224      0.1924
     68  C         14.1870  -23.1410   13.0490 C.2   224  SER224      0.2314
     69  O         13.6190  -23.4850   14.0890 O.2   224  SER224     -0.2863
     70  CB        15.4610  -21.0070   12.9270 C.3   224  SER224      0.2116
     71  OG        16.7250  -20.3790   13.0330 O.3   224  SER224     -0.2180
@<TRIPOS>BOND
     1    17    18    1
     2    17    16    1
     3    18    19    2
     4    21    19    1
     5    19    20    1
     6    43    41    1
     7    16    15    1
     8    15    12    1
     9    28    26    1
    10    41    42    1
    11    41    40    1
    12    12    13    1
    13    12    11    1
    14    26    27    1
    15    26    23    1
    16    36    37    1
    17    37    40    1
    18    37    38    1
    19    22    23    1
    20    13    14    2
    21    23    24    1
    22    11     9   am
    23    38    39    2
    24    38    44   am
    25    60    59    1
    26    60    61    1
    27    10     9    2
    28    25    24    2
    29     9     8    1
    30    59    56    1
    31    61    55    1
    32    44    45    1
    33     8     7    1
    34    55    56    1
    35    55    46   am
    36    56    57    1
    37    45    46    1
    38    45    48    1
    39    53    54   ar
    40    53    51   ar
    41    46    47    2
    42    54    52   ar
    43    51    49   ar
    44     7     3   am
    45    57    62   am
    46    57    58    2
    47    52    50   ar
    48    49    50   ar
    49    49    48    1
    50    62    63    1
    51     3     4    2
    52     3     2    1
    53    63    64    1
    54     2     5    1
    55     2     1    1
    56    29    30    1
    57     5     6    1
    58    64    66   am
    59    64    65    2
    60    66    67    1
    61    35    33    1
    62    30    33    1
    63    30    31    1
    64    70    71    1
    65    70    67    1
    66    32    31    2
    67    34    33    1
    68    68    67    1
    69    68    69    2
