@<TRIPOS>MOLECULE
tmp/5ph8A01.pdb
 98 94 0 0 0
SMALL
GASTEIGER

@<TRIPOS>ATOM
      1  N          0.4980  -15.6530    7.9480 N.3   211  GLN211     -0.1245
      2  CA         0.9890  -16.9880    7.6250 C.3   211  GLN211      0.1566
      3  C          1.9020  -16.9890    6.4050 C.2   211  GLN211      0.2260
      4  O          2.7780  -17.8400    6.2940 O.2   211  GLN211     -0.2867
      5  CB        -0.1670  -17.9800    7.4710 C.3   211  GLN211      0.0367
      6  CG        -0.8730  -18.2750    8.7880 C.3   211  GLN211      0.0905
      7  CD        -1.9900  -19.2890    8.6480 C.2   211  GLN211      0.2608
      8  OE1       -2.5510  -19.4650    7.5700 O.2   211  GLN211     -0.2717
      9  NE2       -2.3150  -19.9630    9.7440 N.am  211  GLN211     -0.0878
     10  N          5.2430  -16.2710    7.7970 N.3   214  GLU214     -0.1245
     11  CA         5.7180  -17.4640    8.4930 C.3   214  GLU214      0.1567
     12  C          6.2820  -18.4900    7.5150 C.2   214  GLU214      0.2260
     13  O          7.3360  -19.0830    7.7540 O.2   214  GLU214     -0.2867
     14  CB         4.5900  -18.0930    9.3170 C.3   214  GLU214      0.0388
     15  CG         4.1760  -17.2370   10.5060 C.3   214  GLU214      0.1160
     16  CD         2.9510  -17.7530   11.2210 C.2   214  GLU214      0.3649
     17  OE1        2.3290  -18.7260   10.7420 O.co2 214  GLU214     -0.2457
     18  OE2        2.6040  -17.1730   12.2700 O.co2 214  GLU214     -0.2457
     19  N         10.1570  -19.8410    7.3400 N.3   218  ARG218     -0.1245
     20  CA        10.5690  -21.2410    7.4290 C.3   218  ARG218      0.1563
     21  C         11.4990  -21.6310    6.2830 C.2   218  ARG218      0.2260
     22  O         12.3970  -22.4550    6.4550 O.2   218  ARG218     -0.2867
     23  CB         9.3580  -22.1730    7.4780 C.3   218  ARG218      0.0307
     24  CG         8.5760  -22.0880    8.7740 C.3   218  ARG218      0.0489
     25  CD         7.5370  -23.1890    8.8800 C.3   218  ARG218      0.2205
     26  NE         6.7450  -23.0480   10.0970 N.pl3 218  ARG218     -0.0865
     27  CZ         5.5880  -22.3990   10.1590 C.cat 218  ARG218      0.5346
     28  NH1        5.0830  -21.8440    9.0660 N.pl3 218  ARG218      0.1354
     29  NH2        4.9330  -22.3090   11.3090 N.pl3 218  ARG218      0.1354
     30  N          8.6170  -24.9710   16.1720 N.3   229  GLY229     -0.1210
     31  CA         7.4580  -24.7240   15.3320 C.3   229  GLY229      0.1956
     32  C          6.9420  -23.2980   15.3830 C.2   229  GLY229      0.2612
     33  O          6.0490  -22.9290   14.6160 O.2   229  GLY229     -0.2717
     34  N          7.4990  -22.4970   16.2870 N.am  230  ALA230     -0.1965
     35  CA         7.1250  -21.0870   16.4140 C.3   230  ALA230      0.1728
     36  C          8.3780  -20.2390   16.6210 C.2   230  ALA230      0.2616
     37  O          8.4230  -19.3900   17.5030 O.2   230  ALA230     -0.2715
     38  CB         6.1460  -20.8930   17.5780 C.3   230  ALA230      0.0334
     39  N          9.3970  -20.4600   15.7990 N.am  231  PHE231     -0.1960
     40  CA        10.6990  -19.8500   16.0690 C.3   231  PHE231      0.1771
     41  C         10.7200  -18.3240   15.9530 C.2   231  PHE231      0.2619
     42  O         11.6360  -17.6840   16.4680 O.2   231  PHE231     -0.2715
     43  CB        11.8040  -20.4710   15.2060 C.3   231  PHE231      0.0574
     44  CG        11.7850  -20.0070   13.7840 C.ar  231  PHE231     -0.0200
     45  CD1       10.9990  -20.6490   12.8430 C.ar  231  PHE231     -0.0042
     46  CD2       12.5490  -18.9210   13.3890 C.ar  231  PHE231     -0.0042
     47  CE1       10.9720  -20.2150   11.5300 C.ar  231  PHE231     -0.0003
     48  CE2       12.5290  -18.4860   12.0760 C.ar  231  PHE231     -0.0003
     49  CZ        11.7410  -19.1340   11.1480 C.ar  231  PHE231     -0.0000
     50  N          9.7290  -17.7260   15.2960 N.am  232  LEU232     -0.1963
     51  CA         9.7010  -16.2670   15.2640 C.3   232  LEU232      0.1728
     52  C          9.4710  -15.6930   16.6700 C.2   232  LEU232      0.2616
     53  O          9.8070  -14.5430   16.9290 O.2   232  LEU232     -0.2715
     54  CB         8.6980  -15.7250   14.2350 C.3   232  LEU232      0.0311
     55  CG         9.0970  -15.9250   12.7700 C.3   232  LEU232      0.0022
     56  CD1        7.9900  -15.4370   11.8600 C.3   232  LEU232      0.0001
     57  CD2       10.4180  -15.2230   12.4370 C.3   232  LEU232      0.0001
     58  N          8.9320  -16.5160   17.5710 N.am  233  ARG233     -0.1977
     59  CA         8.7990  -16.1530   18.9880 C.3   233  ARG233      0.1597
     60  C         10.1650  -15.8490   19.6180 C.2   233  ARG233      0.2287
     61  O         10.2420  -15.1820   20.6500 O.2   233  ARG233     -0.2864
     62  CB         8.1400  -17.2880   19.7930 C.3   233  ARG233      0.0334
     63  CG         6.6680  -17.5730   19.4790 C.3   233  ARG233      0.0492
     64  CD         5.7710  -16.4840   20.0160 C.3   233  ARG233      0.2205
     65  NE         4.3770  -16.6620   19.6250 N.pl3 233  ARG233     -0.0865
     66  CZ         3.5000  -15.6630   19.5600 C.cat 233  ARG233      0.5346
     67  NH1        3.8820  -14.4220   19.8360 N.pl3 233  ARG233      0.1354
     68  NH2        2.2470  -15.9050   19.2080 N.pl3 233  ARG233      0.1354
     69  N         -1.6550  -10.2150   16.0380 N.3   267  TYR267     -0.1241
     70  CA        -1.1140  -11.0200   14.9550 C.3   267  TYR267      0.1605
     71  C         -0.5720  -10.1750   13.7950 C.2   267  TYR267      0.2264
     72  O         -0.4310  -10.6450   12.6670 O.2   267  TYR267     -0.2867
     73  CB        -2.1190  -12.0940   14.5050 C.3   267  TYR267      0.0534
     74  CG        -1.4900  -13.1870   13.6560 C.ar  267  TYR267     -0.0201
     75  CD1       -0.4740  -13.9950   14.1660 C.ar  267  TYR267     -0.0009
     76  CD2       -1.9010  -13.4000   12.3420 C.ar  267  TYR267     -0.0009
     77  CE1        0.1100  -14.9820   13.3920 C.ar  267  TYR267      0.0417
     78  CE2       -1.3290  -14.3830   11.5620 C.ar  267  TYR267      0.0417
     79  CZ        -0.3230  -15.1720   12.0890 C.ar  267  TYR267      0.1957
     80  OH         0.2460  -16.1530   11.3140 O.3   267  TYR267     -0.2866
     81  N          2.5820   -8.9830   12.4170 N.3   269  TYR269     -0.1241
     82  CA         4.0380   -9.1340   12.4620 C.3   269  TYR269      0.1605
     83  C          4.6940   -7.7900   12.1730 C.2   269  TYR269      0.2264
     84  O          4.3170   -7.0940   11.2210 O.2   269  TYR269     -0.2867
     85  CB         4.5190  -10.1570   11.4260 C.3   269  TYR269      0.0534
     86  CG         4.4560  -11.5870   11.9060 C.ar  269  TYR269     -0.0201
     87  CD1        5.4280  -12.0870   12.7690 C.ar  269  TYR269     -0.0009
     88  CD2        3.4260  -12.4360   11.5070 C.ar  269  TYR269     -0.0009
     89  CE1        5.3850  -13.3950   13.2160 C.ar  269  TYR269      0.0417
     90  CE2        3.3660  -13.7390   11.9580 C.ar  269  TYR269      0.0417
     91  CZ         4.3500  -14.2130   12.8190 C.ar  269  TYR269      0.1957
     92  OH         4.3110  -15.5020   13.2960 O.3   269  TYR269     -0.2866
     93  N          0.2850  -18.9840   18.4210 N.3   298  SER298     -0.1217
     94  CA         1.2740  -20.0620   18.3880 C.3   298  SER298      0.1889
     95  C          2.3630  -19.8520   19.4430 C.2   298  SER298      0.2288
     96  O          2.8320  -18.7350   19.6420 O.2   298  SER298     -0.2866
     97  CB         1.8980  -20.1750   16.9940 C.3   298  SER298      0.2089
     98  OG         0.9110  -20.4480   16.0120 O.3   298  SER298     -0.2183
@<TRIPOS>BOND
     1    21    22    2
     2    21    20    1
     3     4     3    2
     4     3     2    1
     5    19    20    1
     6    20    23    1
     7     5     2    1
     8     5     6    1
     9    23    24    1
    10    12    13    2
    11    12    11    1
    12     8     7    2
    13     2     1    1
    14    10    11    1
    15    11    14    1
    16     7     6    1
    17     7     9   am
    18    24    25    1
    19    25    26    1
    20    28    27    1
    21    14    15    1
    22    26    27    2
    23    27    29    1
    24    15    16    1
    25    17    16   ar
    26    49    47   ar
    27    49    48   ar
    28    16    18   ar
    29    84    83    2
    30    80    79    1
    31    85    86    1
    32    85    82    1
    33    88    86   ar
    34    88    90   ar
    35    47    45   ar
    36    78    79   ar
    37    78    76   ar
    38    56    55    1
    39    86    87   ar
    40    90    91   ar
    41    48    46   ar
    42    79    77   ar
    43    83    82    1
    44    76    74   ar
    45    81    82    1
    46    57    55    1
    47    72    71    2
    48    87    89   ar
    49    55    54    1
    50    91    89   ar
    51    91    92    1
    52    45    44   ar
    53    46    44   ar
    54    77    75   ar
    55    74    75   ar
    56    74    73    1
    57    44    43    1
    58    71    70    1
    59    54    51    1
    60    73    70    1
    61    33    32    2
    62    70    69    1
    63    43    40    1
    64    51    50    1
    65    51    52    1
    66    50    41   am
    67    31    32    1
    68    31    30    1
    69    32    34   am
    70    39    40    1
    71    39    36   am
    72    41    40    1
    73    41    42    2
    74    98    97    1
    75    34    35    1
    76    35    36    1
    77    35    38    1
    78    36    37    2
    79    52    53    2
    80    52    58   am
    81    97    94    1
    82    58    59    1
    83    94    93    1
    84    94    95    1
    85    59    60    1
    86    59    62    1
    87    68    66    1
    88    95    96    2
    89    63    62    1
    90    63    64    1
    91    66    65    2
    92    66    67    1
    93    60    61    2
    94    65    64    1
