@<TRIPOS>MOLECULE
tmp/5ph9A01.pdb
 113 108 0 0 0
SMALL
GASTEIGER

@<TRIPOS>ATOM
      1  N         21.7350   -1.8590   22.5420 N.3   126  TYR126     -0.1241
      2  CA        20.3170   -1.5140   22.7990 C.3   126  TYR126      0.1605
      3  C         19.9770   -1.6630   24.3010 C.2   126  TYR126      0.2264
      4  O         20.3300   -2.6770   24.9040 O.2   126  TYR126     -0.2867
      5  CB        19.3940   -2.4340   21.9570 C.3   126  TYR126      0.0534
      6  CG        18.0250   -1.8910   21.5350 C.ar  126  TYR126     -0.0201
      7  CD1       17.5830   -0.6430   21.9330 C.ar  126  TYR126     -0.0009
      8  CD2       17.1820   -2.6420   20.7110 C.ar  126  TYR126     -0.0009
      9  CE1       16.3380   -0.1530   21.5460 C.ar  126  TYR126      0.0417
     10  CE2       15.9320   -2.1610   20.3180 C.ar  126  TYR126      0.0417
     11  CZ        15.5200   -0.9110   20.7390 C.ar  126  TYR126      0.1957
     12  OH        14.2900   -0.4120   20.3480 O.3   126  TYR126     -0.2866
     13  N         13.6630   -3.5380   27.2050 N.3   129  ASP129     -0.1239
     14  CA        12.8460   -4.2110   28.2050 C.3   129  ASP129      0.1674
     15  C         13.2090   -3.7600   29.6150 C.2   129  ASP129      0.2266
     16  O         13.3990   -4.5770   30.5140 O.2   129  ASP129     -0.2867
     17  CB        13.0010   -5.7340   28.0840 C.3   129  ASP129      0.1410
     18  CG        12.6270   -6.2580   26.7050 C.2   129  ASP129      0.3668
     19  OD1       11.6410   -5.7630   26.1200 O.co2 129  ASP129     -0.2456
     20  OD2       13.3190   -7.1720   26.2050 O.co2 129  ASP129     -0.2456
     21  N         12.7350    1.5400   26.2610 N.3   171  TYR171     -0.1241
     22  CA        13.7100    1.1080   25.2740 C.3   171  TYR171      0.1605
     23  C         14.5960    2.2750   24.9070 C.2   171  TYR171      0.2264
     24  O         14.1190    3.2780   24.3950 O.2   171  TYR171     -0.2867
     25  CB        13.0230    0.5680   24.0120 C.3   171  TYR171      0.0534
     26  CG        12.0990   -0.5900   24.2650 C.ar  171  TYR171     -0.0201
     27  CD1       10.8090   -0.3870   24.7510 C.ar  171  TYR171     -0.0009
     28  CD2       12.5140   -1.8900   24.0290 C.ar  171  TYR171     -0.0009
     29  CE1        9.9710   -1.4450   24.9970 C.ar  171  TYR171      0.0417
     30  CE2       11.6760   -2.9570   24.2720 C.ar  171  TYR171      0.0417
     31  CZ        10.4060   -2.7270   24.7560 C.ar  171  TYR171      0.1957
     32  OH         9.5620   -3.7830   24.9970 O.3   171  TYR171     -0.2866
     33  N         14.6880   -4.2820   15.9840 N.3   179  PHE179     -0.1241
     34  CA        13.7530   -5.2560   16.5370 C.3   179  PHE179      0.1605
     35  C         13.3220   -6.2330   15.4490 C.2   179  PHE179      0.2264
     36  O         12.9100   -5.8530   14.3470 O.2   179  PHE179     -0.2867
     37  CB        12.5430   -4.6130   17.2670 C.3   179  PHE179      0.0534
     38  CG        11.7810   -3.5540   16.5020 C.ar  179  PHE179     -0.0203
     39  CD1       12.2680   -2.2560   16.3950 C.ar  179  PHE179     -0.0042
     40  CD2       10.5030   -3.8230   16.0220 C.ar  179  PHE179     -0.0042
     41  CE1       11.5330   -1.2690   15.7480 C.ar  179  PHE179     -0.0003
     42  CE2        9.7520   -2.8430   15.3830 C.ar  179  PHE179     -0.0003
     43  CZ        10.2700   -1.5670   15.2330 C.ar  179  PHE179     -0.0000
     44  N          8.2930  -10.1290   14.6990 N.3   182  HIS182     -0.1241
     45  CA         7.5360  -10.7970   15.7510 C.3   182  HIS182      0.1621
     46  C          6.0970  -10.3120   15.7930 C.2   182  HIS182      0.2264
     47  O          5.7730   -9.2520   15.2540 O.2   182  HIS182     -0.2867
     48  CB         8.1890  -10.5560   17.1210 C.3   182  HIS182      0.0745
     49  CG         8.0670   -9.1410   17.6050 C.ar  182  HIS182      0.0817
     50  ND1        8.8510   -8.1180   17.1160 N.ar  182  HIS182     -0.2268
     51  CD2        7.2510   -8.5780   18.5290 C.ar  182  HIS182      0.1154
     52  CE1        8.5270   -6.9880   17.7190 C.ar  182  HIS182      0.1986
     53  NE2        7.5530   -7.2370   18.5790 N.ar  182  HIS182     -0.2212
     54  N          3.1870    1.8820   21.5980 N.3   192  ASN192     -0.1240
     55  CA         4.5650    2.3310   21.6810 C.3   192  ASN192      0.1653
     56  C          4.6010    3.8400   21.5380 C.2   192  ASN192      0.2266
     57  O          4.1230    4.3760   20.5310 O.2   192  ASN192     -0.2867
     58  CB         5.3900    1.6450   20.5770 C.3   192  ASN192      0.1155
     59  CG         6.8520    2.0140   20.6090 C.2   192  ASN192      0.2627
     60  OD1        7.2190    3.1840   20.4690 O.2   192  ASN192     -0.2716
     61  ND2        7.7090    1.0000   20.7380 N.am  192  ASN192     -0.0877
     62  N         12.1230    6.0230   14.5530 N.3   200  LYS200     -0.1245
     63  CA        12.0900    4.5680   14.5000 C.3   200  LYS200      0.1561
     64  C         11.3090    4.1680   13.2460 C.2   200  LYS200      0.2260
     65  O         10.1670    4.6000   13.0630 O.2   200  LYS200     -0.2867
     66  CB        11.4360    4.0070   15.7710 C.3   200  LYS200      0.0271
     67  CG        11.3980    2.4920   15.8760 C.3   200  LYS200      0.0035
     68  CD        10.5960    2.0390   17.1080 C.3   200  LYS200      0.0206
     69  CE        11.0340    2.7450   18.4010 C.3   200  LYS200      0.1093
     70  NZ        12.1140    2.0370   19.1530 N.3   200  LYS200     -0.1314
     71  N          9.3480    1.3470   11.0780 N.3   202  TRP202     -0.1241
     72  CA         8.5960    0.1120   11.2680 C.3   202  TRP202      0.1605
     73  C          8.2540   -0.5680    9.9470 C.2   202  TRP202      0.2264
     74  O          7.9250    0.1080    8.9710 O.2   202  TRP202     -0.2867
     75  CB         7.2750    0.3760   11.9890 C.3   202  TRP202      0.0550
     76  CG         7.3650    0.9720   13.3690 C.ar  202  TRP202      0.0003
     77  CD1        7.8030    2.2270   13.7000 C.ar  202  TRP202      0.0946
     78  CD2        6.9480    0.3590   14.5950 C.ar  202  TRP202      0.0152
     79  NE1        7.7100    2.4200   15.0630 N.ar  202  TRP202     -0.2442
     80  CE2        7.1840    1.2910   15.6320 C.ar  202  TRP202      0.0810
     81  CE3        6.3960   -0.8880   14.9190 C.ar  202  TRP202      0.0012
     82  CZ2        6.8850    1.0140   16.9690 C.ar  202  TRP202      0.0191
     83  CZ3        6.0990   -1.1620   16.2510 C.ar  202  TRP202      0.0001
     84  CH2        6.3430   -0.2140   17.2580 C.ar  202  TRP202      0.0015
     85  N         12.3190  -13.9720   18.5020 N.3   235  LYS235     -0.1245
     86  CA        12.5910  -12.5780   18.1620 C.3   235  LYS235      0.1561
     87  C         14.0550  -12.3450   17.7990 C.2   235  LYS235      0.2260
     88  O         14.7220  -11.4820   18.3630 O.2   235  LYS235     -0.2867
     89  CB        12.1580  -11.6540   19.3070 C.3   235  LYS235      0.0271
     90  CG        10.6860  -11.8150   19.6670 C.3   235  LYS235      0.0035
     91  CD        10.1570  -10.6550   20.4950 C.3   235  LYS235      0.0206
     92  CE        10.7330  -10.6550   21.8990 C.3   235  LYS235      0.1093
     93  NZ        10.0400   -9.6600   22.7630 N.3   235  LYS235     -0.1314
     94  N          5.6690   -7.4070   13.0310 N.3   270  HIS270     -0.1241
     95  CA         6.3930   -6.1730   12.7850 C.3   270  HIS270      0.1621
     96  C          7.8740   -6.3170   13.1080 C.2   270  HIS270      0.2264
     97  O          8.2790   -7.2300   13.8410 O.2   270  HIS270     -0.2867
     98  CB         5.7760   -5.0060   13.5720 C.3   270  HIS270      0.0745
     99  CG         5.5920   -5.2830   15.0330 C.ar  270  HIS270      0.0817
    100  ND1        4.5700   -6.0710   15.5170 N.ar  270  HIS270     -0.2268
    101  CD2        6.2840   -4.8560   16.1180 C.ar  270  HIS270      0.1154
    102  CE1        4.6520   -6.1370   16.8350 C.ar  270  HIS270      0.1986
    103  NE2        5.6850   -5.4100   17.2250 N.ar  270  HIS270     -0.2212
    104  N         11.9220    5.0100   23.7620 N.3   280  ALA280     -0.1245
    105  CA        10.5200    4.6550   23.5860 C.3   280  ALA280      0.1562
    106  C          9.9830    3.9330   24.8110 C.2   280  ALA280      0.2260
    107  O         10.7350    3.3520   25.5920 O.2   280  ALA280     -0.2867
    108  CB        10.3440    3.7920   22.3400 C.3   280  ALA280      0.0290
    109  N          6.7420    1.2050   25.8310 N.3   282  ALA282     -0.1245
    110  CA         5.7310    0.3490   25.2270 C.3   282  ALA282      0.1562
    111  C          5.1150   -0.5840   26.2470 C.2   282  ALA282      0.2260
    112  O          5.7310   -0.9020   27.2630 O.2   282  ALA282     -0.2867
    113  CB         6.3320   -0.4560   24.0740 C.3   282  ALA282      0.0290
@<TRIPOS>BOND
     1    74    73    2
     2    73    72    1
     3    71    72    1
     4    72    75    1
     5    75    76    1
     6    95    94    1
     7    95    96    1
     8    95    98    1
     9    65    64    2
    10    96    97    2
    11    64    63    1
    12    76    77   ar
    13    76    78   ar
    14    98    99    1
    15    77    79   ar
    16    36    35    2
    17    63    62    1
    18    63    66    1
    19    78    81   ar
    20    78    80   ar
    21    44    45    1
    22    81    83   ar
    23    99   100   ar
    24    99   101   ar
    25    79    80   ar
    26    43    42   ar
    27    43    41   ar
    28    47    46    2
    29    42    40   ar
    30    35    34    1
    31   100   102   ar
    32    80    82   ar
    33    41    39   ar
    34    45    46    1
    35    45    48    1
    36    66    67    1
    37    67    68    1
    38    33    34    1
    39    40    38   ar
    40   101   103   ar
    41    83    84   ar
    42    39    38   ar
    43    38    37    1
    44    34    37    1
    45   102   103   ar
    46    82    84   ar
    47    68    69    1
    48    50    49   ar
    49    50    52   ar
    50    48    49    1
    51    49    51   ar
    52    52    53   ar
    53    87    86    1
    54    87    88    2
    55    86    85    1
    56    86    89    1
    57    69    70    1
    58    51    53   ar
    59    89    90    1
    60    90    91    1
    61    10     8   ar
    62    10    11   ar
    63    12    11    1
    64    60    59    2
    65    91    92    1
    66    57    56    2
    67    58    59    1
    68    58    55    1
    69    59    61   am
    70     8     6   ar
    71    11     9   ar
    72     6     7   ar
    73     6     5    1
    74    56    55    1
    75     9     7   ar
    76    54    55    1
    77    92    93    1
    78     5     2    1
    79   108   105    1
    80     1     2    1
    81     2     3    1
    82   105   104    1
    83   105   106    1
    84    25    26    1
    85    25    22    1
    86    28    26   ar
    87    28    30   ar
    88   113   110    1
    89    26    27   ar
    90    30    31   ar
    91     3     4    2
    92    24    23    2
    93    27    29   ar
    94    31    32    1
    95    31    29   ar
    96   106   107    2
    97    23    22    1
    98   110   109    1
    99   110   111    1
   100    22    21    1
   101    19    18   ar
   102    20    18   ar
   103   111   112    2
   104    18    17    1
   105    13    14    1
   106    17    14    1
   107    14    15    1
   108    15    16    2
