@<TRIPOS>MOLECULE
tmp/5phaA01.pdb
 114 110 0 0 0
SMALL
GASTEIGER

@<TRIPOS>ATOM
      1  N          2.7500  -20.9670   20.0960 N.3   299  GLN299     -0.1231
      2  CA         3.7020  -20.9010   21.1940 C.3   299  GLN299      0.1698
      3  C          5.0230  -21.5610   20.8630 C.2   299  GLN299      0.2592
      4  O          5.0710  -22.5680   20.1490 O.2   299  GLN299     -0.2718
      5  CB         3.1370  -21.5620   22.4520 C.3   299  GLN299      0.0381
      6  CG         1.7670  -21.0760   22.8860 C.3   299  GLN299      0.0905
      7  CD         1.7320  -19.5980   23.2500 C.2   299  GLN299      0.2608
      8  OE1        2.7670  -18.9400   23.3560 O.2   299  GLN299     -0.2717
      9  NE2        0.5340  -19.0730   23.4420 N.am  299  GLN299     -0.0878
     10  N          6.0870  -20.9730   21.3990 N.am  300  CYS300     -0.1956
     11  CA         7.3920  -21.6070   21.4440 C.3   300  CYS300      0.1843
     12  C          7.4380  -22.5670   22.6290 C.2   300  CYS300      0.2626
     13  O          7.2670  -22.1520   23.7780 O.2   300  CYS300     -0.2714
     14  CB         8.4970  -20.5540   21.5580 C.3   300  CYS300      0.0997
     15  SG        10.0780  -21.1740   22.1790 S.3   300  CYS300     -0.0797
     16  N          7.6470  -23.8490   22.3470 N.am  301  SER301     -0.1950
     17  CA         7.7440  -24.8600   23.3950 C.3   301  SER301      0.1924
     18  C          9.1270  -25.5030   23.4100 C.2   301  SER301      0.2314
     19  O          9.4260  -26.3240   24.2790 O.2   301  SER301     -0.2863
     20  CB         6.6690  -25.9350   23.2160 C.3   301  SER301      0.2116
     21  OG         5.3680  -25.4020   23.4070 O.3   301  SER301     -0.2180
     22  N         11.5360  -23.8950   24.1030 N.3   303  GLY303     -0.1225
     23  CA        11.9920  -23.2980   25.3420 C.3   303  GLY303      0.1811
     24  C         12.8420  -22.0490   25.2180 C.2   303  GLY303      0.2280
     25  O         13.1180  -21.3980   26.2240 O.2   303  GLY303     -0.2866
     26  N         12.1320  -19.1370   23.8570 N.3   305  ALA305     -0.1231
     27  CA        11.3670  -17.9470   24.1980 C.3   305  ALA305      0.1694
     28  C         10.7030  -18.1370   25.5530 C.2   305  ALA305      0.2592
     29  O          9.5930  -18.6660   25.6410 O.2   305  ALA305     -0.2718
     30  CB        10.3360  -17.6480   23.1330 C.3   305  ALA305      0.0304
     31  N         11.3960  -17.7130   26.6040 N.am  306  ARG306     -0.1966
     32  CA        10.8830  -17.8400   27.9610 C.3   306  ARG306      0.1729
     33  C          9.6020  -17.0390   28.1270 C.2   306  ARG306      0.2616
     34  O          9.5200  -15.8730   27.7390 O.2   306  ARG306     -0.2715
     35  CB        11.9280  -17.3830   28.9830 C.3   306  ARG306      0.0348
     36  CG        13.1760  -18.2610   28.9860 C.3   306  ARG306      0.0492
     37  CD        12.9350  -19.7180   29.3680 C.3   306  ARG306      0.2205
     38  NE        12.2600  -19.7960   30.6720 N.pl3 306  ARG306     -0.0865
     39  CZ        12.8670  -19.7560   31.8270 C.cat 306  ARG306      0.5346
     40  NH1       14.1930  -19.7150   31.9120 N.pl3 306  ARG306      0.1354
     41  NH2       12.1940  -19.7610   32.9550 N.pl3 306  ARG306      0.1354
     42  N          8.5970  -17.6810   28.7020 N.am  307  VAL307     -0.1977
     43  CA         7.3150  -17.0380   28.9000 C.3   307  VAL307      0.1596
     44  C          7.1740  -16.4860   30.3130 C.2   307  VAL307      0.2287
     45  O          7.3850  -17.2030   31.2930 O.2   307  VAL307     -0.2864
     46  CB         6.1740  -18.0050   28.6210 C.3   307  VAL307      0.0276
     47  CG1        4.9220  -17.4730   29.2270 C.3   307  VAL307      0.0022
     48  CG2        6.0130  -18.2080   27.1210 C.3   307  VAL307      0.0022
     49  N         -2.0240  -18.5850   28.8410 N.3   315  VAL315     -0.1245
     50  CA        -1.9540  -19.8840   28.1810 C.3   315  VAL315      0.1561
     51  C         -2.8500  -20.8630   28.9410 C.2   315  VAL315      0.2260
     52  O         -3.6000  -21.6320   28.3370 O.2   315  VAL315     -0.2867
     53  CB        -0.5000  -20.4280   28.0930 C.3   315  VAL315      0.0252
     54  CG1       -0.4780  -21.7750   27.3910 C.3   315  VAL315      0.0019
     55  CG2        0.3990  -19.4290   27.3580 C.3   315  VAL315      0.0019
     56  N         -2.6040  -26.8670   25.4120 N.3   322  ARG322     -0.1231
     57  CA        -1.1900  -26.6470   25.1410 C.3   322  ARG322      0.1694
     58  C         -0.4000  -26.3970   26.4150 C.2   322  ARG322      0.2592
     59  O          0.8250  -26.5100   26.4240 O.2   322  ARG322     -0.2718
     60  CB        -1.0040  -25.4660   24.1880 C.3   322  ARG322      0.0321
     61  CG        -1.4670  -25.7240   22.7710 C.3   322  ARG322      0.0489
     62  CD        -1.2970  -24.4760   21.9230 C.3   322  ARG322      0.2205
     63  NE        -1.5490  -24.7270   20.5090 N.pl3 322  ARG322     -0.0865
     64  CZ        -1.5620  -23.7790   19.5800 C.cat 322  ARG322      0.5346
     65  NH1       -1.3410  -22.5190   19.9220 N.pl3 322  ARG322      0.1354
     66  NH2       -1.7980  -24.0910   18.3130 N.pl3 322  ARG322      0.1354
     67  N         -1.1170  -26.0590   27.4810 N.am  323  TYR323     -0.1976
     68  CA        -0.5170  -25.5860   28.7250 C.3   323  TYR323      0.1639
     69  C          0.5950  -26.4910   29.2580 C.2   323  TYR323      0.2290
     70  O          1.6780  -26.0130   29.5920 O.2   323  TYR323     -0.2864
     71  CB        -1.6060  -25.4160   29.7870 C.3   323  TYR323      0.0560
     72  CG        -1.1080  -24.8720   31.1060 C.ar  323  TYR323     -0.0198
     73  CD1       -0.5350  -23.6080   31.1900 C.ar  323  TYR323     -0.0009
     74  CD2       -1.2140  -25.6200   32.2700 C.ar  323  TYR323     -0.0009
     75  CE1       -0.0820  -23.1070   32.3980 C.ar  323  TYR323      0.0417
     76  CE2       -0.7630  -25.1280   33.4820 C.ar  323  TYR323      0.0417
     77  CZ        -0.1950  -23.8720   33.5410 C.ar  323  TYR323      0.1957
     78  OH         0.2530  -23.3770   34.7470 O.3   323  TYR323     -0.2866
     79  N          3.7490  -26.6800   27.0130 N.3   326  TRP326     -0.1227
     80  CA         4.3160  -25.3510   26.8930 C.3   326  TRP326      0.1737
     81  C          5.0100  -24.9050   28.1830 C.2   326  TRP326      0.2595
     82  O          5.9740  -24.1390   28.1440 O.2   326  TRP326     -0.2718
     83  CB         3.2180  -24.3670   26.4830 C.3   326  TRP326      0.0564
     84  CG         3.4710  -22.9800   26.9050 C.ar  326  TRP326      0.0003
     85  CD1        4.0340  -21.9850   26.1660 C.ar  326  TRP326      0.0946
     86  CD2        3.1610  -22.4130   28.1770 C.ar  326  TRP326      0.0152
     87  NE1        4.1000  -20.8320   26.9060 N.ar  326  TRP326     -0.2442
     88  CE2        3.5710  -21.0740   28.1460 C.ar  326  TRP326      0.0810
     89  CE3        2.5840  -22.9150   29.3460 C.ar  326  TRP326      0.0012
     90  CZ2        3.4130  -20.2300   29.2310 C.ar  326  TRP326      0.0191
     91  CZ3        2.4370  -22.0740   30.4230 C.ar  326  TRP326      0.0001
     92  CH2        2.8510  -20.7470   30.3590 C.ar  326  TRP326      0.0015
     93  N          4.5290  -25.3920   29.3230 N.am  327  LYS327     -0.1980
     94  CA         5.1000  -25.0050   30.6100 C.3   327  LYS327      0.1596
     95  C          6.4050  -25.7520   30.8710 C.2   327  LYS327      0.2287
     96  O          7.2220  -25.3290   31.6910 O.2   327  LYS327     -0.2864
     97  CB         4.0980  -25.2550   31.7410 C.3   327  LYS327      0.0298
     98  CG         4.4990  -24.6510   33.0810 C.3   327  LYS327      0.0038
     99  CD         3.3330  -24.6460   34.0550 C.3   327  LYS327      0.0206
    100  CE         2.6330  -25.9950   34.0840 C.3   327  LYS327      0.1093
    101  NZ         3.5170  -27.0740   34.6030 N.3   327  LYS327     -0.1314
    102  N          8.6820  -26.1220   28.5320 N.3   329  GLY329     -0.1210
    103  CA         9.6480  -25.2440   27.8980 C.3   329  GLY329      0.1956
    104  C          9.9970  -24.1040   28.8320 C.2   329  GLY329      0.2611
    105  O         11.1290  -23.6190   28.8530 O.2   329  GLY329     -0.2717
    106  N          9.0090  -23.6800   29.6120 N.am  330  GLN330     -0.1979
    107  CA         9.2110  -22.6680   30.6370 C.3   330  GLN330      0.1601
    108  C         10.0850  -23.2120   31.7620 C.2   330  GLN330      0.2287
    109  O         10.9260  -22.5020   32.3060 O.2   330  GLN330     -0.2864
    110  CB         7.8640  -22.1980   31.1910 C.3   330  GLN330      0.0394
    111  CG         7.9470  -21.0510   32.1820 C.3   330  GLN330      0.0908
    112  CD         6.5770  -20.5790   32.6170 C.2   330  GLN330      0.2608
    113  OE1        5.5590  -21.0410   32.1010 O.2   330  GLN330     -0.2717
    114  NE2        6.5410  -19.6630   33.5780 N.am  330  GLN330     -0.0878
@<TRIPOS>BOND
     1    66    64    1
     2    64    65    1
     3    64    63    2
     4     1     2    1
     5     4     3    2
     6    63    62    1
     7     3     2    1
     8     3    10   am
     9     2     5    1
    10    10    11    1
    11    11    14    1
    12    11    12    1
    13    14    15    1
    14    62    61    1
    15    16    12   am
    16    16    17    1
    17     5     6    1
    18    12    13    2
    19    61    60    1
    20     6     7    1
    21    30    27    1
    22    20    17    1
    23    20    21    1
    24     7     8    2
    25     7     9   am
    26    17    18    1
    27    18    19    2
    28    26    27    1
    29    22    23    1
    30    60    57    1
    31    27    28    1
    32    57    56    1
    33    57    58    1
    34    24    23    1
    35    24    25    2
    36    28    29    2
    37    28    31   am
    38    85    84   ar
    39    85    87   ar
    40    58    59    2
    41    58    67   am
    42    83    80    1
    43    83    84    1
    44    31    32    1
    45    80    79    1
    46    80    81    1
    47    84    86   ar
    48    87    88   ar
    49    48    46    1
    50    55    53    1
    51    54    53    1
    52    67    68    1
    53    34    33    2
    54   103   102    1
    55   103   104    1
    56    32    33    1
    57    32    35    1
    58    53    50    1
    59    33    42   am
    60    82    81    2
    61    88    86   ar
    62    88    90   ar
    63    86    89   ar
    64    50    49    1
    65    50    51    1
    66    81    93   am
    67    52    51    2
    68    46    43    1
    69    46    47    1
    70    42    43    1
    71    68    69    1
    72    68    71    1
    73   104   105    2
    74   104   106   am
    75    43    44    1
    76    35    36    1
    77    36    37    1
    78    90    92   ar
    79    69    70    2
    80    93    94    1
    81    89    91   ar
    82    37    38    1
    83   106   107    1
    84    71    72    1
    85    44    45    2
    86    92    91   ar
    87    94    95    1
    88    94    97    1
    89   107   110    1
    90   107   108    1
    91    38    39    2
    92    95    96    2
    93    72    73   ar
    94    72    74   ar
    95    73    75   ar
    96   110   111    1
    97    97    98    1
    98   108   109    2
    99    39    40    1
   100    39    41    1
   101   113   112    2
   102   111   112    1
   103    74    76   ar
   104    75    77   ar
   105   112   114   am
   106    98    99    1
   107    76    77   ar
   108    77    78    1
   109    99   100    1
   110   100   101    1
