@<TRIPOS>MOLECULE
tmp/5phbA02.pdb
 124 118 0 0 0
SMALL
GASTEIGER

@<TRIPOS>ATOM
      1  N         22.3330   -4.5190   25.6510 N.3    65  LEU65      -0.1245
      2  CA        22.4680   -5.6890   24.7830 C.3    65  LEU65       0.1561
      3  C         23.1460   -5.3290   23.4670 C.2    65  LEU65       0.2260
      4  O         22.6650   -4.4770   22.7160 O.2    65  LEU65      -0.2867
      5  CB        21.1010   -6.3130   24.5030 C.3    65  LEU65       0.0270
      6  CG        20.3170   -6.7450   25.7400 C.3    65  LEU65       0.0019
      7  CD1       18.9310   -7.2160   25.3400 C.3    65  LEU65       0.0001
      8  CD2       21.0560   -7.8520   26.4740 C.3    65  LEU65       0.0001
      9  N         23.8400   -6.1820   19.7800 N.3    67  GLN67      -0.1245
     10  CA        23.0780   -6.9690   18.8100 C.3    67  GLN67       0.1566
     11  C         23.9660   -7.4210   17.6570 C.2    67  GLN67       0.2260
     12  O         24.2010   -6.6730   16.7160 O.2    67  GLN67      -0.2867
     13  CB        21.8880   -6.1690   18.2940 C.3    67  GLN67       0.0367
     14  CG        20.9680   -5.6980   19.3960 C.3    67  GLN67       0.0905
     15  CD        19.7200   -5.0590   18.8420 C.2    67  GLN67       0.2608
     16  OE1       19.7730   -4.0040   18.2040 O.2    67  GLN67      -0.2717
     17  NE2       18.5870   -5.6990   19.0680 N.am   67  GLN67      -0.0878
     18  N         20.0280  -12.0970   14.7260 N.3    78  GLN78      -0.1245
     19  CA        20.8720  -11.3840   15.6700 C.3    78  GLN78       0.1566
     20  C         20.7850  -12.0460   17.0260 C.2    78  GLN78       0.2260
     21  O         19.7300  -12.5540   17.4290 O.2    78  GLN78      -0.2867
     22  CB        20.5140   -9.8990   15.7690 C.3    78  GLN78       0.0367
     23  CG        19.0710   -9.6230   16.1570 C.3    78  GLN78       0.0905
     24  CD        18.7010   -8.1400   16.1370 C.2    78  GLN78       0.2608
     25  OE1       19.4450   -7.2860   15.6380 O.2    78  GLN78      -0.2717
     26  NE2       17.5430   -7.8340   16.6860 N.am   78  GLN78      -0.0878
     27  N         21.9130  -11.4860   21.2530 N.3    80  HIS80      -0.1241
     28  CA        22.1430  -10.4050   22.2020 C.3    80  HIS80       0.1621
     29  C         23.2420  -10.7630   23.1860 C.2    80  HIS80       0.2264
     30  O         23.0970  -11.6980   23.9740 O.2    80  HIS80      -0.2867
     31  CB        20.8520  -10.0670   22.9490 C.3    80  HIS80       0.0745
     32  CG        19.7960   -9.4630   22.0780 C.ar   80  HIS80       0.0817
     33  ND1       18.5000   -9.2670   22.5040 N.ar   80  HIS80      -0.2268
     34  CD2       19.8480   -9.0010   20.8060 C.ar   80  HIS80       0.1154
     35  CE1       17.7970   -8.7190   21.5280 C.ar   80  HIS80       0.1986
     36  NE2       18.5930   -8.5480   20.4860 N.ar   80  HIS80      -0.2212
     37  N         21.6580   -1.8350   22.5060 N.3   126  TYR126     -0.1241
     38  CA        20.3850   -1.2320   22.8470 C.3   126  TYR126      0.1605
     39  C         19.8680   -1.6280   24.2110 C.2   126  TYR126      0.2264
     40  O         19.9620   -2.7760   24.6470 O.2   126  TYR126     -0.2867
     41  CB        19.3320   -1.4440   21.7610 C.3   126  TYR126      0.0534
     42  CG        18.5590   -2.7300   21.8640 C.ar  126  TYR126     -0.0201
     43  CD1       19.2040   -3.9410   22.0680 C.ar  126  TYR126     -0.0009
     44  CD2       17.1770   -2.7310   21.7500 C.ar  126  TYR126     -0.0009
     45  CE1       18.4870   -5.1200   22.1570 C.ar  126  TYR126      0.0417
     46  CE2       16.4580   -3.8960   21.8270 C.ar  126  TYR126      0.0417
     47  CZ        17.1130   -5.0880   22.0370 C.ar  126  TYR126      0.1957
     48  OH        16.3790   -6.2480   22.1200 O.3   126  TYR126     -0.2866
     49  N         17.0480   -2.4010   26.1090 N.3   128  ALA128     -0.1231
     50  CA        15.6730   -2.8460   25.8870 C.3   128  ALA128      0.1694
     51  C         15.0280   -3.4450   27.1260 C.2   128  ALA128      0.2592
     52  O         15.7170   -3.8880   28.0460 O.2   128  ALA128     -0.2718
     53  CB        15.6260   -3.8470   24.7470 C.3   128  ALA128      0.0304
     54  N         13.6970   -3.4560   27.1340 N.am  129  ASP129     -0.1974
     55  CA        12.9250   -4.1510   28.1600 C.3   129  ASP129      0.1709
     56  C         13.2850   -3.7070   29.5790 C.2   129  ASP129      0.2293
     57  O         13.5150   -4.5360   30.4580 O.2   129  ASP129     -0.2864
     58  CB        13.1070   -5.6700   28.0280 C.3   129  ASP129      0.1436
     59  CG        12.6550   -6.2070   26.6780 C.2   129  ASP129      0.3671
     60  OD1       11.6500   -5.7090   26.1280 O.co2 129  ASP129     -0.2456
     61  OD2       13.3040   -7.1440   26.1690 O.co2 129  ASP129     -0.2456
     62  N         12.7140    1.5730   26.2910 N.3   171  TYR171     -0.1241
     63  CA        13.6870    1.1280   25.3020 C.3   171  TYR171      0.1605
     64  C         14.5660    2.2980   24.9270 C.2   171  TYR171      0.2264
     65  O         14.0810    3.2810   24.3840 O.2   171  TYR171     -0.2867
     66  CB        12.9690    0.6380   24.0390 C.3   171  TYR171      0.0534
     67  CG        12.0640   -0.5330   24.2870 C.ar  171  TYR171     -0.0201
     68  CD1       10.7820   -0.3450   24.7930 C.ar  171  TYR171     -0.0009
     69  CD2       12.4940   -1.8290   24.0460 C.ar  171  TYR171     -0.0009
     70  CE1        9.9570   -1.4040   25.0450 C.ar  171  TYR171      0.0417
     71  CE2       11.6660   -2.9040   24.2890 C.ar  171  TYR171      0.0417
     72  CZ        10.4000   -2.6830   24.7920 C.ar  171  TYR171      0.1957
     73  OH         9.5660   -3.7460   25.0390 O.3   171  TYR171     -0.2866
     74  N         17.8490   -2.8270   16.4420 N.3   178  THR178     -0.1203
     75  CA        16.9210   -3.5510   15.6000 C.3   178  THR178      0.1994
     76  C         15.9270   -4.3500   16.4030 C.2   178  THR178      0.2618
     77  O         16.3100   -5.0240   17.3560 O.2   178  THR178     -0.2717
     78  CB        17.7290   -4.5510   14.7330 C.3   178  THR178      0.1784
     79  OG1       18.6840   -3.8320   13.9380 O.3   178  THR178     -0.2211
     80  CG2       16.8320   -5.3790   13.8250 C.3   178  THR178      0.0376
     81  N         14.6560   -4.2890   16.0140 N.am  179  PHE179     -0.1961
     82  CA        13.6880   -5.2410   16.5370 C.3   179  PHE179      0.1771
     83  C         13.2910   -6.2450   15.4620 C.2   179  PHE179      0.2619
     84  O         12.8770   -5.8710   14.3600 O.2   179  PHE179     -0.2715
     85  CB        12.4910   -4.6020   17.2870 C.3   179  PHE179      0.0574
     86  CG        11.7230   -3.5590   16.5160 C.ar  179  PHE179     -0.0200
     87  CD1       12.2060   -2.2610   16.3810 C.ar  179  PHE179     -0.0042
     88  CD2       10.4580   -3.8550   16.0120 C.ar  179  PHE179     -0.0042
     89  CE1       11.4670   -1.2940   15.7060 C.ar  179  PHE179     -0.0003
     90  CE2        9.6980   -2.8950   15.3570 C.ar  179  PHE179     -0.0003
     91  CZ        10.2060   -1.6170   15.1850 C.ar  179  PHE179     -0.0000
     92  N         13.4920   -7.5200   15.7830 N.am  180  ALA180     -0.1977
     93  CA        13.2710   -8.6230   14.8660 C.3   180  ALA180      0.1597
     94  C         11.7870   -8.8460   14.5750 C.2   180  ALA180      0.2287
     95  O         10.9200   -8.3850   15.3300 O.2   180  ALA180     -0.2864
     96  CB        13.8850   -9.8980   15.4520 C.3   180  ALA180      0.0319
     97  N          8.2660  -10.1640   14.6860 N.3   182  HIS182     -0.1241
     98  CA         7.5160  -10.8370   15.7450 C.3   182  HIS182      0.1621
     99  C          6.0910  -10.3390   15.8030 C.2   182  HIS182      0.2264
    100  O          5.7820   -9.2470   15.3130 O.2   182  HIS182     -0.2867
    101  CB         8.1830  -10.5980   17.1170 C.3   182  HIS182      0.0745
    102  CG         8.0540   -9.1860   17.6180 C.ar  182  HIS182      0.0817
    103  ND1        8.8240   -8.1530   17.1310 N.ar  182  HIS182     -0.2268
    104  CD2        7.2420   -8.6360   18.5540 C.ar  182  HIS182      0.1154
    105  CE1        8.4920   -7.0270   17.7420 C.ar  182  HIS182      0.1986
    106  NE2        7.5270   -7.2910   18.6070 N.ar  182  HIS182     -0.2212
    107  N          3.2010   -9.9570   19.1670 N.3   184  GLU184     -0.1245
    108  CA         3.3160   -9.8550   20.6180 C.3   184  GLU184      0.1567
    109  C          3.0320  -11.1960   21.2780 C.2   184  GLU184      0.2260
    110  O          2.4180  -12.0840   20.6720 O.2   184  GLU184     -0.2867
    111  CB         2.3410   -8.8080   21.1440 C.3   184  GLU184      0.0388
    112  CG         2.5450   -7.4490   20.5190 C.3   184  GLU184      0.1160
    113  CD         3.9560   -6.9520   20.7170 C.2   184  GLU184      0.3649
    114  OE1        4.6100   -6.6070   19.7170 O.co2 184  GLU184     -0.2457
    115  OE2        4.4230   -6.9130   21.8720 O.co2 184  GLU184     -0.2457
    116  N         12.3220  -14.0020   18.4950 N.3   235  LYS235     -0.1245
    117  CA        12.6140  -12.6050   18.2000 C.3   235  LYS235      0.1561
    118  C         14.0750  -12.3710   17.8260 C.2   235  LYS235      0.2260
    119  O         14.7520  -11.5140   18.3840 O.2   235  LYS235     -0.2867
    120  CB        12.1520  -11.7000   19.3470 C.3   235  LYS235      0.0271
    121  CG        10.6620  -11.8610   19.6250 C.3   235  LYS235      0.0035
    122  CD        10.0810  -10.7190   20.4360 C.3   235  LYS235      0.0206
    123  CE        10.6880  -10.6500   21.8140 C.3   235  LYS235      0.1093
    124  NZ         9.9370   -9.6960   22.6820 N.3   235  LYS235     -0.1314
@<TRIPOS>BOND
     1    80    78    1
     2    79    78    1
     3    84    83    2
     4    94    93    1
     5    94    95    2
     6    97    98    1
     7    18    19    1
     8    78    75    1
     9    93    96    1
    10    93    92    1
    11    91    90   ar
    12    91    89   ar
    13   100    99    2
    14    90    88   ar
    15    83    92   am
    16    83    82    1
    17    75    76    1
    18    75    74    1
    19    25    24    2
    20    19    22    1
    21    19    20    1
    22    89    87   ar
    23    98    99    1
    24    98   101    1
    25    22    23    1
    26    88    86   ar
    27    81    76   am
    28    81    82    1
    29    24    23    1
    30    24    26   am
    31    87    86   ar
    32    76    77    2
    33    86    85    1
    34    82    85    1
    35    12    11    2
    36    20    21    2
    37   101   102    1
    38   103   102   ar
    39   103   105   ar
    40   102   104   ar
    41    11    10    1
    42   105   106   ar
    43   118   117    1
    44   118   119    2
    45   117   116    1
    46   117   120    1
    47    16    15    2
    48    13    10    1
    49    13    14    1
    50   104   106   ar
    51    10     9    1
    52    15    17   am
    53    15    14    1
    54   107   108    1
    55   120   121    1
    56   121   122    1
    57   114   113   ar
    58   122   123    1
    59    36    34   ar
    60    36    35   ar
    61   112   113    1
    62   112   111    1
    63   108   111    1
    64   108   109    1
    65   110   109    2
    66   113   115   ar
    67    34    32   ar
    68    27    28    1
    69    35    33   ar
    70    44    46   ar
    71    44    42   ar
    72    41    42    1
    73    41    38    1
    74   123   124    1
    75    46    47   ar
    76    42    43   ar
    77    47    48    1
    78    47    45   ar
    79    43    45   ar
    80    32    33   ar
    81    32    31    1
    82    28    31    1
    83    28    29    1
    84    37    38    1
    85     4     3    2
    86    38    39    1
    87    29    30    2
    88     3     2    1
    89    66    67    1
    90    66    63    1
    91    69    67   ar
    92    69    71   ar
    93    39    40    2
    94    67    68   ar
    95    71    72   ar
    96    65    64    2
    97     5     2    1
    98     5     6    1
    99    53    50    1
   100     2     1    1
   101    72    73    1
   102    72    70   ar
   103    68    70   ar
   104    64    63    1
   105    63    62    1
   106     7     6    1
   107     6     8    1
   108    50    49    1
   109    50    51    1
   110    60    59   ar
   111    61    59   ar
   112    59    58    1
   113    51    54   am
   114    51    52    2
   115    54    55    1
   116    58    55    1
   117    55    56    1
   118    56    57    2
