@<TRIPOS>MOLECULE
tmp/5phdA01.pdb
 71 71 0 0 0
SMALL
GASTEIGER

@<TRIPOS>ATOM
      1  N         24.3930  -12.2590   12.0570 N.3    70  SER70      -0.1202
      2  CA        24.9430  -13.3550   11.2580 C.3    70  SER70       0.2020
      3  C         24.0670  -13.5850   10.0440 C.2    70  SER70       0.2619
      4  O         22.8500  -13.5830   10.1700 O.2    70  SER70      -0.2717
      5  CB        25.0100  -14.6510   12.0570 C.3    70  SER70       0.2103
      6  OG        25.8160  -14.5130   13.1980 O.3    70  SER70      -0.2182
      7  N         24.6670  -13.8190    8.8840 N.am   71  GLY71      -0.1956
      8  CA        23.8850  -14.1190    7.7020 C.3    71  GLY71       0.1869
      9  C         24.2320  -13.1980    6.5590 C.2    71  GLY71       0.2309
     10  O         25.3860  -12.8120    6.3870 O.2    71  GLY71      -0.2863
     11  N         18.8940  -11.0270    4.9270 N.3    75  VAL75      -0.1231
     12  CA        18.3640  -12.2030    5.6320 C.3    75  VAL75       0.1692
     13  C         19.3730  -12.6000    6.6960 C.2    75  VAL75       0.2592
     14  O         20.3930  -13.2300    6.3930 O.2    75  VAL75      -0.2718
     15  CB        18.1190  -13.4160    4.6950 C.3    75  VAL75       0.0266
     16  CG1       17.5370  -14.5940    5.4750 C.3    75  VAL75       0.0020
     17  CG2       17.2050  -13.0530    3.5270 C.3    75  VAL75       0.0020
     18  N         19.1140  -12.2020    7.9350 N.am   76  PHE76      -0.1962
     19  CA        20.0960  -12.4230    8.9840 C.3    76  PHE76       0.1771
     20  C         19.4220  -12.6700   10.3180 C.2    76  PHE76       0.2620
     21  O         18.2410  -12.3840   10.4950 O.2    76  PHE76      -0.2715
     22  CB        21.0880  -11.2400    9.0740 C.3    76  PHE76       0.0574
     23  CG        20.4720   -9.9010    9.4280 C.ar   76  PHE76      -0.0200
     24  CD1       20.0670   -9.0200    8.4280 C.ar   76  PHE76      -0.0042
     25  CD2       20.3560   -9.4930   10.7580 C.ar   76  PHE76      -0.0042
     26  CE1       19.5380   -7.7760    8.7430 C.ar   76  PHE76      -0.0003
     27  CE2       19.8250   -8.2420   11.0810 C.ar   76  PHE76      -0.0003
     28  CZ        19.4140   -7.3900   10.0700 C.ar   76  PHE76      -0.0000
     29  N         20.1730  -13.2510   11.2410 N.am   77  THR77      -0.1951
     30  CA        19.7340  -13.3340   12.6200 C.3    77  THR77       0.1897
     31  C         20.5920  -12.4260   13.4880 C.2    77  THR77       0.2313
     32  O         21.6780  -12.0250   13.0890 O.2    77  THR77      -0.2863
     33  CB        19.8000  -14.7780   13.1560 C.3    77  THR77       0.1794
     34  OG1       21.1560  -15.2340   13.1170 O.3    77  THR77      -0.2208
     35  CG2       18.9370  -15.7010   12.3120 C.3    77  THR77       0.0378
     36  N         13.6220  -19.4050    4.8400 N.3   220  LEU220     -0.1231
     37  CA        14.8460  -18.6130    4.9490 C.3   220  LEU220      0.1693
     38  C         15.6990  -18.9550    6.1680 C.2   220  LEU220      0.2592
     39  O         16.9030  -18.6650    6.1800 O.2   220  LEU220     -0.2718
     40  CB        14.5110  -17.1240    4.9800 C.3   220  LEU220      0.0284
     41  CG        13.9480  -16.5270    3.6910 C.3   220  LEU220      0.0019
     42  CD1       13.6500  -15.0420    3.8910 C.3   220  LEU220      0.0001
     43  CD2       14.9260  -16.7170    2.5410 C.3   220  LEU220      0.0001
     44  N         15.0810  -19.5560    7.1850 N.am  221  PHE221     -0.1963
     45  CA        15.7800  -19.9580    8.4060 C.3   221  PHE221      0.1756
     46  C         15.4840  -21.4250    8.6990 C.2   221  PHE221      0.2461
     47  O         14.8360  -21.7470    9.6900 O.2   221  PHE221     -0.2730
     48  CB        15.3720  -19.0680    9.5900 C.3   221  PHE221      0.0574
     49  CG        15.5720  -17.6010    9.3310 C.ar  221  PHE221     -0.0200
     50  CD1       16.7960  -16.9910    9.5880 C.ar  221  PHE221     -0.0042
     51  CD2       14.5480  -16.8330    8.8030 C.ar  221  PHE221     -0.0042
     52  CE1       16.9960  -15.6470    9.3260 C.ar  221  PHE221     -0.0003
     53  CE2       14.7490  -15.4770    8.5250 C.ar  221  PHE221     -0.0003
     54  CZ        15.9740  -14.8820    8.7990 C.ar  221  PHE221     -0.0000
     55  N         15.9640  -22.3210    7.8270 N.am  222  PRO222     -0.2716
     56  CA        15.5090  -23.7140    7.8780 C.3   222  PRO222      0.1536
     57  C         15.9180  -24.4530    9.1570 C.2   222  PRO222      0.2599
     58  O         15.0960  -25.1890    9.6980 O.2   222  PRO222     -0.2715
     59  CB        16.1580  -24.3400    6.6340 C.3   222  PRO222      0.0310
     60  CG        17.2860  -23.4290    6.2650 C.3   222  PRO222      0.0237
     61  CD        16.8600  -22.0620    6.6840 C.3   222  PRO222      0.0939
     62  N         17.1390  -24.2560    9.6450 N.am  223  GLY223     -0.1941
     63  CA        17.5480  -24.8900   10.8890 C.3   223  GLY223      0.2014
     64  C         16.7270  -24.4010   12.0760 C.2   223  GLY223      0.2639
     65  O         16.3290  -25.1840   12.9440 O.2   223  GLY223     -0.2714
     66  N         16.4680  -23.0960   12.1220 N.am  224  SER224     -0.1949
     67  CA        15.6580  -22.5180   13.1930 C.3   224  SER224      0.1924
     68  C         14.2670  -23.1250   13.2180 C.2   224  SER224      0.2314
     69  O         13.7250  -23.4420   14.2820 O.2   224  SER224     -0.2863
     70  CB        15.5510  -21.0060   13.0220 C.3   224  SER224      0.2116
     71  OG        16.8210  -20.3890   13.1090 O.3   224  SER224     -0.2180
@<TRIPOS>BOND
     1    43    41    1
     2    17    15    1
     3    41    42    1
     4    41    40    1
     5    15    16    1
     6    15    12    1
     7    36    37    1
     8    11    12    1
     9    37    40    1
    10    37    38    1
    11    12    13    1
    12    38    39    2
    13    38    44   am
    14    60    59    1
    15    60    61    1
    16    10     9    2
    17    14    13    2
    18     9     8    1
    19    59    56    1
    20    61    55    1
    21    13    18   am
    22    44    45    1
    23     8     7    1
    24    55    56    1
    25    55    46   am
    26    56    57    1
    27    18    19    1
    28    45    46    1
    29    45    48    1
    30    24    26   ar
    31    24    23   ar
    32    53    54   ar
    33    53    51   ar
    34    46    47    2
    35    26    28   ar
    36    54    52   ar
    37    51    49   ar
    38     7     3   am
    39    19    22    1
    40    19    20    1
    41    22    23    1
    42    57    62   am
    43    57    58    2
    44    52    50   ar
    45    49    50   ar
    46    49    48    1
    47    23    25   ar
    48    62    63    1
    49     3     4    2
    50     3     2    1
    51    28    27   ar
    52    20    21    2
    53    20    29   am
    54    25    27   ar
    55    63    64    1
    56    29    30    1
    57     2     1    1
    58     2     5    1
    59     5     6    1
    60    64    66   am
    61    64    65    2
    62    66    67    1
    63    35    33    1
    64    30    33    1
    65    30    31    1
    66    70    71    1
    67    70    67    1
    68    32    31    2
    69    34    33    1
    70    67    68    1
    71    68    69    2
