@<TRIPOS>MOLECULE
tmp/5phfA02.pdb
 98 95 0 0 0
SMALL
GASTEIGER

@<TRIPOS>ATOM
      1  N         -9.5520    6.0230   26.0450 N.3    21  PHE21      -0.1227
      2  CA        -8.6160    5.2030   25.2860 C.3    21  PHE21       0.1736
      3  C         -9.3140    4.0480   24.5640 C.2    21  PHE21       0.2595
      4  O         -9.1440    3.8680   23.3530 O.2    21  PHE21      -0.2718
      5  CB        -7.5240    4.6680   26.2140 C.3    21  PHE21       0.0547
      6  CG        -6.4710    3.8550   25.5110 C.ar   21  PHE21      -0.0202
      7  CD1       -5.4100    4.4790   24.8790 C.ar   21  PHE21      -0.0042
      8  CD2       -6.5400    2.4700   25.4830 C.ar   21  PHE21      -0.0042
      9  CE1       -4.4340    3.7420   24.2320 C.ar   21  PHE21      -0.0003
     10  CE2       -5.5640    1.7190   24.8330 C.ar   21  PHE21      -0.0003
     11  CZ        -4.5140    2.3590   24.2060 C.ar   21  PHE21      -0.0000
     12  N        -10.1130    3.2790   25.2940 N.am   22  ASP22      -0.1974
     13  CA       -10.7520    2.1110   24.7040 C.3    22  ASP22       0.1709
     14  C        -11.7320    2.4930   23.5910 C.2    22  ASP22       0.2293
     15  O        -11.8730    1.7670   22.6050 O.2    22  ASP22      -0.2864
     16  CB       -11.4660    1.2990   25.7830 C.3    22  ASP22       0.1436
     17  CG       -11.9600   -0.0330   25.2720 C.2    22  ASP22       0.3671
     18  OD1      -11.1250   -0.9510   25.1080 O.co2  22  ASP22      -0.2456
     19  OD2      -13.1780   -0.1620   25.0350 O.co2  22  ASP22      -0.2456
     20  N         -9.5660    3.3000   20.3940 N.3    25  ILE25      -0.1231
     21  CA        -9.1000    2.0850   19.7310 C.3    25  ILE25       0.1692
     22  C        -10.2530    1.4560   18.9320 C.2    25  ILE25       0.2591
     23  O        -10.0740    1.0540   17.7740 O.2    25  ILE25      -0.2718
     24  CB        -8.5370    1.0500   20.7410 C.3    25  ILE25       0.0266
     25  CG1       -7.3450    1.6280   21.5280 C.3    25  ILE25       0.0019
     26  CG2       -8.1350   -0.2310   20.0280 C.3    25  ILE25       0.0020
     27  CD1       -6.1390    2.0170   20.6950 C.3    25  ILE25       0.0001
     28  N        -11.4330    1.3720   19.5420 N.am   26  ALA26      -0.1980
     29  CA       -12.6010    0.8240   18.8430 C.3    26  ALA26       0.1597
     30  C        -12.9410    1.6560   17.5930 C.2    26  ALA26       0.2287
     31  O        -13.2790    1.1080   16.5320 O.2    26  ALA26      -0.2864
     32  CB       -13.8010    0.7470   19.7820 C.3    26  ALA26       0.0319
     33  N         -5.9850    0.0890   31.4430 N.3   148  GLY148     -0.1210
     34  CA        -6.6530   -1.0890   31.9710 C.3   148  GLY148      0.1956
     35  C         -5.8100   -2.3270   31.7040 C.2   148  GLY148      0.2612
     36  O         -5.2130   -2.4640   30.6260 O.2   148  GLY148     -0.2717
     37  N         -5.7500   -3.2330   32.6770 N.am  149  THR149     -0.1952
     38  CA        -4.8380   -4.3700   32.5790 C.3   149  THR149      0.1897
     39  C         -5.4200   -5.5110   31.7460 C.2   149  THR149      0.2313
     40  O         -6.6380   -5.6580   31.6280 O.2   149  THR149     -0.2863
     41  CB        -4.4650   -4.9330   33.9730 C.3   149  THR149      0.1794
     42  OG1       -5.6000   -5.6010   34.5350 O.3   149  THR149     -0.2208
     43  CG2       -4.0100   -3.8200   34.9220 C.3   149  THR149      0.0378
     44  N         -7.5780   -7.7400   33.9120 N.3   152  ASP152     -0.1225
     45  CA        -8.9410   -7.2500   34.1050 C.3   152  ASP152      0.1805
     46  C         -9.7860   -7.3990   32.8380 C.2   152  ASP152      0.2597
     47  O        -10.9830   -7.6600   32.9290 O.2   152  ASP152     -0.2718
     48  CB        -8.9420   -5.7940   34.5800 C.3   152  ASP152      0.1424
     49  CG        -8.5800   -5.6610   36.0500 C.2   152  ASP152      0.3668
     50  OD1       -8.6800   -6.6690   36.7840 O.co2 152  ASP152     -0.2456
     51  OD2       -8.2370   -4.5430   36.4870 O.co2 152  ASP152     -0.2456
     52  N         -9.1770   -7.2570   31.6620 N.am  153  LEU153     -0.1979
     53  CA        -9.9080   -7.4840   30.4180 C.3   153  LEU153      0.1596
     54  C        -10.3910   -8.9370   30.3430 C.2   153  LEU153      0.2287
     55  O        -11.5580   -9.1950   30.0420 O.2   153  LEU153     -0.2864
     56  CB        -9.0330   -7.1400   29.2100 C.3   153  LEU153      0.0297
     57  CG        -9.6230   -7.2180   27.7880 C.3   153  LEU153      0.0022
     58  CD1       -9.6790   -8.6530   27.2390 C.3   153  LEU153      0.0001
     59  CD2      -10.9970   -6.5440   27.7240 C.3   153  LEU153      0.0001
     60  N        -13.2380   -9.3800   32.7370 N.3   156  LYS156     -0.1245
     61  CA       -14.4610   -8.7460   32.2480 C.3   156  LYS156      0.1561
     62  C        -15.1180   -9.5590   31.1370 C.2   156  LYS156      0.2260
     63  O        -16.3450   -9.6890   31.0930 O.2   156  LYS156     -0.2867
     64  CB       -14.1720   -7.3270   31.7460 C.3   156  LYS156      0.0271
     65  CG       -13.9710   -6.3330   32.8680 C.3   156  LYS156      0.0035
     66  CD       -13.8370   -4.8990   32.3610 C.3   156  LYS156      0.0206
     67  CE       -12.5950   -4.6920   31.5050 C.3   156  LYS156      0.1093
     68  NZ       -12.3770   -3.2420   31.2390 N.3   156  LYS156     -0.1314
     69  N         -1.5450   -4.5640   25.5620 N.3   285  PHE285     -0.1227
     70  CA        -2.9040   -4.4190   26.0730 C.3   285  PHE285      0.1736
     71  C         -3.8420   -5.3150   25.2810 C.2   285  PHE285      0.2595
     72  O         -3.4590   -5.8850   24.2470 O.2   285  PHE285     -0.2718
     73  CB        -3.3710   -2.9460   26.0590 C.3   285  PHE285      0.0547
     74  CG        -3.6210   -2.3660   24.6860 C.ar  285  PHE285     -0.0202
     75  CD1       -2.5870   -1.7720   23.9630 C.ar  285  PHE285     -0.0042
     76  CD2       -4.8980   -2.3910   24.1300 C.ar  285  PHE285     -0.0042
     77  CE1       -2.8180   -1.2300   22.6970 C.ar  285  PHE285     -0.0003
     78  CE2       -5.1370   -1.8470   22.8640 C.ar  285  PHE285     -0.0003
     79  CZ        -4.1000   -1.2530   22.1550 C.ar  285  PHE285     -0.0000
     80  N         -5.0650   -5.4390   25.7870 N.am  286  ALA286     -0.1966
     81  CA        -6.0900   -6.2810   25.1800 C.3   286  ALA286      0.1728
     82  C         -7.4060   -5.5310   25.0160 C.2   286  ALA286      0.2617
     83  O         -7.6480   -4.5300   25.6890 O.2   286  ALA286     -0.2715
     84  CB        -6.3120   -7.5290   26.0160 C.3   286  ALA286      0.0334
     85  N         -8.2450   -6.0460   24.1180 N.am  287  THR287     -0.1937
     86  CA        -9.6190   -5.5910   23.9070 C.3   287  THR287      0.2013
     87  C        -10.4820   -6.8420   23.7780 C.2   287  THR287      0.2484
     88  O         -9.9450   -7.9490   23.6640 O.2   287  THR287     -0.2729
     89  CB        -9.7710   -4.7770   22.6270 C.3   287  THR287      0.1807
     90  OG1       -9.6160   -5.6710   21.5210 O.3   287  THR287     -0.2208
     91  CG2       -8.7550   -3.6450   22.5520 C.3   287  THR287      0.0379
     92  N        -11.8200   -6.6910   23.7680 N.am  288  PRO288     -0.2726
     93  CA       -12.6260   -7.9000   23.5370 C.3   288  PRO288      0.1402
     94  C        -12.2730   -8.6430   22.2310 C.2   288  PRO288      0.2269
     95  O        -12.2960   -9.8780   22.2170 O.2   288  PRO288     -0.2865
     96  CB       -14.0560   -7.3510   23.5020 C.3   288  PRO288      0.0296
     97  CG       -14.0020   -6.1560   24.4360 C.3   288  PRO288      0.0237
     98  CD       -12.6600   -5.5300   24.1390 C.3   288  PRO288      0.0939
@<TRIPOS>BOND
     1    31    30    2
     2    30    29    1
     3    23    22    2
     4    29    28    1
     5    29    32    1
     6    22    28   am
     7    22    21    1
     8    21    20    1
     9    21    24    1
    10    26    24    1
    11    27    25    1
    12    24    25    1
    13    90    89    1
    14    79    77   ar
    15    79    78   ar
    16    95    94    2
    17    94    93    1
    18    91    89    1
    19    15    14    2
    20    89    86    1
    21    77    75   ar
    22    78    76   ar
    23     4     3    2
    24    96    93    1
    25    96    97    1
    26    93    92    1
    27    14    13    1
    28    88    87    2
    29    92    87   am
    30    92    98    1
    31    87    86    1
    32    86    85    1
    33    75    74   ar
    34    85    82   am
    35    76    74   ar
    36    98    97    1
    37    11     9   ar
    38    11    10   ar
    39     9     7   ar
    40    72    71    2
    41     3     2    1
    42     3    12   am
    43    74    73    1
    44    13    12    1
    45    13    16    1
    46    10     8   ar
    47     7     6   ar
    48    82    81    1
    49    82    83    2
    50    19    17   ar
    51    18    17   ar
    52    81    80    1
    53    81    84    1
    54    17    16    1
    55    71    80   am
    56    71    70    1
    57     2     1    1
    58     2     5    1
    59     8     6   ar
    60     6     5    1
    61    69    70    1
    62    73    70    1
    63    58    57    1
    64    59    57    1
    65    57    56    1
    66    56    53    1
    67    55    54    2
    68    54    53    1
    69    53    52    1
    70    36    35    2
    71    63    62    2
    72    62    61    1
    73    68    67    1
    74    33    34    1
    75    67    66    1
    76    40    39    2
    77    52    46   am
    78    35    34    1
    79    35    37   am
    80    39    38    1
    81    64    61    1
    82    64    65    1
    83    61    60    1
    84    66    65    1
    85    38    37    1
    86    38    41    1
    87    46    47    2
    88    46    45    1
    89    44    45    1
    90    41    42    1
    91    41    43    1
    92    45    48    1
    93    48    49    1
    94    49    51   ar
    95    49    50   ar
