@<TRIPOS>MOLECULE
tmp/5phfA03.pdb
 92 89 0 0 0
SMALL
GASTEIGER

@<TRIPOS>ATOM
      1  N         23.0530   -9.6350    4.1590 N.3    73  ALA73      -0.1231
      2  CA        22.5490   -8.2880    4.4290 C.3    73  ALA73       0.1694
      3  C         21.0360   -8.2320    4.5620 C.2    73  ALA73       0.2592
      4  O         20.5150   -7.5220    5.4240 O.2    73  ALA73      -0.2718
      5  CB        23.0060   -7.3370    3.3530 C.3    73  ALA73       0.0304
      6  N         20.3380   -8.9940    3.7240 N.am   74  GLY74      -0.1957
      7  CA        18.8830   -8.9830    3.7210 C.3    74  GLY74       0.1869
      8  C         18.1850  -10.1200    4.4590 C.2    74  GLY74       0.2309
      9  O         16.9560  -10.1150    4.5820 O.2    74  GLY74      -0.2863
     10  N         14.5740    7.7560    3.4780 N.3   109  GLU109     -0.1245
     11  CA        14.7590    6.7070    2.4760 C.3   109  GLU109      0.1567
     12  C         16.2400    6.3700    2.2820 C.2   109  GLU109      0.2260
     13  O         16.6120    5.2020    2.1410 O.2   109  GLU109     -0.2867
     14  CB        14.1330    7.1290    1.1410 C.3   109  GLU109      0.0388
     15  CG        14.2580    6.0950    0.0310 C.3   109  GLU109      0.1160
     16  CD        13.5040    6.4820   -1.2300 C.2   109  GLU109      0.3649
     17  OE1       12.7390    7.4710   -1.1950 O.co2 109  GLU109     -0.2457
     18  OE2       13.6750    5.7940   -2.2580 O.co2 109  GLU109     -0.2457
     19  N         17.3490    4.4550    5.3080 N.3   112  GLU112     -0.1231
     20  CA        16.8310    3.0870    5.1870 C.3   112  GLU112      0.1699
     21  C         17.7180    2.2260    4.2800 C.2   112  GLU112      0.2592
     22  O         18.0170    1.0790    4.6020 O.2   112  GLU112     -0.2718
     23  CB        15.3920    3.1070    4.6580 C.3   112  GLU112      0.0402
     24  CG        14.7640    1.7260    4.4920 C.3   112  GLU112      0.1161
     25  CD        13.3820    1.7780    3.8680 C.2   112  GLU112      0.3649
     26  OE1       12.5080    0.9690    4.2430 O.co2 112  GLU112     -0.2457
     27  OE2       13.1680    2.6200    2.9750 O.co2 112  GLU112     -0.2457
     28  N         18.1360    2.7760    3.1440 N.am  113  ARG113     -0.1980
     29  CA        19.0370    2.0500    2.2560 C.3   113  ARG113      0.1597
     30  C         20.3490    1.7230    2.9610 C.2   113  ARG113      0.2287
     31  O         20.8510    0.5970    2.8730 O.2   113  ARG113     -0.2864
     32  CB        19.3150    2.8530    0.9870 C.3   113  ARG113      0.0334
     33  CG        18.2530    2.7090   -0.0860 C.3   113  ARG113      0.0492
     34  CD        18.7360    3.2860   -1.4070 C.3   113  ARG113      0.2205
     35  NE        19.1020    4.6910   -1.2750 N.pl3 113  ARG113     -0.0865
     36  CZ        18.2500    5.7000   -1.4140 C.cat 113  ARG113      0.5346
     37  NH1       18.6710    6.9470   -1.2730 N.pl3 113  ARG113      0.1354
     38  NH2       16.9760    5.4610   -1.6930 N.pl3 113  ARG113      0.1354
     39  N         19.8850   -1.2510    5.5030 N.3   116  TRP116     -0.1227
     40  CA        19.8300   -2.6210    5.0000 C.3   116  TRP116      0.1737
     41  C         21.1130   -3.0300    4.2840 C.2   116  TRP116      0.2595
     42  O         21.4420   -4.2110    4.2290 O.2   116  TRP116     -0.2718
     43  CB        18.5960   -2.8280    4.1100 C.3   116  TRP116      0.0564
     44  CG        17.3350   -2.8400    4.9410 C.ar  116  TRP116      0.0003
     45  CD1       16.3910   -1.8520    5.0210 C.ar  116  TRP116      0.0946
     46  CD2       16.9100   -3.8740    5.8460 C.ar  116  TRP116      0.0152
     47  NE1       15.4080   -2.2120    5.9160 N.ar  116  TRP116     -0.2442
     48  CE2       15.6930   -3.4530    6.4270 C.ar  116  TRP116      0.0810
     49  CE3       17.4390   -5.1160    6.2190 C.ar  116  TRP116      0.0012
     50  CZ2       14.9940   -4.2300    7.3630 C.ar  116  TRP116      0.0191
     51  CZ3       16.7390   -5.8910    7.1520 C.ar  116  TRP116      0.0001
     52  CH2       15.5330   -5.4440    7.7100 C.ar  116  TRP116      0.0015
     53  N         21.8500   -2.0620    3.7580 N.am  117  LYS117     -0.1980
     54  CA        23.1210   -2.3670    3.1230 C.3   117  LYS117      0.1596
     55  C         24.1720   -2.7770    4.1540 C.2   117  LYS117      0.2287
     56  O         24.9240   -3.7280    3.9370 O.2   117  LYS117     -0.2864
     57  CB        23.6160   -1.1620    2.3250 C.3   117  LYS117      0.0298
     58  CG        24.9200   -1.4000    1.5780 C.3   117  LYS117      0.0038
     59  CD        25.3960   -0.1290    0.8730 C.3   117  LYS117      0.0206
     60  CE        26.6930   -0.3640    0.1050 C.3   117  LYS117      0.1093
     61  NZ        27.1630    0.8730   -0.5610 N.3   117  LYS117     -0.1314
     62  N         14.7190   -8.3580    4.9740 N.3   240  SER240     -0.1203
     63  CA        14.6480   -6.9900    4.4370 C.3   240  SER240      0.2005
     64  C         13.4100   -6.7660    3.5660 C.2   240  SER240      0.2461
     65  O         12.8300   -7.7220    3.0550 O.2   240  SER240     -0.2732
     66  CB        15.8930   -6.7070    3.6120 C.3   240  SER240      0.2103
     67  OG        15.8010   -7.3910    2.3720 O.3   240  SER240     -0.2182
     68  N         13.0130   -5.4970    3.3600 N.am  241  PRO241     -0.2717
     69  CA        11.8840   -5.2310    2.4580 C.3   241  PRO241      0.1535
     70  C         12.1540   -5.7100    1.0270 C.2   241  PRO241      0.2599
     71  O         11.2220   -6.1260    0.3430 O.2   241  PRO241     -0.2715
     72  CB        11.7180   -3.6990    2.5200 C.3   241  PRO241      0.0310
     73  CG        12.9460   -3.1760    3.1730 C.3   241  PRO241      0.0237
     74  CD        13.4920   -4.2780    4.0360 C.3   241  PRO241      0.0939
     75  N         13.4040   -5.6680    0.5780 N.am  242  THR242     -0.1951
     76  CA        13.7170   -6.1910   -0.7520 C.3   242  THR242      0.1897
     77  C         13.4320   -7.6960   -0.8470 C.2   242  THR242      0.2313
     78  O         12.8520   -8.1660   -1.8300 O.2   242  THR242     -0.2863
     79  CB        15.1760   -5.9120   -1.1350 C.3   242  THR242      0.1794
     80  OG1       15.3730   -4.4960   -1.1800 O.3   242  THR242     -0.2208
     81  CG2       15.5000   -6.4890   -2.5070 C.3   242  THR242      0.0378
     82  N          5.3890   -0.0510    5.4020 N.3   253  ARG253     -0.1245
     83  CA         6.4140    0.5570    6.2370 C.3   253  ARG253      0.1563
     84  C          6.0240    1.9870    6.5990 C.2   253  ARG253      0.2260
     85  O          5.2720    2.6420    5.8640 O.2   253  ARG253     -0.2867
     86  CB         7.7690    0.5330    5.5310 C.3   253  ARG253      0.0307
     87  CG         7.8810    1.5300    4.4140 C.3   253  ARG253      0.0489
     88  CD         9.1310    1.2550    3.5940 C.3   253  ARG253      0.2205
     89  NE         8.8590    0.3070    2.5210 N.pl3 253  ARG253     -0.0865
     90  CZ         9.7960   -0.2750    1.7800 C.cat 253  ARG253      0.5346
     91  NH1       11.0790   -0.0640    2.0420 N.pl3 253  ARG253      0.1354
     92  NH2        9.4490   -1.0870    0.7920 N.pl3 253  ARG253      0.1354
@<TRIPOS>BOND
     1    81    79    1
     2    18    16   ar
     3    78    77    2
     4    38    36    1
     5    36    35    2
     6    36    37    1
     7    34    35    1
     8    34    33    1
     9    16    17   ar
    10    16    15    1
    11    80    79    1
    12    79    76    1
    13    77    76    1
    14    76    75    1
    15    61    60    1
    16    33    32    1
    17    15    14    1
    18    60    59    1
    19    71    70    2
    20    75    70   am
    21    92    90    1
    22    59    58    1
    23    32    29    1
    24    70    69    1
    25    14    11    1
    26    58    57    1
    27    90    91    1
    28    90    89    2
    29    13    12    2
    30    29    30    1
    31    29    28    1
    32    12    11    1
    33    57    54    1
    34    67    66    1
    35    69    72    1
    36    69    68    1
    37    11    10    1
    38    72    73    1
    39    89    88    1
    40    31    30    2
    41    27    25   ar
    42    65    64    2
    43    54    53    1
    44    54    55    1
    45    28    21   am
    46    73    74    1
    47     5     2    1
    48    68    64   am
    49    68    74    1
    50    64    63    1
    51    88    87    1
    52    66    63    1
    53     7     6    1
    54     7     8    1
    55     6     3   am
    56    53    41   am
    57    25    26   ar
    58    25    24    1
    59    56    55    2
    60    43    44    1
    61    43    40    1
    62     1     2    1
    63    42    41    2
    64    21    22    2
    65    21    20    1
    66    41    40    1
    67    87    86    1
    68     2     3    1
    69    63    62    1
    70     8     9    2
    71    24    23    1
    72     3     4    2
    73    23    20    1
    74    44    45   ar
    75    44    46   ar
    76    40    39    1
    77    45    47   ar
    78    20    19    1
    79    82    83    1
    80    86    83    1
    81    46    49   ar
    82    46    48   ar
    83    85    84    2
    84    47    48   ar
    85    49    51   ar
    86    83    84    1
    87    48    50   ar
    88    51    52   ar
    89    50    52   ar
