@<TRIPOS>MOLECULE
tmp/5phgA01.pdb
 79 75 0 0 0
SMALL
GASTEIGER

@<TRIPOS>ATOM
      1  N         12.4940   16.2890   29.4470 N.3    53  TYR53      -0.1227
      2  CA        13.3070   15.0820   29.5430 C.3    53  TYR53       0.1736
      3  C         14.7050   15.4180   30.0520 C.2    53  TYR53       0.2595
      4  O         15.6590   14.6860   29.8010 O.2    53  TYR53      -0.2718
      5  CB        13.3680   14.3650   28.1830 C.3    53  TYR53       0.0548
      6  CG        12.0110   13.8080   27.8040 C.ar   53  TYR53      -0.0200
      7  CD1       11.0890   14.5850   27.1040 C.ar   53  TYR53      -0.0009
      8  CD2       11.6220   12.5320   28.2100 C.ar   53  TYR53      -0.0009
      9  CE1        9.8320   14.1070   26.7990 C.ar   53  TYR53       0.0417
     10  CE2       10.3640   12.0380   27.8980 C.ar   53  TYR53       0.0417
     11  CZ         9.4710   12.8350   27.1960 C.ar   53  TYR53       0.1957
     12  OH         8.2130   12.3640   26.8860 O.3    53  TYR53      -0.2866
     13  N         14.8090   16.5130   30.8000 N.am   54  ASP54      -0.1974
     14  CA        16.1020   17.0310   31.2360 C.3    54  ASP54       0.1709
     15  C         16.7610   16.2310   32.3510 C.2    54  ASP54       0.2293
     16  O         17.9630   16.3810   32.5800 O.2    54  ASP54      -0.2864
     17  CB        15.9550   18.4860   31.6960 C.3    54  ASP54       0.1436
     18  CG        15.8050   19.4510   30.5420 C.2    54  ASP54       0.3671
     19  OD1       16.0650   19.0500   29.3860 O.co2  54  ASP54      -0.2456
     20  OD2       15.4160   20.6120   30.7900 O.co2  54  ASP54      -0.2456
     21  N         16.6620   12.6300   33.0080 N.3    56  ILE56      -0.1231
     22  CA        16.5580   11.1840   32.8500 C.3    56  ILE56       0.1692
     23  C         17.9120   10.4690   32.7810 C.2    56  ILE56       0.2592
     24  O         17.9570    9.2470   32.6270 O.2    56  ILE56      -0.2718
     25  CB        15.7500   10.8180   31.5790 C.3    56  ILE56       0.0266
     26  CG1       16.5260   11.1810   30.3070 C.3    56  ILE56       0.0019
     27  CG2       14.3690   11.4880   31.6050 C.3    56  ILE56       0.0020
     28  CD1       15.8850   10.6370   29.0280 C.3    56  ILE56       0.0001
     29  N         19.0140   11.2030   32.9230 N.am   57  SER57      -0.1952
     30  CA        20.3340   10.6330   32.6510 C.3    57  SER57       0.1924
     31  C         20.7920    9.6140   33.6920 C.2    57  SER57       0.2314
     32  O         21.7270    8.8550   33.4340 O.2    57  SER57      -0.2863
     33  CB        21.3860   11.7420   32.5330 C.3    57  SER57       0.2116
     34  OG        21.1300   12.5860   31.4180 O.3    57  SER57      -0.2180
     35  N         21.7400    6.0290   31.4930 N.3    88  VAL88      -0.1231
     36  CA        21.2340    6.5950   30.2490 C.3    88  VAL88       0.1692
     37  C         22.1550    7.7120   29.7350 C.2    88  VAL88       0.2592
     38  O         22.3840    7.8180   28.5290 O.2    88  VAL88      -0.2718
     39  CB        19.7880    7.0880   30.4260 C.3    88  VAL88       0.0266
     40  CG1       19.3720    8.0210   29.2990 C.3    88  VAL88       0.0020
     41  CG2       18.8490    5.8780   30.4820 C.3    88  VAL88       0.0020
     42  N         22.7250    8.5130   30.6360 N.am   89  GLY89      -0.1957
     43  CA        23.6860    9.5280   30.2210 C.3    89  GLY89       0.1869
     44  C         24.9120    8.9310   29.5450 C.2    89  GLY89       0.2309
     45  O         25.3930    9.4400   28.5190 O.2    89  GLY89      -0.2863
     46  N         23.7850    7.5300   26.0920 N.3    92  ARG92      -0.1245
     47  CA        23.6180    8.6040   25.1150 C.3    92  ARG92       0.1563
     48  C         24.9690    9.0300   24.5370 C.2    92  ARG92       0.2260
     49  O         25.1180    9.2250   23.3200 O.2    92  ARG92      -0.2867
     50  CB        22.9140    9.7890   25.7730 C.3    92  ARG92       0.0307
     51  CG        22.5920   10.9470   24.8580 C.3    92  ARG92       0.0489
     52  CD        21.8600   12.0280   25.6490 C.3    92  ARG92       0.2205
     53  NE        22.6440   12.4930   26.7940 N.pl3  92  ARG92      -0.0865
     54  CZ        22.1770   12.5970   28.0360 C.cat  92  ARG92       0.5346
     55  NH1       20.9200   12.2770   28.3110 N.pl3  92  ARG92       0.1354
     56  NH2       22.9710   13.0250   29.0080 N.pl3  92  ARG92       0.1354
     57  N         11.4600   10.6220   22.9820 N.3   196  LEU196     -0.1231
     58  CA        12.5780   11.5410   22.7890 C.3   196  LEU196      0.1693
     59  C         13.5800   11.0160   21.7680 C.2   196  LEU196      0.2592
     60  O         13.8390    9.8160   21.7270 O.2   196  LEU196     -0.2718
     61  CB        13.2770   11.7680   24.1330 C.3   196  LEU196      0.0284
     62  CG        14.5570   12.6010   24.1830 C.3   196  LEU196      0.0019
     63  CD1       14.2160   14.0780   24.1670 C.3   196  LEU196      0.0001
     64  CD2       15.3800   12.2480   25.4150 C.3   196  LEU196      0.0001
     65  N         14.1480   11.9050   20.9530 N.am  197  GLY197     -0.1957
     66  CA        15.2550   11.5270   20.0950 C.3   197  GLY197      0.1869
     67  C         14.9190   11.2530   18.6490 C.2   197  GLY197      0.2309
     68  O         13.9430   11.7740   18.1010 O.2   197  GLY197     -0.2863
     69  N         20.0860    7.9470   18.6300 N.3   277  PHE277     -0.1241
     70  CA        19.7130    7.8740   20.0410 C.3   277  PHE277      0.1605
     71  C         18.2460    8.2200   20.2360 C.2   277  PHE277      0.2264
     72  O         17.7830    9.2640   19.7640 O.2   277  PHE277     -0.2867
     73  CB        20.5660    8.8090   20.9040 C.3   277  PHE277      0.0534
     74  CG        20.0750    8.9070   22.3360 C.ar  277  PHE277     -0.0203
     75  CD1       20.2370    7.8410   23.2150 C.ar  277  PHE277     -0.0042
     76  CD2       19.4260   10.0510   22.7920 C.ar  277  PHE277     -0.0042
     77  CE1       19.7650    7.9130   24.5160 C.ar  277  PHE277     -0.0003
     78  CE2       18.9510   10.1280   24.1000 C.ar  277  PHE277     -0.0003
     79  CZ        19.1220    9.0620   24.9610 C.ar  277  PHE277     -0.0000
@<TRIPOS>BOND
     1    68    67    2
     2    69    70    1
     3    67    66    1
     4    72    71    2
     5    70    71    1
     6    70    73    1
     7    66    65    1
     8    73    74    1
     9    65    59   am
    10    60    59    2
    11    59    58    1
    12    74    76   ar
    13    74    75   ar
    14    58    57    1
    15    58    61    1
    16    76    78   ar
    17    75    77   ar
    18    49    48    2
    19    78    79   ar
    20    61    62    1
    21    63    62    1
    22    62    64    1
    23    77    79   ar
    24    48    47    1
    25    51    52    1
    26    51    50    1
    27    47    50    1
    28    47    46    1
    29    52    53    1
    30    53    54    2
    31     9     7   ar
    32     9    11   ar
    33    12    11    1
    34     7     6   ar
    35    11    10   ar
    36     6     5    1
    37     6     8   ar
    38    10     8   ar
    39    54    55    1
    40    54    56    1
    41     5     2    1
    42    45    44    2
    43    38    37    2
    44    28    26    1
    45    40    39    1
    46    19    18   ar
    47     1     2    1
    48     2     3    1
    49    44    43    1
    50    37    36    1
    51    37    42   am
    52     4     3    2
    53     3    13   am
    54    43    42    1
    55    36    39    1
    56    36    35    1
    57    26    25    1
    58    39    41    1
    59    18    20   ar
    60    18    17    1
    61    13    14    1
    62    14    17    1
    63    14    15    1
    64    34    33    1
    65    25    27    1
    66    25    22    1
    67    15    16    2
    68    33    30    1
    69    24    23    2
    70    30    29    1
    71    30    31    1
    72    23    22    1
    73    23    29   am
    74    22    21    1
    75    32    31    2
