@<TRIPOS>MOLECULE
tmp/5phhA01.pdb
 86 82 0 0 0
SMALL
GASTEIGER

@<TRIPOS>ATOM
      1  N          0.5020  -15.6470    8.0310 N.3   211  GLN211     -0.1245
      2  CA         0.9880  -16.9910    7.7410 C.3   211  GLN211      0.1566
      3  C          1.9100  -17.0040    6.5200 C.2   211  GLN211      0.2260
      4  O          2.7720  -17.8760    6.4010 O.2   211  GLN211     -0.2867
      5  CB        -0.1870  -17.9570    7.5430 C.3   211  GLN211      0.0367
      6  CG        -0.8920  -18.3290    8.8440 C.3   211  GLN211      0.0905
      7  CD        -2.0130  -19.3310    8.6370 C.2   211  GLN211      0.2608
      8  OE1       -2.6980  -19.3110    7.6170 O.2   211  GLN211     -0.2717
      9  NE2       -2.2050  -20.2110    9.6110 N.am  211  GLN211     -0.0878
     10  N          5.2760  -16.3310    7.9520 N.3   214  GLU214     -0.1245
     11  CA         5.7520  -17.5350    8.6410 C.3   214  GLU214      0.1567
     12  C          6.3000  -18.5680    7.6500 C.2   214  GLU214      0.2260
     13  O          7.3700  -19.1410    7.8630 O.2   214  GLU214     -0.2867
     14  CB         4.6350  -18.1570    9.4850 C.3   214  GLU214      0.0388
     15  CG         4.2050  -17.2800   10.6490 C.3   214  GLU214      0.1160
     16  CD         2.9800  -17.7910   11.3720 C.2   214  GLU214      0.3649
     17  OE1        2.3620  -18.7750   10.9110 O.co2 214  GLU214     -0.2457
     18  OE2        2.6170  -17.1870   12.4050 O.co2 214  GLU214     -0.2457
     19  N         10.1910  -19.9580    7.3780 N.3   218  ARG218     -0.1245
     20  CA        10.5660  -21.3690    7.4380 C.3   218  ARG218      0.1563
     21  C         11.4860  -21.7510    6.2810 C.2   218  ARG218      0.2260
     22  O         12.3480  -22.6190    6.4270 O.2   218  ARG218     -0.2867
     23  CB         9.3240  -22.2590    7.4420 C.3   218  ARG218      0.0307
     24  CG         8.4760  -22.1210    8.6960 C.3   218  ARG218      0.0489
     25  CD         7.3880  -23.1820    8.7570 C.3   218  ARG218      0.2205
     26  NE         6.5740  -23.0470    9.9610 N.pl3 218  ARG218     -0.0865
     27  CZ         5.4720  -22.3080   10.0330 C.cat 218  ARG218      0.5346
     28  NH1        5.0510  -21.6410    8.9680 N.pl3 218  ARG218      0.1354
     29  NH2        4.7910  -22.2360   11.1690 N.pl3 218  ARG218      0.1354
     30  N          8.4740  -25.1140   16.3380 N.3   229  GLY229     -0.1210
     31  CA         7.3050  -24.8920   15.5040 C.3   229  GLY229      0.1956
     32  C          6.8620  -23.4410   15.4360 C.2   229  GLY229      0.2612
     33  O          5.9990  -23.0870   14.6320 O.2   229  GLY229     -0.2717
     34  N          7.4690  -22.5910   16.2590 N.am  230  ALA230     -0.1965
     35  CA         7.1270  -21.1670   16.2820 C.3   230  ALA230      0.1728
     36  C          8.3630  -20.3070   16.5460 C.2   230  ALA230      0.2616
     37  O          8.3780  -19.4850   17.4540 O.2   230  ALA230     -0.2715
     38  CB         6.0540  -20.8970   17.3370 C.3   230  ALA230      0.0334
     39  N          9.4160  -20.4950   15.7580 N.am  231  PHE231     -0.1960
     40  CA        10.6750  -19.8420   16.0980 C.3   231  PHE231      0.1771
     41  C         10.6490  -18.3210   15.9370 C.2   231  PHE231      0.2619
     42  O         11.5170  -17.6500   16.4780 O.2   231  PHE231     -0.2715
     43  CB        11.8290  -20.4260   15.2700 C.3   231  PHE231      0.0574
     44  CG        11.8230  -19.9940   13.8290 C.ar  231  PHE231     -0.0200
     45  CD1       11.0410  -20.6610   12.9060 C.ar  231  PHE231     -0.0042
     46  CD2       12.6200  -18.9440   13.3990 C.ar  231  PHE231     -0.0042
     47  CE1       11.0290  -20.2710   11.5730 C.ar  231  PHE231     -0.0003
     48  CE2       12.6140  -18.5470   12.0680 C.ar  231  PHE231     -0.0003
     49  CZ        11.8190  -19.2170   11.1570 C.ar  231  PHE231     -0.0000
     50  N          9.6630  -17.7570   15.2360 N.am  232  LEU232     -0.1963
     51  CA         9.6180  -16.2930   15.2280 C.3   232  LEU232      0.1728
     52  C          9.3800  -15.7390   16.6510 C.2   232  LEU232      0.2616
     53  O          9.7620  -14.6090   16.9410 O.2   232  LEU232     -0.2715
     54  CB         8.5700  -15.7860   14.2370 C.3   232  LEU232      0.0311
     55  CG         8.9780  -15.9710   12.7650 C.3   232  LEU232      0.0022
     56  CD1        7.9290  -15.4110   11.8480 C.3   232  LEU232      0.0001
     57  CD2       10.3460  -15.3390   12.4700 C.3   232  LEU232      0.0001
     58  N          8.8240  -16.5670   17.5380 N.am  233  ARG233     -0.1977
     59  CA         8.7300  -16.2360   18.9690 C.3   233  ARG233      0.1597
     60  C         10.0950  -15.9720   19.6170 C.2   233  ARG233      0.2287
     61  O         10.1660  -15.3370   20.6740 O.2   233  ARG233     -0.2864
     62  CB         8.0140  -17.3630   19.7390 C.3   233  ARG233      0.0334
     63  CG         6.5480  -17.5990   19.3360 C.3   233  ARG233      0.0492
     64  CD         5.6450  -16.6110   20.0410 C.3   233  ARG233      0.2205
     65  NE         4.2410  -16.7380   19.6540 N.pl3 233  ARG233     -0.0865
     66  CZ         3.4080  -15.7010   19.5840 C.cat 233  ARG233      0.5346
     67  NH1        3.8570  -14.4740   19.8330 N.pl3 233  ARG233      0.1354
     68  NH2        2.1420  -15.8840   19.2270 N.pl3 233  ARG233      0.1354
     69  N          2.5600   -8.9650   12.5170 N.3   269  TYR269     -0.1241
     70  CA         4.0210   -9.1080   12.5460 C.3   269  TYR269      0.1605
     71  C          4.6840   -7.7720   12.2770 C.2   269  TYR269      0.2264
     72  O          4.3080   -7.0720   11.3300 O.2   269  TYR269     -0.2867
     73  CB         4.5040  -10.1260   11.5010 C.3   269  TYR269      0.0534
     74  CG         4.4650  -11.5510   11.9890 C.ar  269  TYR269     -0.0201
     75  CD1        5.4460  -12.0340   12.8510 C.ar  269  TYR269     -0.0009
     76  CD2        3.4530  -12.4160   11.5890 C.ar  269  TYR269     -0.0009
     77  CE1        5.4140  -13.3440   13.3130 C.ar  269  TYR269      0.0417
     78  CE2        3.4140  -13.7280   12.0500 C.ar  269  TYR269      0.0417
     79  CZ         4.4010  -14.1760   12.9160 C.ar  269  TYR269      0.1957
     80  OH         4.3760  -15.4710   13.3840 O.3   269  TYR269     -0.2866
     81  N          0.1240  -19.0990   18.3810 N.3   298  SER298     -0.1217
     82  CA         1.1720  -20.1050   18.3830 C.3   298  SER298      0.1889
     83  C          2.0160  -19.9660   19.6350 C.2   298  SER298      0.2288
     84  O          2.0900  -18.8900   20.2370 O.2   298  SER298     -0.2866
     85  CB         2.0570  -19.9620   17.1480 C.3   298  SER298      0.2089
     86  OG         2.7980  -18.7570   17.2250 O.3   298  SER298     -0.2183
@<TRIPOS>BOND
     1    21    22    2
     2    21    20    1
     3     4     3    2
     4     3     2    1
     5    19    20    1
     6    20    23    1
     7    23    24    1
     8     5     2    1
     9     5     6    1
    10     8     7    2
    11    12    13    2
    12    12    11    1
    13     2     1    1
    14    10    11    1
    15     7     6    1
    16     7     9   am
    17    11    14    1
    18    24    25    1
    19    25    26    1
    20    28    27    1
    21    14    15    1
    22    26    27    2
    23    27    29    1
    24    15    16    1
    25    17    16   ar
    26    49    47   ar
    27    49    48   ar
    28    72    71    2
    29    16    18   ar
    30    73    74    1
    31    73    70    1
    32    47    45   ar
    33    76    74   ar
    34    76    78   ar
    35    56    55    1
    36    74    75   ar
    37    78    79   ar
    38    48    46   ar
    39    71    70    1
    40    57    55    1
    41    69    70    1
    42    55    54    1
    43    75    77   ar
    44    45    44   ar
    45    79    77   ar
    46    79    80    1
    47    46    44   ar
    48    44    43    1
    49    54    51    1
    50    33    32    2
    51    51    50    1
    52    51    52    1
    53    50    41   am
    54    43    40    1
    55    32    31    1
    56    32    34   am
    57    31    30    1
    58    39    40    1
    59    39    36   am
    60    41    40    1
    61    41    42    2
    62    34    35    1
    63    35    36    1
    64    35    38    1
    65    36    37    2
    66    52    53    2
    67    52    58   am
    68    85    86    1
    69    85    82    1
    70    58    59    1
    71    81    82    1
    72    82    83    1
    73    59    60    1
    74    59    62    1
    75    68    66    1
    76    63    62    1
    77    63    64    1
    78    66    65    2
    79    66    67    1
    80    60    61    2
    81    83    84    2
    82    65    64    1
