@<TRIPOS>MOLECULE
tmp/5phkA01.pdb
 115 108 0 0 0
SMALL
GASTEIGER

@<TRIPOS>ATOM
      1  N         -4.5380   -6.2930   31.2190 N.3   150  ILE150     -0.1231
      2  CA        -4.9930   -7.4360   30.4420 C.3   150  ILE150      0.1692
      3  C         -5.6970   -8.4550   31.3360 C.2   150  ILE150      0.2591
      4  O         -6.6300   -9.1310   30.9050 O.2   150  ILE150     -0.2718
      5  CB        -3.8370   -8.1150   29.7220 C.3   150  ILE150      0.0266
      6  CG1       -3.0580   -7.1040   28.8930 C.3   150  ILE150      0.0019
      7  CG2       -4.3620   -9.2100   28.8220 C.3   150  ILE150      0.0020
      8  CD1       -1.7110   -7.6170   28.5220 C.3   150  ILE150      0.0001
      9  N         -5.2590   -8.5610   32.5910 N.am  151  GLN151     -0.1979
     10  CA        -5.9160   -9.4740   33.5250 C.3   151  GLN151      0.1601
     11  C         -7.3560   -9.0320   33.7950 C.2   151  GLN151      0.2287
     12  O         -8.2660   -9.8630   33.8670 O.2   151  GLN151     -0.2864
     13  CB        -5.1430   -9.5670   34.8430 C.3   151  GLN151      0.0394
     14  CG        -3.7850  -10.2430   34.7300 C.3   151  GLN151      0.0908
     15  CD        -2.6960   -9.3380   34.1770 C.2   151  GLN151      0.2608
     16  OE1       -2.8490   -8.1200   34.1130 O.2   151  GLN151     -0.2717
     17  NE2       -1.5780   -9.9350   33.7910 N.am  151  GLN151     -0.0878
     18  N          0.4010   -9.2410   36.5890 N.3   165  VAL165     -0.1231
     19  CA         0.4060   -7.7950   36.4570 C.3   165  VAL165      0.1692
     20  C          0.8400   -7.4110   35.0430 C.2   165  VAL165      0.2592
     21  O          1.1850   -8.2660   34.2350 O.2   165  VAL165     -0.2718
     22  CB         1.3190   -7.1360   37.5150 C.3   165  VAL165      0.0266
     23  CG1        0.7570   -7.3460   38.9270 C.3   165  VAL165      0.0020
     24  CG2        2.7440   -7.6700   37.4210 C.3   165  VAL165      0.0020
     25  N          0.7970   -6.1210   34.7490 N.am  166  ASN166     -0.1960
     26  CA         0.8580   -5.6020   33.3920 C.3   166  ASN166      0.1819
     27  C          1.4280   -4.1870   33.4780 C.2   166  ASN166      0.2621
     28  O          0.6640   -3.2440   33.6300 O.2   166  ASN166     -0.2715
     29  CB        -0.5810   -5.6730   32.8130 C.3   166  ASN166      0.1195
     30  CG        -0.7400   -5.1620   31.3720 C.2   166  ASN166      0.2630
     31  OD1       -1.8660   -4.8290   30.9840 O.2   166  ASN166     -0.2716
     32  ND2        0.3240   -5.1390   30.5750 N.am  166  ASN166     -0.0877
     33  N          2.7640   -4.0420   33.4210 N.am  167  THR167     -0.1951
     34  CA         3.4300   -2.7220   33.5280 C.3   167  THR167      0.1897
     35  C          4.3030   -2.3690   32.3050 C.2   167  THR167      0.2313
     36  O          4.7110   -3.2460   31.5540 O.2   167  THR167     -0.2863
     37  CB         4.3100   -2.6320   34.8070 C.3   167  THR167      0.1794
     38  OG1        5.3050   -3.6600   34.7990 O.3   167  THR167     -0.2208
     39  CG2        3.4530   -2.7720   36.0410 C.3   167  THR167      0.0378
     40  N          7.4160   -0.9670   29.7170 N.3   169  TYR169     -0.1241
     41  CA         8.8560   -1.1170   29.4910 C.3   169  TYR169      0.1605
     42  C          9.4380    0.1530   28.8610 C.2   169  TYR169      0.2264
     43  O          8.7620    0.8360   28.0900 O.2   169  TYR169     -0.2867
     44  CB         9.1490   -2.3050   28.5590 C.3   169  TYR169      0.0534
     45  CG         9.1930   -3.6840   29.1940 C.ar  169  TYR169     -0.0201
     46  CD1        9.7560   -3.8880   30.4480 C.ar  169  TYR169     -0.0009
     47  CD2        8.6830   -4.7910   28.5210 C.ar  169  TYR169     -0.0009
     48  CE1        9.8010   -5.1570   31.0170 C.ar  169  TYR169      0.0417
     49  CE2        8.7210   -6.0550   29.0810 C.ar  169  TYR169      0.0417
     50  CZ         9.2790   -6.2350   30.3270 C.ar  169  TYR169      0.1957
     51  OH         9.3130   -7.4970   30.8790 O.3   169  TYR169     -0.2866
     52  N          3.4630  -11.3040   22.6390 N.3   185  ASP185     -0.1239
     53  CA         3.0760  -12.4200   23.5000 C.3   185  ASP185      0.1674
     54  C          1.5660  -12.6280   23.4050 C.2   185  ASP185      0.2266
     55  O          0.8160  -11.6510   23.5050 O.2   185  ASP185     -0.2867
     56  CB         3.4340  -12.1480   24.9690 C.3   185  ASP185      0.1410
     57  CG         4.9320  -12.0580   25.2320 C.2   185  ASP185      0.3668
     58  OD1        5.7320  -12.6170   24.4630 O.co2 185  ASP185     -0.2456
     59  OD2        5.3090  -11.4350   26.2510 O.co2 185  ASP185     -0.2456
     60  N         -1.1720  -10.3480   21.6130 N.3   188  LEU188     -0.1245
     61  CA        -1.7450   -9.1290   22.1810 C.3   188  LEU188      0.1561
     62  C         -1.5360   -7.8890   21.3000 C.2   188  LEU188      0.2260
     63  O         -0.7570   -7.9040   20.3410 O.2   188  LEU188     -0.2867
     64  CB        -1.1430   -8.8930   23.5720 C.3   188  LEU188      0.0270
     65  CG        -1.7180   -9.7960   24.6670 C.3   188  LEU188      0.0019
     66  CD1       -0.7460   -9.9500   25.8260 C.3   188  LEU188      0.0001
     67  CD2       -3.0630   -9.2610   25.1610 C.3   188  LEU188      0.0001
     68  N          3.9070   -1.0450   26.0680 N.3   283  ILE283     -0.1231
     69  CA         3.1990   -1.9980   26.9130 C.3   283  ILE283      0.1692
     70  C          2.2060   -2.7810   26.0610 C.2   283  ILE283      0.2592
     71  O          1.7180   -2.2740   25.0370 O.2   283  ILE283     -0.2718
     72  CB         2.4830   -1.2750   28.1020 C.3   283  ILE283      0.0266
     73  CG1        2.0540   -2.2640   29.1970 C.3   283  ILE283      0.0019
     74  CG2        1.3280   -0.3800   27.6070 C.3   283  ILE283      0.0020
     75  CD1        1.3930   -1.5930   30.3950 C.3   283  ILE283      0.0001
     76  N          1.9110   -4.0130   26.4810 N.am  284  ASN284     -0.1974
     77  CA         0.8430   -4.7820   25.8600 C.3   284  ASN284      0.1688
     78  C         -0.5140   -4.4270   26.4470 C.2   284  ASN284      0.2292
     79  O         -0.6180   -4.0740   27.6210 O.2   284  ASN284     -0.2864
     80  CB         1.0870   -6.2870   26.0140 C.3   284  ASN284      0.1181
     81  CG         2.3060   -6.7470   25.2580 C.2   284  ASN284      0.2629
     82  OD1        3.2630   -7.2430   25.8470 O.2   284  ASN284     -0.2716
     83  ND2        2.2880   -6.5680   23.9450 N.am  284  ASN284     -0.0877
     84  N          7.4510  -13.4710   30.7620 N.3   308  THR308     -0.1218
     85  CA         6.9180  -13.0210   32.0390 C.3   308  THR308      0.1862
     86  C          6.1680  -14.0840   32.8330 C.2   308  THR308      0.2287
     87  O          5.6550  -15.0590   32.2830 O.2   308  THR308     -0.2866
     88  CB         5.9540  -11.8330   31.8340 C.3   308  THR308      0.1770
     89  OG1        4.8840  -12.2310   30.9660 O.3   308  THR308     -0.2211
     90  CG2        6.6840  -10.6520   31.2140 C.3   308  THR308      0.0375
     91  N          3.4520  -13.5140   34.0870 N.3   310  SER310     -0.1202
     92  CA         2.0970  -13.0440   33.7790 C.3   310  SER310      0.2020
     93  C          1.4580  -13.8350   32.6290 C.2   310  SER310      0.2618
     94  O          0.2400  -13.9380   32.5130 O.2   310  SER310     -0.2717
     95  CB         2.1090  -11.5530   33.4290 C.3   310  SER310      0.2103
     96  OG         2.4560  -11.3500   32.0690 O.3   310  SER310     -0.2182
     97  N          2.2850  -14.3570   31.7300 N.am  311  MET311     -0.1979
     98  CA         1.7940  -15.1010   30.5730 C.3   311  MET311      0.1605
     99  C          1.1920  -16.4510   30.9520 C.2   311  MET311      0.2287
    100  O          0.3530  -16.9980   30.2250 O.2   311  MET311     -0.2864
    101  CB         2.9210  -15.3110   29.5610 C.3   311  MET311      0.0413
    102  CG         3.2620  -14.0760   28.7470 C.3   311  MET311      0.0598
    103  SD         1.8770  -13.5180   27.7390 S.3   311  MET311     -0.1393
    104  CE         1.3640  -12.0540   28.6330 C.3   311  MET311      0.0692
    105  N         -2.5610  -16.6860   31.0120 N.3   314  PHE314     -0.1241
    106  CA        -3.1420  -16.5550   29.6790 C.3   314  PHE314      0.1605
    107  C         -3.1930  -17.9270   29.0010 C.2   314  PHE314      0.2264
    108  O         -4.2470  -18.3570   28.5220 O.2   314  PHE314     -0.2867
    109  CB        -2.3410  -15.5770   28.8120 C.3   314  PHE314      0.0534
    110  CG        -2.2050  -14.1870   29.3900 C.ar  314  PHE314     -0.0203
    111  CD1       -3.0690  -13.7150   30.3650 C.ar  314  PHE314     -0.0042
    112  CD2       -1.1960  -13.3460   28.9360 C.ar  314  PHE314     -0.0042
    113  CE1       -2.9250  -12.4390   30.8830 C.ar  314  PHE314     -0.0003
    114  CE2       -1.0500  -12.0700   29.4480 C.ar  314  PHE314     -0.0003
    115  CZ        -1.9130  -11.6230   30.4270 C.ar  314  PHE314     -0.0000
@<TRIPOS>BOND
     1    63    62    2
     2    62    61    1
     3    60    61    1
     4    61    64    1
     5    52    53    1
     6    54    53    1
     7    54    55    2
     8    53    56    1
     9    64    65    1
    10    83    81   am
    11    58    57   ar
    12    65    67    1
    13    65    66    1
    14    56    57    1
    15    71    70    2
    16    57    59   ar
    17    81    82    2
    18    81    80    1
    19    77    80    1
    20    77    78    1
    21    77    76    1
    22    70    76   am
    23    70    69    1
    24    68    69    1
    25    78    79    2
    26    69    72    1
    27    74    72    1
    28   103   104    1
    29   103   102    1
    30    43    42    2
    31    72    73    1
    32    47    49   ar
    33    47    45   ar
    34     8     6    1
    35   108   107    2
    36    44    45    1
    37    44    41    1
    38   102   101    1
    39   109   110    1
    40   109   106    1
    41     7     5    1
    42    42    41    1
    43     6     5    1
    44   112   110   ar
    45   112   114   ar
    46   107   106    1
    47    49    50   ar
    48    45    46   ar
    49    73    75    1
    50   110   111   ar
    51   114   115   ar
    52    41    40    1
    53   101    98    1
    54   106   105    1
    55     5     2    1
    56   100    99    2
    57    50    51    1
    58    50    48   ar
    59   111   113   ar
    60   115   113   ar
    61     2     1    1
    62     2     3    1
    63    46    48   ar
    64    98    99    1
    65    98    97    1
    66    32    30   am
    67    84    85    1
    68     4     3    2
    69    89    88    1
    70    31    30    2
    71    90    88    1
    72     3     9   am
    73    30    29    1
    74    36    35    2
    75    97    93   am
    76    88    85    1
    77    85    86    1
    78    96    95    1
    79    87    86    2
    80    35    34    1
    81    94    93    2
    82     9    10    1
    83    93    92    1
    84    29    26    1
    85    26    27    1
    86    26    25    1
    87    33    27   am
    88    33    34    1
    89    95    92    1
    90    27    28    2
    91    10    11    1
    92    10    13    1
    93    34    37    1
    94    92    91    1
    95    17    15   am
    96    11    12    2
    97    16    15    2
    98    15    14    1
    99    21    20    2
   100    14    13    1
   101    25    20   am
   102    38    37    1
   103    37    39    1
   104    20    19    1
   105    19    18    1
   106    19    22    1
   107    24    22    1
   108    22    23    1
