@<TRIPOS>MOLECULE
tmp/5phlA01.pdb
 103 99 0 0 0
SMALL
GASTEIGER

@<TRIPOS>ATOM
      1  N          2.7300  -20.9820   20.1460 N.3   299  GLN299     -0.1231
      2  CA         3.6600  -20.8630   21.2610 C.3   299  GLN299      0.1698
      3  C          4.9850  -21.5600   20.9910 C.2   299  GLN299      0.2592
      4  O          5.0380  -22.5910   20.3120 O.2   299  GLN299     -0.2718
      5  CB         3.0550  -21.4610   22.5410 C.3   299  GLN299      0.0381
      6  CG         1.7130  -20.8790   22.9530 C.3   299  GLN299      0.0905
      7  CD         1.7810  -19.4060   23.3210 C.2   299  GLN299      0.2608
      8  OE1        2.8610  -18.8080   23.3770 O.2   299  GLN299     -0.2717
      9  NE2        0.6190  -18.8100   23.5620 N.am  299  GLN299     -0.0878
     10  N          6.0480  -20.9700   21.5220 N.am  300  CYS300     -0.1956
     11  CA         7.3420  -21.6200   21.5810 C.3   300  CYS300      0.1843
     12  C          7.3480  -22.5340   22.8050 C.2   300  CYS300      0.2626
     13  O          6.9790  -22.1130   23.9030 O.2   300  CYS300     -0.2714
     14  CB         8.4470  -20.5660   21.6850 C.3   300  CYS300      0.0997
     15  SG        10.0610  -21.1930   22.1950 S.3   300  CYS300     -0.0797
     16  N          7.7360  -23.7900   22.6080 N.am  301  SER301     -0.1950
     17  CA         7.8350  -24.7420   23.7090 C.3   301  SER301      0.1924
     18  C          9.2150  -25.3960   23.7410 C.2   301  SER301      0.2314
     19  O          9.4380  -26.3510   24.4840 O.2   301  SER301     -0.2863
     20  CB         6.7460  -25.8190   23.6070 C.3   301  SER301      0.2116
     21  OG         5.4460  -25.2550   23.6810 O.3   301  SER301     -0.2180
     22  N         11.8560  -23.9010   24.6840 N.3   303  GLY303     -0.1225
     23  CA        12.5750  -23.3280   25.8040 C.3   303  GLY303      0.1811
     24  C         13.2590  -22.0040   25.5190 C.2   303  GLY303      0.2280
     25  O         13.6520  -21.2960   26.4450 O.2   303  GLY303     -0.2866
     26  N         12.0620  -19.1120   23.8950 N.3   305  ALA305     -0.1231
     27  CA        11.2590  -17.9010   24.0680 C.3   305  ALA305      0.1694
     28  C         11.2670  -17.3500   25.4950 C.2   305  ALA305      0.2592
     29  O         11.5060  -16.1600   25.6930 O.2   305  ALA305     -0.2718
     30  CB         9.8310  -18.1310   23.5880 C.3   305  ALA305      0.0304
     31  N         11.0020  -18.2190   26.4710 N.am  306  ARG306     -0.1966
     32  CA        11.0430  -17.8730   27.9000 C.3   306  ARG306      0.1728
     33  C         10.3610  -16.5460   28.2550 C.2   306  ARG306      0.2616
     34  O         10.9690  -15.4790   28.1530 O.2   306  ARG306     -0.2715
     35  CB        12.4880  -17.8790   28.4110 C.3   306  ARG306      0.0334
     36  CG        11.6360  -20.2920   30.8200 C.3   306  ARG306      0.0506
     37  CD        10.2240  -20.5770   31.3230 C.3   306  ARG306      0.2204
     38  NE         9.3630  -19.3980   31.2960 N.pl3 306  ARG306     -0.0894
     39  CZ         8.0900  -19.3960   31.6830 C.cat 306  ARG306      0.4951
     40  NH1        7.3770  -18.2790   31.6270 N.pl3 306  ARG306      0.1317
     41  NH2        7.5290  -20.5130   32.1260 N.pl3 306  ARG306     -0.0903
     42  N          9.1120  -16.6180   28.7040 N.am  307  VAL307     -0.1977
     43  CA         8.3040  -15.4110   28.8600 C.3   307  VAL307      0.1596
     44  C          7.8450  -15.1000   30.2870 C.2   307  VAL307      0.2287
     45  O          8.1240  -15.8400   31.2300 O.2   307  VAL307     -0.2864
     46  CB         7.0730  -15.4560   27.9440 C.3   307  VAL307      0.0276
     47  CG1        7.5080  -15.5910   26.4910 C.3   307  VAL307      0.0022
     48  CG2        6.1740  -16.6100   28.3440 C.3   307  VAL307      0.0022
     49  N         -2.1030  -18.6200   28.9190 N.3   315  VAL315     -0.1245
     50  CA        -2.0420  -19.9320   28.2760 C.3   315  VAL315      0.1561
     51  C         -2.9460  -20.8970   29.0410 C.2   315  VAL315      0.2260
     52  O         -3.7260  -21.6430   28.4470 O.2   315  VAL315     -0.2867
     53  CB        -0.6010  -20.4880   28.2010 C.3   315  VAL315      0.0252
     54  CG1       -0.5990  -21.8260   27.4820 C.3   315  VAL315      0.0019
     55  CG2        0.3200  -19.4710   27.4970 C.3   315  VAL315      0.0019
     56  N         -1.2130  -25.8490   27.4970 N.3   323  TYR323     -0.1241
     57  CA        -0.5850  -25.4800   28.7690 C.3   323  TYR323      0.1605
     58  C          0.5500  -26.4000   29.2470 C.2   323  TYR323      0.2264
     59  O          1.6540  -25.9290   29.5290 O.2   323  TYR323     -0.2867
     60  CB        -1.6390  -25.3280   29.8690 C.3   323  TYR323      0.0534
     61  CG        -1.0870  -24.7330   31.1450 C.ar  323  TYR323     -0.0201
     62  CD1       -0.5870  -23.4360   31.1670 C.ar  323  TYR323     -0.0009
     63  CD2       -1.0610  -25.4660   32.3240 C.ar  323  TYR323     -0.0009
     64  CE1       -0.0790  -22.8860   32.3290 C.ar  323  TYR323      0.0417
     65  CE2       -0.5540  -24.9220   33.4920 C.ar  323  TYR323      0.0417
     66  CZ        -0.0640  -23.6330   33.4890 C.ar  323  TYR323      0.1957
     67  OH         0.4400  -23.0870   34.6500 O.3   323  TYR323     -0.2866
     68  N          3.6830  -26.2840   27.0400 N.3   326  TRP326     -0.1227
     69  CA         4.2340  -24.9410   27.1490 C.3   326  TRP326      0.1737
     70  C          4.9420  -24.7690   28.4910 C.2   326  TRP326      0.2595
     71  O          6.0170  -24.1720   28.5640 O.2   326  TRP326     -0.2718
     72  CB         3.1330  -23.8920   26.9830 C.3   326  TRP326      0.0564
     73  CG         3.6120  -22.4910   27.1740 C.ar  326  TRP326      0.0003
     74  CD1        4.2620  -21.7160   26.2610 C.ar  326  TRP326      0.0946
     75  CD2        3.4810  -21.6940   28.3570 C.ar  326  TRP326      0.0152
     76  NE1        4.5440  -20.4830   26.8000 N.ar  326  TRP326     -0.2442
     77  CE2        4.0760  -20.4460   28.0870 C.ar  326  TRP326      0.0810
     78  CE3        2.9160  -21.9140   29.6170 C.ar  326  TRP326      0.0012
     79  CZ2        4.1240  -19.4220   29.0320 C.ar  326  TRP326      0.0191
     80  CZ3        2.9680  -20.8970   30.5540 C.ar  326  TRP326      0.0001
     81  CH2        3.5670  -19.6670   30.2560 C.ar  326  TRP326      0.0015
     82  N          4.3300  -25.3030   29.5440 N.am  327  LYS327     -0.1980
     83  CA         4.9050  -25.2700   30.8850 C.3   327  LYS327      0.1596
     84  C          6.3000  -25.8820   30.9170 C.2   327  LYS327      0.2287
     85  O          7.2200  -25.3250   31.5170 O.2   327  LYS327     -0.2864
     86  CB         4.0040  -26.0170   31.8700 C.3   327  LYS327      0.0298
     87  CG         3.0580  -25.1290   32.6500 C.3   327  LYS327      0.0038
     88  CD         3.1960  -25.3810   34.1400 C.3   327  LYS327      0.0206
     89  CE         3.3700  -24.0760   34.8940 C.3   327  LYS327      0.1093
     90  NZ         4.4770  -23.2610   34.3220 N.3   327  LYS327     -0.1314
     91  N          8.5210  -26.0190   28.7300 N.3   329  GLY329     -0.1210
     92  CA         9.5070  -25.1340   28.1370 C.3   329  GLY329      0.1956
     93  C          9.9440  -24.0190   29.0670 C.2   329  GLY329      0.2612
     94  O         11.1330  -23.7190   29.1720 O.2   329  GLY329     -0.2717
     95  N          8.9790  -23.4010   29.7410 N.am  330  GLN330     -0.1942
     96  CA         9.2720  -22.3290   30.6840 C.3   330  GLN330      0.1995
     97  C         10.0240  -22.8770   31.8920 C.2   330  GLN330      0.2323
     98  O         10.8100  -22.1700   32.5220 O.2   330  GLN330     -0.2863
     99  CB         7.9790  -21.6470   31.1390 C.3   330  GLN330      0.2174
    100  CG         7.1160  -21.1190   30.0030 C.3   330  GLN330      0.1339
    101  CD         7.7450  -19.9410   29.2820 C.2   330  GLN330      0.2644
    102  OE1        7.9190  -18.8660   29.8570 O.2   330  GLN330     -0.2715
    103  NE2        8.0900  -20.1390   28.0150 N.am  330  GLN330     -0.0877
@<TRIPOS>BOND
     1     1     2    1
     2     4     3    2
     3     3     2    1
     4     3    10   am
     5     2     5    1
     6    10    11    1
     7    11    14    1
     8    11    12    1
     9    14    15    1
    10     5     6    1
    11    16    12   am
    12    16    17    1
    13    12    13    2
    14     6     7    1
    15     7     8    2
    16     7     9   am
    17    30    27    1
    18    20    21    1
    19    20    17    1
    20    17    18    1
    21    18    19    2
    22    26    27    1
    23    27    28    1
    24    22    23    1
    25    28    29    2
    26    28    31   am
    27    24    23    1
    28    24    25    2
    29    74    76   ar
    30    74    73   ar
    31    31    32    1
    32    47    46    1
    33    76    77   ar
    34    72    69    1
    35    72    73    1
    36    68    69    1
    37    69    70    1
    38    73    75   ar
    39    54    53    1
    40    56    57    1
    41    55    53    1
    42    32    33    1
    43    32    35    1
    44    46    48    1
    45    46    43    1
    46   103   101   am
    47    77    75   ar
    48    77    79   ar
    49    92    91    1
    50    92    93    1
    51    34    33    2
    52    53    50    1
    53    33    42   am
    54    50    49    1
    55    50    51    1
    56    75    78   ar
    57    52    51    2
    58    70    71    2
    59    70    82   am
    60    42    43    1
    61    57    58    1
    62    57    60    1
    63    43    44    1
    64    79    81   ar
    65    93    94    2
    66    93    95   am
    67    58    59    2
    68   101   102    2
    69   101   100    1
    70    82    83    1
    71    78    80   ar
    72    95    96    1
    73    60    61    1
    74   100    99    1
    75    81    80   ar
    76    44    45    2
    77    96    99    1
    78    96    97    1
    79    36    37    1
    80    83    84    1
    81    83    86    1
    82    84    85    2
    83    99    41    1
    84    61    62   ar
    85    61    63   ar
    86    62    64   ar
    87    38    37    1
    88    38    39    1
    89    40    39    2
    90    39    41    1
    91    86    87    1
    92    97    98    2
    93    63    65   ar
    94    64    66   ar
    95    87    88    1
    96    66    65   ar
    97    66    67    1
    98    88    89    1
    99    90    89    1
