@<TRIPOS>MOLECULE
tmp/5phmA01.pdb
 78 75 0 0 0
SMALL
GASTEIGER

@<TRIPOS>ATOM
      1  N         24.2750  -12.3800   11.9770 N.3    70  SER70      -0.1202
      2  CA        24.8410  -13.4710   11.1770 C.3    70  SER70       0.2020
      3  C         23.9490  -13.6960    9.9720 C.2    70  SER70       0.2619
      4  O         22.7310  -13.7280   10.1160 O.2    70  SER70      -0.2717
      5  CB        24.8760  -14.7720   11.9760 C.3    70  SER70       0.2103
      6  OG        25.6980  -14.6380   13.1050 O.3    70  SER70      -0.2182
      7  N         24.5410  -13.8810    8.7950 N.am   71  GLY71      -0.1942
      8  CA        23.7550  -14.1770    7.6080 C.3    71  GLY71       0.2014
      9  C         24.1160  -13.2560    6.4650 C.2    71  GLY71       0.2638
     10  O         25.2800  -12.8810    6.3010 O.2    71  GLY71      -0.2714
     11  N         23.1110  -12.8700    5.6940 N.am   72  ARG72      -0.1977
     12  CA        23.2980  -11.9840    4.5610 C.3    72  ARG72       0.1597
     13  C         22.6100  -10.6570    4.8430 C.2    72  ARG72       0.2287
     14  O         21.8290  -10.5490    5.7920 O.2    72  ARG72      -0.2864
     15  CB        22.7330  -12.6370    3.3050 C.3    72  ARG72       0.0334
     16  CG        23.3650  -13.9770    2.9950 C.3    72  ARG72       0.0492
     17  CD        22.6280  -14.6580    1.8710 C.3    72  ARG72       0.2205
     18  NE        21.3840  -15.2580    2.3310 N.pl3  72  ARG72      -0.0865
     19  CZ        20.5810  -15.9790    1.5590 C.cat  72  ARG72       0.5346
     20  NH1       19.4650  -16.4930    2.0610 N.pl3  72  ARG72       0.1354
     21  NH2       20.8930  -16.1800    0.2840 N.pl3  72  ARG72       0.1354
     22  N         18.7890  -11.0970    4.8310 N.3    75  VAL75      -0.1245
     23  CA        18.2520  -12.2460    5.5630 C.3    75  VAL75       0.1561
     24  C         19.2710  -12.6300    6.6200 C.2    75  VAL75       0.2260
     25  O         20.3150  -13.2240    6.3110 O.2    75  VAL75      -0.2867
     26  CB        18.0240  -13.4550    4.6330 C.3    75  VAL75       0.0252
     27  CG1       17.4580  -14.6360    5.4210 C.3    75  VAL75       0.0019
     28  CG2       17.1010  -13.0830    3.4610 C.3    75  VAL75       0.0019
     29  N         20.0470  -13.3150   11.1860 N.3    77  THR77      -0.1218
     30  CA        19.6020  -13.3690   12.5690 C.3    77  THR77       0.1862
     31  C         20.4900  -12.4780   13.4200 C.2    77  THR77       0.2287
     32  O         21.5840  -12.1050   13.0120 O.2    77  THR77      -0.2866
     33  CB        19.6440  -14.8020   13.1330 C.3    77  THR77       0.1770
     34  OG1       20.9830  -15.3040   13.0640 O.3    77  THR77      -0.2211
     35  CG2       18.7190  -15.7170   12.3470 C.3    77  THR77       0.0375
     36  N         13.5180  -19.5100    4.7940 N.3   220  LEU220     -0.1231
     37  CA        14.7470  -18.7200    4.9150 C.3   220  LEU220      0.1693
     38  C         15.6100  -19.0780    6.1180 C.2   220  LEU220      0.2592
     39  O         16.8090  -18.7840    6.1260 O.2   220  LEU220     -0.2718
     40  CB        14.4240  -17.2280    4.9690 C.3   220  LEU220      0.0284
     41  CG        13.7900  -16.6320    3.7110 C.3   220  LEU220      0.0019
     42  CD1       13.5150  -15.1450    3.9200 C.3   220  LEU220      0.0001
     43  CD2       14.6980  -16.8340    2.5010 C.3   220  LEU220      0.0001
     44  N         15.0050  -19.6850    7.1370 N.am  221  PHE221     -0.1963
     45  CA        15.7230  -20.0440    8.3590 C.3   221  PHE221      0.1756
     46  C         15.4320  -21.5030    8.6700 C.2   221  PHE221      0.2461
     47  O         14.7910  -21.8210    9.6770 O.2   221  PHE221     -0.2730
     48  CB        15.3040  -19.1410    9.5340 C.3   221  PHE221      0.0574
     49  CG        15.4890  -17.6720    9.2640 C.ar  221  PHE221     -0.0200
     50  CD1       16.7140  -17.0580    9.4840 C.ar  221  PHE221     -0.0042
     51  CD2       14.4510  -16.9080    8.7560 C.ar  221  PHE221     -0.0042
     52  CE1       16.8960  -15.7100    9.2160 C.ar  221  PHE221     -0.0003
     53  CE2       14.6310  -15.5600    8.4780 C.ar  221  PHE221     -0.0003
     54  CZ        15.8560  -14.9600    8.7080 C.ar  221  PHE221     -0.0000
     55  N         15.9080  -22.4040    7.7970 N.am  222  PRO222     -0.2716
     56  CA        15.4820  -23.8070    7.8750 C.3   222  PRO222      0.1536
     57  C         15.9140  -24.5320    9.1570 C.2   222  PRO222      0.2599
     58  O         15.1080  -25.2840    9.7020 O.2   222  PRO222     -0.2715
     59  CB        16.0990  -24.4400    6.6200 C.3   222  PRO222      0.0310
     60  CG        17.1800  -23.5040    6.1880 C.3   222  PRO222      0.0237
     61  CD        16.7680  -22.1390    6.6280 C.3   222  PRO222      0.0939
     62  N         17.1300  -24.2990    9.6400 N.am  223  GLY223     -0.1941
     63  CA        17.5640  -24.9060   10.8900 C.3   223  GLY223      0.2014
     64  C         16.7150  -24.4420   12.0650 C.2   223  GLY223      0.2639
     65  O         16.2980  -25.2380   12.9120 O.2   223  GLY223     -0.2714
     66  N         16.4410  -23.1420   12.1200 N.am  224  SER224     -0.1949
     67  CA        15.6130  -22.5950   13.1940 C.3   224  SER224      0.1924
     68  C         14.2290  -23.2140   13.1860 C.2   224  SER224      0.2314
     69  O         13.6700  -23.5370   14.2400 O.2   224  SER224     -0.2863
     70  CB        15.4610  -21.0900   13.0330 C.3   224  SER224      0.2116
     71  OG        16.6300  -20.4230   13.4450 O.3   224  SER224     -0.2180
     72  N         14.5460  -13.1480   16.7520 N.3   236  VAL236     -0.1245
     73  CA        15.9180  -13.0290   16.2690 C.3   236  VAL236      0.1561
     74  C         16.0550  -12.9060   14.7440 C.2   236  VAL236      0.2260
     75  O         17.1490  -12.6530   14.2540 O.2   236  VAL236     -0.2867
     76  CB        16.8300  -14.1770   16.7780 C.3   236  VAL236      0.0252
     77  CG1       16.9190  -14.1540   18.2930 C.3   236  VAL236      0.0019
     78  CG2       16.3210  -15.5100   16.2850 C.3   236  VAL236      0.0019
@<TRIPOS>BOND
     1    21    19    1
     2    19    20    1
     3    19    18    2
     4    17    18    1
     5    17    16    1
     6    43    41    1
     7    16    15    1
     8    15    12    1
     9    28    26    1
    10    41    42    1
    11    41    40    1
    12    12    13    1
    13    12    11    1
    14    26    27    1
    15    26    23    1
    16    36    37    1
    17    22    23    1
    18    13    14    2
    19    37    40    1
    20    37    38    1
    21    23    24    1
    22    11     9   am
    23    38    39    2
    24    38    44   am
    25    60    59    1
    26    60    61    1
    27    10     9    2
    28    25    24    2
    29     9     8    1
    30    59    56    1
    31    61    55    1
    32    44    45    1
    33     8     7    1
    34    55    56    1
    35    55    46   am
    36    56    57    1
    37    45    46    1
    38    45    48    1
    39    53    54   ar
    40    53    51   ar
    41    46    47    2
    42    54    52   ar
    43    51    49   ar
    44     7     3   am
    45    57    62   am
    46    57    58    2
    47    52    50   ar
    48    49    50   ar
    49    49    48    1
    50    62    63    1
    51     3     4    2
    52     3     2    1
    53    63    64    1
    54     2     5    1
    55     2     1    1
    56    29    30    1
    57     5     6    1
    58    64    66   am
    59    64    65    2
    60    66    67    1
    61    35    33    1
    62    30    33    1
    63    30    31    1
    64    32    31    2
    65    70    67    1
    66    70    71    1
    67    34    33    1
    68    68    67    1
    69    68    69    2
    70    75    74    2
    71    74    73    1
    72    73    72    1
    73    73    76    1
    74    78    76    1
    75    76    77    1
