@<TRIPOS>MOLECULE
tmp/5pj3A00.pdb
 106 102 0 0 0
SMALL
GASTEIGER

@<TRIPOS>ATOM
      1  N         21.6880   -2.0040   22.3940 N.3   126  TYR126     -0.1241
      2  CA        20.2460   -1.6330   22.6190 C.3   126  TYR126      0.1605
      3  C         19.9750   -1.7790   24.1640 C.2   126  TYR126      0.2264
      4  O         20.3310   -2.7880   24.8160 O.2   126  TYR126     -0.2867
      5  CB        19.3270   -2.5500   21.9110 C.3   126  TYR126      0.0534
      6  CG        17.9480   -1.9240   21.4810 C.ar  126  TYR126     -0.0201
      7  CD1       17.5100   -0.6830   21.8900 C.ar  126  TYR126     -0.0009
      8  CD2       17.0490   -2.7010   20.6490 C.ar  126  TYR126     -0.0009
      9  CE1       16.2810   -0.1370   21.5160 C.ar  126  TYR126      0.0417
     10  CE2       15.8250   -2.1400   20.2910 C.ar  126  TYR126      0.0417
     11  CZ        15.4120   -0.8430   20.7110 C.ar  126  TYR126      0.1957
     12  OH        14.2000   -0.1810   20.2690 O.3   126  TYR126     -0.2866
     13  N         12.7720    1.4670   26.2400 N.3   171  TYR171     -0.1241
     14  CA        13.7200    1.0580   25.1980 C.3   171  TYR171      0.1605
     15  C         14.5730    2.2120   24.8890 C.2   171  TYR171      0.2264
     16  O         14.0970    3.1280   24.2620 O.2   171  TYR171     -0.2867
     17  CB        12.9650    0.5400   23.9650 C.3   171  TYR171      0.0534
     18  CG        12.0800   -0.6310   24.2010 C.ar  171  TYR171     -0.0201
     19  CD1       10.8030   -0.4680   24.7510 C.ar  171  TYR171     -0.0009
     20  CD2       12.5180   -1.9170   23.9290 C.ar  171  TYR171     -0.0009
     21  CE1        9.9880   -1.5210   25.0720 C.ar  171  TYR171      0.0417
     22  CE2       11.6840   -2.9990   24.2260 C.ar  171  TYR171      0.0417
     23  CZ        10.4680   -2.7750   24.8250 C.ar  171  TYR171      0.1957
     24  OH         9.6260   -3.8670   25.0830 O.3   171  TYR171     -0.2866
     25  N         14.7050   -4.3060   16.0170 N.3   179  PHE179     -0.1241
     26  CA        13.7230   -5.2360   16.5620 C.3   179  PHE179      0.1605
     27  C         13.3550   -6.2190   15.4470 C.2   179  PHE179      0.2264
     28  O         12.9670   -5.8480   14.3370 O.2   179  PHE179     -0.2867
     29  CB        12.4850   -4.6000   17.2340 C.3   179  PHE179      0.0534
     30  CG        11.7480   -3.5760   16.4690 C.ar  179  PHE179     -0.0203
     31  CD1       12.2420   -2.2450   16.3790 C.ar  179  PHE179     -0.0042
     32  CD2       10.4710   -3.8280   15.9600 C.ar  179  PHE179     -0.0042
     33  CE1       11.5090   -1.2790   15.7210 C.ar  179  PHE179     -0.0003
     34  CE2        9.7130   -2.8470   15.3620 C.ar  179  PHE179     -0.0003
     35  CZ        10.2460   -1.5800   15.2320 C.ar  179  PHE179     -0.0000
     36  N          8.3430  -10.1470   14.6770 N.3   182  HIS182     -0.1241
     37  CA         7.5720  -10.8260   15.7380 C.3   182  HIS182      0.1621
     38  C          6.1700  -10.3470   15.7690 C.2   182  HIS182      0.2264
     39  O          5.8550   -9.2270   15.3320 O.2   182  HIS182     -0.2867
     40  CB         8.2420  -10.6190   17.1290 C.3   182  HIS182      0.0745
     41  CG         8.1280   -9.2290   17.6490 C.ar  182  HIS182      0.0817
     42  ND1        8.9260   -8.2000   17.1590 N.ar  182  HIS182     -0.2268
     43  CD2        7.3350   -8.6560   18.5690 C.ar  182  HIS182      0.1154
     44  CE1        8.5970   -7.0510   17.7470 C.ar  182  HIS182      0.1986
     45  NE2        7.6200   -7.2960   18.6260 N.ar  182  HIS182     -0.2212
     46  N          3.2710   -9.9750   19.1810 N.3   184  GLU184     -0.1245
     47  CA         3.3810   -9.8570   20.6190 C.3   184  GLU184      0.1567
     48  C          3.1290  -11.2010   21.2590 C.2   184  GLU184      0.2260
     49  O          2.5020  -12.0800   20.7050 O.2   184  GLU184     -0.2867
     50  CB         2.4190   -8.8440   21.1380 C.3   184  GLU184      0.0388
     51  CG         2.6090   -7.4530   20.5280 C.3   184  GLU184      0.1160
     52  CD         3.9930   -6.9510   20.7410 C.2   184  GLU184      0.3649
     53  OE1        4.7120   -6.6470   19.7010 O.co2 184  GLU184     -0.2457
     54  OE2        4.5050   -6.8910   21.8700 O.co2 184  GLU184     -0.2457
     55  N          0.1700   -4.1130   21.0490 N.3   190  SER190     -0.1217
     56  CA         1.1300   -3.2870   21.7450 C.3   190  SER190      0.1889
     57  C          0.8590   -1.8240   21.4640 C.2   190  SER190      0.2288
     58  O          0.2890   -1.4890   20.4110 O.2   190  SER190     -0.2866
     59  CB         2.5850   -3.6200   21.5450 C.3   190  SER190      0.2089
     60  OG         2.9250   -3.4110   20.1590 O.3   190  SER190     -0.2183
     61  N          3.2400    1.8290   21.6590 N.3   192  ASN192     -0.1240
     62  CA         4.5900    2.3110   21.7810 C.3   192  ASN192      0.1653
     63  C          4.6270    3.8000   21.6210 C.2   192  ASN192      0.2266
     64  O          4.1320    4.3130   20.5660 O.2   192  ASN192     -0.2867
     65  CB         5.4420    1.6170   20.6900 C.3   192  ASN192      0.1155
     66  CG         6.8340    1.9620   20.6750 C.2   192  ASN192      0.2627
     67  OD1        7.2390    3.1250   20.5530 O.2   192  ASN192     -0.2716
     68  ND2        7.6630    0.8940   20.7320 N.am  192  ASN192     -0.0877
     69  N         12.1340    6.0060   14.5950 N.3   200  LYS200     -0.1245
     70  CA        12.0740    4.5320   14.5620 C.3   200  LYS200      0.1561
     71  C         11.3040    4.1590   13.3120 C.2   200  LYS200      0.2260
     72  O         10.1350    4.5720   13.1660 O.2   200  LYS200     -0.2867
     73  CB        11.3960    4.0610   15.8270 C.3   200  LYS200      0.0271
     74  CG        11.4130    2.5590   16.1310 C.3   200  LYS200      0.0035
     75  CD        10.5440    2.1810   17.3490 C.3   200  LYS200      0.0206
     76  CE        11.0140    2.6540   18.7170 C.3   200  LYS200      0.1093
     77  NZ        12.2150    1.9220   19.1920 N.3   200  LYS200     -0.1314
     78  N          9.4080    1.2950   11.1370 N.3   202  TRP202     -0.1241
     79  CA         8.6330    0.0770   11.3210 C.3   202  TRP202      0.1605
     80  C          8.2870   -0.5590   10.0280 C.2   202  TRP202      0.2264
     81  O          7.8920    0.1450    9.0370 O.2   202  TRP202     -0.2867
     82  CB         7.3190    0.3650   12.0350 C.3   202  TRP202      0.0550
     83  CG         7.3640    0.9650   13.3850 C.ar  202  TRP202      0.0003
     84  CD1        7.7800    2.2320   13.7350 C.ar  202  TRP202      0.0946
     85  CD2        7.0060    0.3290   14.6310 C.ar  202  TRP202      0.0152
     86  NE1        7.7080    2.3950   15.0790 N.ar  202  TRP202     -0.2442
     87  CE2        7.1910    1.2620   15.6470 C.ar  202  TRP202      0.0810
     88  CE3        6.4410   -0.9340   14.9700 C.ar  202  TRP202      0.0012
     89  CZ2        6.9140    1.0010   16.9930 C.ar  202  TRP202      0.0191
     90  CZ3        6.1230   -1.1760   16.2890 C.ar  202  TRP202      0.0001
     91  CH2        6.3900   -0.2300   17.2750 C.ar  202  TRP202      0.0015
     92  N          5.7650   -7.4170   13.0270 N.3   270  HIS270     -0.1241
     93  CA         6.4800   -6.1530   12.8270 C.3   270  HIS270      0.1621
     94  C          7.9550   -6.3450   13.1420 C.2   270  HIS270      0.2264
     95  O          8.3460   -7.2360   13.8940 O.2   270  HIS270     -0.2867
     96  CB         5.8480   -5.0300   13.6460 C.3   270  HIS270      0.0745
     97  CG         5.6890   -5.3010   15.0870 C.ar  270  HIS270      0.0817
     98  ND1        4.6800   -6.1140   15.5500 N.ar  270  HIS270     -0.2268
     99  CD2        6.3460   -4.8520   16.1730 C.ar  270  HIS270      0.1154
    100  CE1        4.7990   -6.1850   16.8620 C.ar  270  HIS270      0.1986
    101  NE2        5.7750   -5.4400   17.2690 N.ar  270  HIS270     -0.2212
    102  N          6.7730    1.1380   25.8910 N.3   282  ALA282     -0.1245
    103  CA         5.7540    0.2980   25.2500 C.3   282  ALA282      0.1562
    104  C          5.1560   -0.6560   26.2670 C.2   282  ALA282      0.2260
    105  O          5.7690   -0.9850   27.3230 O.2   282  ALA282     -0.2867
    106  CB         6.3480   -0.4610   24.1290 C.3   282  ALA282      0.0290
@<TRIPOS>BOND
     1    81    80    2
     2    80    79    1
     3    78    79    1
     4    79    82    1
     5    82    83    1
     6    93    92    1
     7    93    94    1
     8    93    96    1
     9    94    95    2
    10    72    71    2
    11    71    70    1
    12    83    84   ar
    13    83    85   ar
    14    96    97    1
    15    84    86   ar
    16    28    27    2
    17    70    69    1
    18    70    73    1
    19    85    88   ar
    20    85    87   ar
    21    36    37    1
    22    88    90   ar
    23    86    87   ar
    24    97    98   ar
    25    97    99   ar
    26    35    34   ar
    27    35    33   ar
    28    39    38    2
    29    34    32   ar
    30    27    26    1
    31    98   100   ar
    32    87    89   ar
    33    33    31   ar
    34    37    38    1
    35    37    40    1
    36    73    74    1
    37    32    30   ar
    38    25    26    1
    39    74    75    1
    40    99   101   ar
    41    90    91   ar
    42    31    30   ar
    43    30    29    1
    44    26    29    1
    45   100   101   ar
    46    89    91   ar
    47    40    41    1
    48    42    41   ar
    49    42    44   ar
    50    75    76    1
    51    41    43   ar
    52    44    45   ar
    53    43    45   ar
    54    76    77    1
    55    46    47    1
    56    53    52   ar
    57    60    59    1
    58    12    11    1
    59    10     8   ar
    60    10    11   ar
    61    58    57    2
    62    51    52    1
    63    51    50    1
    64    67    66    2
    65    64    63    2
    66    47    50    1
    67    47    48    1
    68     8     6   ar
    69    66    65    1
    70    66    68   am
    71    65    62    1
    72    49    48    2
    73    11     9   ar
    74    52    54   ar
    75    55    56    1
    76    57    56    1
    77     6     7   ar
    78     6     5    1
    79     9     7   ar
    80    59    56    1
    81    63    62    1
    82    61    62    1
    83     5     2    1
    84     1     2    1
    85     2     3    1
    86    20    18   ar
    87    20    22   ar
    88    17    18    1
    89    17    14    1
    90   106   103    1
    91     3     4    2
    92    18    19   ar
    93    22    23   ar
    94    16    15    2
    95    19    21   ar
    96    23    21   ar
    97    23    24    1
    98    15    14    1
    99    14    13    1
   100   103   102    1
   101   103   104    1
   102   104   105    2
