@<TRIPOS>MOLECULE
tmp/5pntA00.pdb
 104 103 0 0 0
SMALL
GASTEIGER

@<TRIPOS>ATOM
      1  N          5.1070    9.7360    8.1220 N.3    12  CYS12      -0.1221
      2  CA         5.5230    9.5620    6.7200 C.3    12  CYS12       0.1808
      3  C          5.6310   10.9720    6.1080 C.2    12  CYS12       0.2601
      4  O          5.4780   11.9750    6.8230 O.2    12  CYS12      -0.2717
      5  CB         4.6350    8.5790    5.9000 C.3    12  CYS12       0.0970
      6  SG         2.8900    8.9800    5.5970 S.3    12  CYS12      -0.0800
      7  N          5.9530   11.0710    4.8210 N.am   13  LEU13      -0.1965
      8  CA         6.1050   12.3770    4.1890 C.3    13  LEU13       0.1728
      9  C          4.8340   13.2010    4.0840 C.2    13  LEU13       0.2617
     10  O          4.8390   14.3760    4.4470 O.2    13  LEU13      -0.2715
     11  CB         6.7690   12.2330    2.8170 C.3    13  LEU13       0.0311
     12  CG         6.8480   13.4580    1.8940 C.3    13  LEU13       0.0022
     13  CD1        7.6100   14.6120    2.5210 C.3    13  LEU13       0.0001
     14  CD2        7.5220   13.0450    0.6070 C.3    13  LEU13       0.0001
     15  N          3.7400   12.5950    3.6350 N.am   14  GLY14      -0.1940
     16  CA         2.5210   13.3660    3.4880 C.3    14  GLY14       0.2014
     17  C          1.3650   13.0450    4.4120 C.2    14  GLY14       0.2639
     18  O          0.3920   13.7990    4.4680 O.2    14  GLY14      -0.2714
     19  N          1.4650   11.9290    5.1240 N.am   15  ASN15      -0.1958
     20  CA         0.4280   11.4910    6.0520 C.3    15  ASN15       0.1819
     21  C         -0.8680   11.1640    5.3250 C.2    15  ASN15       0.2621
     22  O         -1.9570   11.4280    5.8490 O.2    15  ASN15      -0.2715
     23  CB         0.1880   12.5360    7.1720 C.3    15  ASN15       0.1195
     24  CG        -0.7060   12.0110    8.3060 C.2    15  ASN15       0.2630
     25  OD1       -1.5050   12.7550    8.8770 O.2    15  ASN15      -0.2716
     26  ND2       -0.5760   10.7280    8.6260 N.am   15  ASN15      -0.0877
     27  N         -0.7540   10.6330    4.1000 N.am   16  ILE16      -0.1963
     28  CA        -1.9420   10.2240    3.3510 C.3    16  ILE16       0.1727
     29  C         -1.9110    8.7730    2.8810 C.2    16  ILE16       0.2616
     30  O         -2.9630    8.1370    2.7650 O.2    16  ILE16      -0.2715
     31  CB        -2.2680   11.1370    2.1300 C.3    16  ILE16       0.0290
     32  CG1       -1.0840   11.2130    1.1680 C.3    16  ILE16       0.0022
     33  CG2       -2.7640   12.5140    2.6030 C.3    16  ILE16       0.0023
     34  CD1       -1.4980   11.6190   -0.2770 C.3    16  ILE16       0.0001
     35  N         -0.7310    8.2320    2.6070 N.am   17  CYS17      -0.1954
     36  CA        -0.6610    6.8510    2.1410 C.3    17  CYS17       0.1843
     37  C         -0.2300    5.8370    3.2070 C.2    17  CYS17       0.2625
     38  O         -0.9960    4.9460    3.5800 O.2    17  CYS17      -0.2714
     39  CB         0.2740    6.7360    0.9320 C.3    17  CYS17       0.0997
     40  SG        -0.2250    7.6510   -0.5580 S.3    17  CYS17      -0.0797
     41  N          0.9730    6.0170    3.7320 N.am   18  ARG18      -0.1977
     42  CA         1.5520    5.0950    4.6960 C.3    18  ARG18       0.1597
     43  C          1.1510    5.1610    6.1700 C.2    18  ARG18       0.2287
     44  O          0.6010    4.2040    6.7120 O.2    18  ARG18      -0.2864
     45  CB         3.0700    5.1730    4.5780 C.3    18  ARG18       0.0334
     46  CG         3.5920    4.5610    3.2810 C.3    18  ARG18       0.0492
     47  CD         5.0580    4.8430    3.0680 C.3    18  ARG18       0.2205
     48  NE         5.2930    6.2590    2.7810 N.pl3  18  ARG18      -0.0865
     49  CZ         6.4980    6.7880    2.6000 C.cat  18  ARG18       0.5346
     50  NH1        7.5720    6.0180    2.6720 N.pl3  18  ARG18       0.1354
     51  NH2        6.6260    8.0780    2.3570 N.pl3  18  ARG18       0.1354
     52  N          2.5750   19.2310    2.5720 N.3    49  TYR49      -0.1227
     53  CA         1.9770   18.9020    1.2730 C.3    49  TYR49       0.1736
     54  C          0.5010   18.5450    1.1940 C.2    49  TYR49       0.2595
     55  O         -0.1730   18.9440    0.2480 O.2    49  TYR49      -0.2718
     56  CB         2.7540   17.7690    0.5800 C.3    49  TYR49       0.0548
     57  CG         3.9180   18.2720   -0.2310 C.ar   49  TYR49      -0.0200
     58  CD1        3.7100   19.1200   -1.3080 C.ar   49  TYR49      -0.0009
     59  CD2        5.2340   17.9970    0.1460 C.ar   49  TYR49      -0.0009
     60  CE1        4.7690   19.6910   -1.9860 C.ar   49  TYR49       0.0417
     61  CE2        6.3090   18.5650   -0.5290 C.ar   49  TYR49       0.0417
     62  CZ         6.0660   19.4180   -1.5880 C.ar   49  TYR49       0.1957
     63  OH         7.1100   20.0490   -2.2230 O.3    49  TYR49      -0.2866
     64  N          0.0110   17.7790    2.1590 N.am   50  GLU50      -0.1979
     65  CA        -1.3650   17.2940    2.1340 C.3    50  GLU50       0.1602
     66  C         -2.2400   17.6430    3.3240 C.2    50  GLU50       0.2287
     67  O         -3.2640   16.9780    3.5600 O.2    50  GLU50      -0.2864
     68  CB        -1.3210   15.7650    2.0160 C.3    50  GLU50       0.0415
     69  CG        -0.6310   15.2460    0.7810 C.3    50  GLU50       0.1163
     70  CD        -1.4830   15.3960   -0.4680 C.2    50  GLU50       0.3649
     71  OE1       -2.7280   15.4190   -0.3720 O.co2  50  GLU50      -0.2457
     72  OE2       -0.8990   15.4730   -1.5580 O.co2  50  GLU50      -0.2457
     73  N          7.0400    4.4480   -0.2920 N.3   129  ASP129     -0.1239
     74  CA         5.9310    5.2700   -0.7570 C.3   129  ASP129      0.1674
     75  C          5.2180    4.5860   -1.9110 C.2   129  ASP129      0.2266
     76  O          5.8160    4.3730   -2.9650 O.2   129  ASP129     -0.2867
     77  CB         6.4860    6.6100   -1.2480 C.3   129  ASP129      0.1410
     78  CG         5.4050    7.6210   -1.5690 C.2   129  ASP129      0.3668
     79  OD1        4.2130    7.2660   -1.6590 O.co2 129  ASP129     -0.2456
     80  OD2        5.7520    8.8020   -1.7000 O.co2 129  ASP129     -0.2456
     81  N          2.4860    5.8790   -3.5060 N.3   131  TYR131     -0.1227
     82  CA         1.7600    6.8810   -4.2550 C.3   131  TYR131      0.1736
     83  C          1.7590    6.7100   -5.7780 C.2   131  TYR131      0.2595
     84  O          0.6900    6.7370   -6.3990 O.2   131  TYR131     -0.2718
     85  CB         2.2600    8.2740   -3.8940 C.3   131  TYR131      0.0548
     86  CG         1.3950    9.3620   -4.4530 C.ar  131  TYR131     -0.0200
     87  CD1        0.1570    9.6590   -3.8860 C.ar  131  TYR131     -0.0009
     88  CD2        1.8030   10.0870   -5.5700 C.ar  131  TYR131     -0.0009
     89  CE1       -0.6520   10.6580   -4.4210 C.ar  131  TYR131      0.0417
     90  CE2        1.0040   11.0870   -6.1170 C.ar  131  TYR131      0.0417
     91  CZ        -0.2200   11.3690   -5.5440 C.ar  131  TYR131      0.1957
     92  OH        -0.9980   12.3530   -6.1170 O.3   131  TYR131     -0.2866
     93  N          2.9440    6.5760   -6.3700 N.am  132  TYR132     -0.1976
     94  CA         3.0850    6.4100   -7.8140 C.3   132  TYR132      0.1639
     95  C          2.9610    4.9680   -8.2550 C.2   132  TYR132      0.2290
     96  O          3.2370    4.6420   -9.4070 O.2   132  TYR132     -0.2864
     97  CB         4.4050    6.9990   -8.3060 C.3   132  TYR132      0.0560
     98  CG         4.3850    8.4880   -8.2710 C.ar  132  TYR132     -0.0198
     99  CD1        3.5700    9.1970   -9.1440 C.ar  132  TYR132     -0.0009
    100  CD2        5.1060    9.1950   -7.3040 C.ar  132  TYR132     -0.0009
    101  CE1        3.4600   10.5800   -9.0620 C.ar  132  TYR132      0.0417
    102  CE2        5.0070   10.5830   -7.2080 C.ar  132  TYR132      0.0417
    103  CZ         4.1750   11.2640   -8.0910 C.ar  132  TYR132      0.1957
    104  OH         4.0310   12.6180   -8.0070 O.3   132  TYR132     -0.2866
@<TRIPOS>BOND
     1    96    95    2
     2    99   101   ar
     3    99    98   ar
     4   101   103   ar
     5    97    98    1
     6    97    94    1
     7    98   100   ar
     8    95    94    1
     9   103   104    1
    10   103   102   ar
    11    94    93    1
    12   100   102   ar
    13    84    83    2
    14    93    83   am
    15    92    91    1
    16    90    88   ar
    17    90    91   ar
    18    83    82    1
    19    88    86   ar
    20    91    89   ar
    21    86    85    1
    22    86    87   ar
    23    89    87   ar
    24    82    85    1
    25    82    81    1
    26    76    75    2
    27    63    62    1
    28    60    62   ar
    29    60    58   ar
    30    75    74    1
    31    80    78   ar
    32    79    78   ar
    33    62    61   ar
    34    78    77    1
    35    72    70   ar
    36    58    57   ar
    37    77    74    1
    38    74    73    1
    39    40    39    1
    40    61    59   ar
    41    70    71   ar
    42    70    69    1
    43    34    32    1
    44    57    59   ar
    45    57    56    1
    46    55    54    2
    47    56    53    1
    48    14    12    1
    49    69    68    1
    50    39    36    1
    51    32    31    1
    52    54    53    1
    53    54    64   am
    54    53    52    1
    55    12    13    1
    56    12    11    1
    57    68    65    1
    58    31    33    1
    59    31    28    1
    60    65    64    1
    61    65    66    1
    62    36    35    1
    63    36    37    1
    64    51    49    1
    65    49    50    1
    66    49    48    2
    67    35    29   am
    68    30    29    2
    69    48    47    1
    70    11     8    1
    71    29    28    1
    72    47    46    1
    73    37    38    2
    74    37    41   am
    75    46    45    1
    76    66    67    2
    77    28    27    1
    78    16    15    1
    79    16    17    1
    80    15     9   am
    81    41    42    1
    82     9     8    1
    83     9    10    2
    84    27    21   am
    85     8     7    1
    86    17    18    2
    87    17    19   am
    88    45    42    1
    89    42    43    1
    90     7     3   am
    91    19    20    1
    92    21    22    2
    93    21    20    1
    94     6     5    1
    95     5     2    1
    96    20    23    1
    97     3     2    1
    98     3     4    2
    99    43    44    2
   100     2     1    1
   101    23    24    1
   102    24    26   am
   103    24    25    2
