@<TRIPOS>MOLECULE
tmp/5pnxA00.pdb
 111 107 0 0 0
SMALL
GASTEIGER

@<TRIPOS>ATOM
      1  N         -2.0840    7.3020   -3.8330 N.3    33  ILE33      -0.1231
      2  CA        -3.2030    7.9150   -3.1420 C.3    33  ILE33       0.1692
      3  C         -3.0510    7.8140   -1.6160 C.2    33  ILE33       0.2592
      4  O         -3.4720    8.7200   -0.8790 O.2    33  ILE33      -0.2718
      5  CB        -4.5030    7.2720   -3.6440 C.3    33  ILE33       0.0266
      6  CG1       -4.7660    7.7450   -5.0840 C.3    33  ILE33       0.0019
      7  CG2       -5.6840    7.5470   -2.7040 C.3    33  ILE33       0.0020
      8  CD1       -5.8490    6.9530   -5.8140 C.3    33  ILE33       0.0001
      9  N         -2.3880    6.7550   -1.1460 N.am   34  PHE34      -0.1976
     10  CA        -2.2900    6.4920    0.2990 C.3    34  PHE34       0.1639
     11  C         -0.8850    6.7050    0.8680 C.2    34  PHE34       0.2290
     12  O         -0.5830    6.3400    2.0160 O.2    34  PHE34      -0.2864
     13  CB        -2.7770    5.0760    0.5820 C.3    34  PHE34       0.0560
     14  CG        -4.1310    4.8110    0.0310 C.ar   34  PHE34      -0.0200
     15  CD1       -5.2420    5.3890    0.6250 C.ar   34  PHE34      -0.0042
     16  CD2       -4.3020    4.0340   -1.1070 C.ar   34  PHE34      -0.0042
     17  CE1       -6.5060    5.1650    0.1170 C.ar   34  PHE34      -0.0003
     18  CE2       -5.5660    3.8130   -1.6250 C.ar   34  PHE34      -0.0003
     19  CZ        -6.6700    4.3790   -1.0120 C.ar   34  PHE34      -0.0000
     20  N          0.7920    9.4710    1.7210 N.3    36  GLN36      -0.1231
     21  CA         1.0180   10.5370    2.6930 C.3    36  GLN36       0.1683
     22  C         -0.2430   10.8430    3.4970 C.2    36  GLN36       0.2434
     23  O         -1.3400   10.5340    3.0490 O.2    36  GLN36      -0.2733
     24  CB         1.4730   11.8120    1.9680 C.3    36  GLN36       0.0380
     25  CG         2.7920   11.6820    1.2240 C.3    36  GLN36       0.0905
     26  CD         3.9710   11.5300    2.1620 C.2    36  GLN36       0.2608
     27  OE1        3.9630   12.0470    3.2800 O.2    36  GLN36      -0.2717
     28  NE2        5.0070   10.8330    1.7010 N.am   36  GLN36      -0.0878
     29  N         -0.0950   11.4760    4.6730 N.am   37  PRO37      -0.2718
     30  CA        -1.2920   11.8780    5.4250 C.3    37  PRO37       0.1535
     31  C         -2.1930   12.7920    4.6130 C.2    37  PRO37       0.2598
     32  O         -1.7010   13.5930    3.8090 O.2    37  PRO37      -0.2715
     33  CB        -0.7290   12.6360    6.6300 C.3    37  PRO37       0.0310
     34  CG         0.6760   12.2160    6.7440 C.3    37  PRO37       0.0237
     35  CD         1.1460   11.8320    5.3800 C.3    37  PRO37       0.0939
     36  N         -3.4960   12.6660    4.8080 N.am   38  VAL38      -0.1978
     37  CA        -4.4210   13.6400    4.2590 C.3    38  VAL38       0.1596
     38  C         -4.0560   15.0090    4.8310 C.2    38  VAL38       0.2287
     39  O         -3.8590   15.1590    6.0430 O.2    38  VAL38      -0.2864
     40  CB        -5.8770   13.2880    4.5870 C.3    38  VAL38       0.0276
     41  CG1       -6.7910   14.4230    4.1780 C.3    38  VAL38       0.0022
     42  CG2       -6.2870   11.9830    3.8940 C.3    38  VAL38       0.0022
     43  N        -11.1640   17.2880    8.0880 N.3    46  TYR46      -0.1241
     44  CA       -10.9300   15.8400    8.0360 C.3    46  TYR46       0.1605
     45  C        -11.0570   15.1540    9.4040 C.2    46  TYR46       0.2264
     46  O        -11.6700   14.0800    9.5060 O.2    46  TYR46      -0.2867
     47  CB        -9.5500   15.5410    7.4180 C.3    46  TYR46       0.0534
     48  CG        -9.3280   14.0700    7.0850 C.ar   46  TYR46      -0.0201
     49  CD1      -10.0890   13.4360    6.1130 C.ar   46  TYR46      -0.0009
     50  CD2       -8.3540   13.3320    7.7360 C.ar   46  TYR46      -0.0009
     51  CE1       -9.8910   12.0990    5.8040 C.ar   46  TYR46       0.0417
     52  CE2       -8.1450   11.9860    7.4320 C.ar   46  TYR46       0.0417
     53  CZ        -8.9140   11.3820    6.4670 C.ar   46  TYR46       0.1957
     54  OH        -8.7350   10.0510    6.1450 O.3    46  TYR46      -0.2866
     55  N         -4.4620    7.5230    8.9940 N.3    54  MET54      -0.1230
     56  CA        -3.2960    6.6810    8.7610 C.3    54  MET54       0.1702
     57  C         -2.9020    6.7580    7.2860 C.2    54  MET54       0.2592
     58  O         -3.7260    7.0830    6.4260 O.2    54  MET54      -0.2718
     59  CB        -3.5750    5.2340    9.1910 C.3    54  MET54       0.0401
     60  CG        -2.3380    4.3060    9.2180 C.3    54  MET54       0.0596
     61  SD        -0.8710    4.9380   10.0710 S.3    54  MET54      -0.1393
     62  CE        -1.5670    5.3500   11.6760 C.3    54  MET54       0.0692
     63  N         -1.6340    6.4660    7.0110 N.am   55  ASP55      -0.1974
     64  CA        -1.1040    6.5070    5.6490 C.3    55  ASP55       0.1709
     65  C          0.1950    5.6990    5.6140 C.2    55  ASP55       0.2293
     66  O          0.7190    5.3440    6.6710 O.2    55  ASP55      -0.2864
     67  CB        -0.8420    7.9420    5.2300 C.3    55  ASP55       0.1436
     68  CG         0.2110    8.5750    6.0850 C.2    55  ASP55       0.3671
     69  OD1       -0.1340    9.0940    7.1730 O.co2  55  ASP55      -0.2456
     70  OD2        1.3990    8.5080    5.6930 O.co2  55  ASP55      -0.2456
     71  N         -6.0220    2.6860    6.9180 N.3    81  ILE81      -0.1245
     72  CA        -5.8550    3.4060    5.6600 C.3    81  ILE81       0.1561
     73  C         -7.0750    3.1700    4.7640 C.2    81  ILE81       0.2260
     74  O         -7.6990    4.1160    4.2550 O.2    81  ILE81      -0.2867
     75  CB        -4.5750    2.9800    4.9240 C.3    81  ILE81       0.0252
     76  CG1       -3.3330    3.4140    5.7140 C.3    81  ILE81       0.0019
     77  CG2       -4.5510    3.5750    3.5240 C.3    81  ILE81       0.0019
     78  CD1       -2.0100    2.9470    5.1220 C.3    81  ILE81       0.0001
     79  N        -10.6820    4.2580    6.5680 N.3    84  ASN84      -0.1225
     80  CA       -10.8580    5.7140    6.6420 C.3    84  ASN84       0.1785
     81  C        -11.3070    6.2320    5.2830 C.2    84  ASN84       0.2597
     82  O        -12.2500    7.0070    5.1670 O.2    84  ASN84      -0.2718
     83  CB        -9.5730    6.4290    7.0550 C.3    84  ASN84       0.1169
     84  CG        -9.2170    6.2110    8.5130 C.2    84  ASN84       0.2627
     85  OD1      -10.0380    5.7490    9.3100 O.2    84  ASN84      -0.2716
     86  ND2       -7.9820    6.5250    8.8600 N.am   84  ASN84      -0.0877
     87  N        -10.6190    5.7650    4.2480 N.am   85  CYS85      -0.1970
     88  CA       -10.8990    6.2120    2.8920 C.3    85  CYS85       0.1712
     89  C        -12.3150    5.8510    2.4460 C.2    85  CYS85       0.2296
     90  O        -12.9960    6.6590    1.7970 O.2    85  CYS85      -0.2864
     91  CB        -9.8690    5.5990    1.9410 C.3    85  CYS85       0.0983
     92  SG       -10.0490    6.1470    0.2300 S.3    85  CYS85      -0.0798
     93  N        -14.8840    9.0320    1.6180 N.3    89  ASN89      -0.1240
     94  CA       -15.1610    9.1760    0.1890 C.3    89  ASN89       0.1653
     95  C        -16.3140    8.2940   -0.2600 C.2    89  ASN89       0.2266
     96  O        -16.4730    7.1710    0.2370 O.2    89  ASN89      -0.2867
     97  CB       -13.9080    8.8410   -0.6240 C.3    89  ASN89       0.1155
     98  CG       -12.7130    9.6690   -0.2230 C.2    89  ASN89       0.2627
     99  OD1      -11.7850    9.1910    0.4410 O.2    89  ASN89      -0.2716
    100  ND2      -12.7210   10.9160   -0.6260 N.am   89  ASN89      -0.0877
    101  N        -10.9360    7.6670   -5.1570 N.3    95  PHE95      -0.1241
    102  CA       -10.3450    7.3680   -3.8540 C.3    95  PHE95       0.1605
    103  C        -10.9220    6.0890   -3.2600 C.2    95  PHE95       0.2264
    104  O        -10.1820    5.1970   -2.8420 O.2    95  PHE95      -0.2867
    105  CB       -10.5630    8.5290   -2.8860 C.3    95  PHE95       0.0534
    106  CG       -10.1440    9.8560   -3.4320 C.ar   95  PHE95      -0.0203
    107  CD1       -8.8000   10.1600   -3.5740 C.ar   95  PHE95      -0.0042
    108  CD2      -11.0880   10.8030   -3.7960 C.ar   95  PHE95      -0.0042
    109  CE1       -8.4000   11.3800   -4.0730 C.ar   95  PHE95      -0.0003
    110  CE2      -10.6960   12.0380   -4.2990 C.ar   95  PHE95      -0.0003
    111  CZ        -9.3470   12.3230   -4.4440 C.ar   95  PHE95      -0.0000
@<TRIPOS>BOND
     1     8     6    1
     2   101   102    1
     3     6     5    1
     4   111   110   ar
     5   111   109   ar
     6   110   108   ar
     7   109   107   ar
     8   102   103    1
     9   102   105    1
    10     1     2    1
    11   108   106   ar
    12     5     2    1
    13     5     7    1
    14   107   106   ar
    15   106   105    1
    16   103   104    2
    17     2     3    1
    18    18    16   ar
    19    18    19   ar
    20     3     9   am
    21     3     4    2
    22     9    10    1
    23    16    14   ar
    24    19    17   ar
    25   100    98   am
    26    97    98    1
    27    97    94    1
    28    95    94    1
    29    95    96    2
    30    98    99    2
    31    14    13    1
    32    14    15   ar
    33    17    15   ar
    34    94    93    1
    35    92    91    1
    36    10    13    1
    37    10    11    1
    38    11    12    2
    39    25    24    1
    40    25    26    1
    41    28    26   am
    42    20    21    1
    43    90    89    2
    44    91    88    1
    45    24    21    1
    46    26    27    2
    47    89    88    1
    48    21    22    1
    49    88    87    1
    50    23    22    2
    51    22    29   am
    52    77    75    1
    53    32    31    2
    54    42    40    1
    55    41    40    1
    56    87    81   am
    57    74    73    2
    58    37    40    1
    59    37    36    1
    60    37    38    1
    61    31    36   am
    62    31    30    1
    63    29    35    1
    64    29    30    1
    65    73    72    1
    66    38    39    2
    67    75    72    1
    68    75    76    1
    69    78    76    1
    70    82    81    2
    71    67    64    1
    72    67    68    1
    73    81    80    1
    74    35    34    1
    75    30    33    1
    76    65    64    1
    77    65    66    2
    78    64    63    1
    79    72    71    1
    80    70    68   ar
    81    51    49   ar
    82    51    53   ar
    83    68    69   ar
    84    49    48   ar
    85    54    53    1
    86    58    57    2
    87    53    52   ar
    88    79    80    1
    89    33    34    1
    90    80    83    1
    91    63    57   am
    92    83    84    1
    93    48    47    1
    94    48    50   ar
    95    57    56    1
    96    47    44    1
    97    52    50   ar
    98    44    43    1
    99    44    45    1
   100    84    86   am
   101    84    85    2
   102    56    55    1
   103    56    59    1
   104    59    60    1
   105    60    61    1
   106    45    46    2
   107    61    62    1
