@<TRIPOS>MOLECULE
tmp/5pnyB00.pdb
 99 94 0 0 0
SMALL
GASTEIGER

@<TRIPOS>ATOM
      1  N        -18.1320  -14.8470   40.2150 N.3     7  MET7       -0.1245
      2  CA       -18.2850  -14.8540   38.7600 C.3     7  MET7        0.1570
      3  C        -19.7100  -14.5060   38.3430 C.2     7  MET7        0.2261
      4  O        -19.9320  -13.6920   37.4420 O.2     7  MET7       -0.2867
      5  CB       -17.8910  -16.2020   38.1780 C.3     7  MET7        0.0387
      6  CG       -17.3310  -16.0700   36.7710 C.3     7  MET7        0.0595
      7  SD       -16.6110  -17.5720   36.0980 S.3     7  MET7       -0.1393
      8  CE       -15.9780  -18.3830   37.5620 C.3     7  MET7        0.0692
      9  N        -20.1990  -10.8060   38.8060 N.3    10  ARG10      -0.1231
     10  CA       -19.5790  -10.0330   37.7220 C.3    10  ARG10       0.1694
     11  C        -20.4270  -10.1230   36.4440 C.2    10  ARG10       0.2591
     12  O        -20.6080   -9.1270   35.7380 O.2    10  ARG10      -0.2718
     13  CB       -18.1440  -10.5000   37.4810 C.3    10  ARG10       0.0321
     14  CG       -17.2510  -10.1310   38.6520 C.3    10  ARG10       0.0489
     15  CD       -15.7800  -10.2470   38.2980 C.3    10  ARG10       0.2205
     16  NE       -15.4590  -11.5640   37.7760 N.pl3  10  ARG10      -0.0865
     17  CZ       -15.0800  -12.6090   38.5050 C.cat  10  ARG10       0.5346
     18  NH1      -14.9760  -12.5160   39.8250 N.pl3  10  ARG10       0.1354
     19  NH2      -14.8070  -13.7600   37.8970 N.pl3  10  ARG10       0.1354
     20  N        -20.9900  -11.2960   36.1740 N.am   11  LEU11      -0.1980
     21  CA       -21.8940  -11.4540   35.0270 C.3    11  LEU11       0.1596
     22  C        -23.1190  -10.5650   35.1280 C.2    11  LEU11       0.2287
     23  O        -23.4940   -9.8710   34.1600 O.2    11  LEU11      -0.2864
     24  CB       -22.3170  -12.9290   34.8880 C.3    11  LEU11       0.0297
     25  CG       -23.3120  -13.2650   33.7680 C.3    11  LEU11       0.0022
     26  CD1      -23.0930  -14.7110   33.3580 C.3    11  LEU11       0.0001
     27  CD2      -24.7510  -13.0910   34.1960 C.3    11  LEU11       0.0001
     28  N        -22.1340   -6.7570   34.9140 N.3    14  LEU14      -0.1245
     29  CA       -21.8110   -6.3810   33.5240 C.3    14  LEU14       0.1561
     30  C        -23.0890   -6.2400   32.7000 C.2    14  LEU14       0.2260
     31  O        -23.2580   -5.2900   31.9300 O.2    14  LEU14      -0.2867
     32  CB       -20.9080   -7.4100   32.8760 C.3    14  LEU14       0.0270
     33  CG       -20.6040   -7.1570   31.3920 C.3    14  LEU14       0.0019
     34  CD1      -19.8090   -5.8500   31.2680 C.3    14  LEU14       0.0001
     35  CD2      -19.8900   -8.3450   30.7460 C.3    14  LEU14       0.0001
     36  N        -26.9460  -13.3880   26.9940 N.3    66  GLN66      -0.1245
     37  CA       -25.6450  -13.5490   27.6280 C.3    66  GLN66       0.1566
     38  C        -24.4730  -13.7090   26.6460 C.2    66  GLN66       0.2260
     39  O        -23.4890  -14.3660   26.9400 O.2    66  GLN66      -0.2867
     40  CB       -25.6920  -14.7420   28.5980 C.3    66  GLN66       0.0367
     41  CG       -25.0760  -14.4570   29.9520 C.3    66  GLN66       0.0905
     42  CD       -25.7230  -13.2840   30.6370 C.2    66  GLN66       0.2608
     43  OE1      -26.8940  -13.3350   31.0340 O.2    66  GLN66      -0.2717
     44  NE2      -24.9580  -12.2010   30.7930 N.am   66  GLN66      -0.0878
     45  N        -22.4900  -11.1680   25.4460 N.3    68  TYR68      -0.1227
     46  CA       -21.3630  -10.2390   25.6460 C.3    68  TYR68       0.1736
     47  C        -20.5850  -10.6140   26.9070 C.2    68  TYR68       0.2595
     48  O        -21.1420  -10.5370   28.0080 O.2    68  TYR68      -0.2718
     49  CB       -21.8390   -8.7750   25.7570 C.3    68  TYR68       0.0548
     50  CG       -22.3890   -8.1950   24.4590 C.ar   68  TYR68      -0.0200
     51  CD1      -21.5960   -8.1080   23.3210 C.ar   68  TYR68      -0.0009
     52  CD2      -23.6900   -7.7410   24.3830 C.ar   68  TYR68      -0.0009
     53  CE1      -22.1090   -7.5650   22.1260 C.ar   68  TYR68       0.0417
     54  CE2      -24.2030   -7.1830   23.1870 C.ar   68  TYR68       0.0417
     55  CZ       -23.4080   -7.1290   22.0850 C.ar   68  TYR68       0.1957
     56  OH       -23.9270   -6.6200   20.9160 O.3    68  TYR68      -0.2866
     57  N        -19.3260  -11.0020   26.7020 N.am   69  LYS69      -0.1966
     58  CA       -18.4310  -11.4390   27.7830 C.3    69  LYS69       0.1728
     59  C        -17.7400  -10.2690   28.4770 C.2    69  LYS69       0.2616
     60  O        -17.3220  -10.3800   29.6350 O.2    69  LYS69      -0.2715
     61  CB       -17.3510  -12.4020   27.2460 C.3    69  LYS69       0.0311
     62  CG       -17.9080  -13.5960   26.4820 C.3    69  LYS69       0.0038
     63  CD       -18.6380  -14.5660   27.3980 C.3    69  LYS69       0.0206
     64  CE       -19.2620  -15.7190   26.6330 C.3    69  LYS69       0.1093
     65  NZ       -20.5890  -15.3690   26.0550 N.3    69  LYS69      -0.1314
     66  N        -17.5930   -9.1550   27.7630 N.am   70  ASN70      -0.1972
     67  CA       -16.9230   -7.9720   28.2920 C.3    70  ASN70       0.1688
     68  C        -17.3660   -6.7320   27.5350 C.2    70  ASN70       0.2292
     69  O        -18.0580   -6.8450   26.5230 O.2    70  ASN70      -0.2864
     70  CB       -15.3910   -8.1080   28.2220 C.3    70  ASN70       0.1181
     71  CG       -14.9060   -8.4740   26.8400 C.2    70  ASN70       0.2629
     72  OD1      -15.1920   -7.7760   25.8730 O.2    70  ASN70      -0.2716
     73  ND2      -14.1530   -9.5540   26.7390 N.am   70  ASN70      -0.0877
     74  N        -15.2110   -5.4250   37.0570 N.3   122  LEU122     -0.1231
     75  CA       -15.9110   -6.3890   36.2150 C.3   122  LEU122      0.1693
     76  C        -15.0040   -7.2560   35.3480 C.2   122  LEU122      0.2592
     77  O        -15.4750   -8.2350   34.7690 O.2   122  LEU122     -0.2718
     78  CB       -16.9190   -5.6670   35.3250 C.3   122  LEU122      0.0284
     79  CG       -18.1260   -5.0770   36.0500 C.3   122  LEU122      0.0019
     80  CD1      -19.0930   -4.4320   35.0770 C.3   122  LEU122      0.0001
     81  CD2      -18.8220   -6.1830   36.8350 C.3   122  LEU122      0.0001
     82  N        -13.7240   -6.9170   35.2460 N.am  123  GLU123     -0.1966
     83  CA       -12.8160   -7.7540   34.4530 C.3   123  GLU123      0.1733
     84  C        -11.7840   -8.5110   35.3030 C.2   123  GLU123      0.2616
     85  O        -10.7650   -8.9880   34.7870 O.2   123  GLU123     -0.2715
     86  CB       -12.1200   -6.9050   33.3860 C.3   123  GLU123      0.0429
     87  CG       -13.0990   -6.5100   32.2970 C.3   123  GLU123      0.1163
     88  CD       -12.4790   -5.7330   31.1660 C.2   123  GLU123      0.3649
     89  OE1      -13.2610   -5.1820   30.3670 O.co2 123  GLU123     -0.2457
     90  OE2      -11.2320   -5.6660   31.0730 O.co2 123  GLU123     -0.2457
     91  N        -12.0830   -8.6450   36.5950 N.am  124  GLU124     -0.1977
     92  CA       -11.2320   -9.3740   37.5390 C.3   124  GLU124      0.1602
     93  C        -10.8050  -10.7470   37.0160 C.2   124  GLU124      0.2287
     94  O        -11.5320  -11.7320   37.1660 O.2   124  GLU124     -0.2864
     95  CB       -11.9580   -9.5390   38.8770 C.3   124  GLU124      0.0415
     96  CG       -11.1660  -10.2600   39.9250 C.3   124  GLU124      0.1163
     97  CD       -11.7890  -10.3380   41.2840 C.2   124  GLU124      0.3649
     98  OE1      -12.9090   -9.9080   41.4620 O.co2 124  GLU124     -0.2457
     99  OE2      -11.2660  -10.9710   42.2150 O.co2 124  GLU124     -0.2457
@<TRIPOS>BOND
     1    56    55    1
     2    55    53   ar
     3    55    54   ar
     4    53    51   ar
     5    54    52   ar
     6    51    50   ar
     7    52    50   ar
     8    50    49    1
     9    45    46    1
    10    46    49    1
    11    46    47    1
    12    72    71    2
    13    65    64    1
    14    62    61    1
    15    62    63    1
    16    69    68    2
    17    64    63    1
    18    38    39    2
    19    38    37    1
    20    57    47   am
    21    57    58    1
    22    73    71   am
    23    71    70    1
    24    47    48    2
    25    36    37    1
    26    61    58    1
    27    68    67    1
    28    37    40    1
    29    66    67    1
    30    66    59   am
    31    58    59    1
    32    70    67    1
    33    59    60    2
    34    40    41    1
    35    41    42    1
    36    89    88   ar
    37    42    44   am
    38    42    43    2
    39    35    33    1
    40    90    88   ar
    41    88    87    1
    42    34    33    1
    43    33    32    1
    44    31    30    2
    45    87    86    1
    46    30    29    1
    47    32    29    1
    48    26    25    1
    49    86    83    1
    50    29    28    1
    51    25    27    1
    52    25    24    1
    53    23    22    2
    54    83    82    1
    55    83    84    1
    56    77    76    2
    57    85    84    2
    58    24    21    1
    59    21    22    1
    60    21    20    1
    61    80    79    1
    62    82    76   am
    63    84    91   am
    64    78    79    1
    65    78    75    1
    66    76    75    1
    67    12    11    2
    68    79    81    1
    69     7     6    1
    70     7     8    1
    71    20    11   am
    72    75    74    1
    73    11    10    1
    74    91    92    1
    75     6     5    1
    76    93    94    2
    77    93    92    1
    78     4     3    2
    79    13    10    1
    80    13    14    1
    81    92    95    1
    82    10     9    1
    83    16    15    1
    84    16    17    2
    85    19    17    1
    86     5     2    1
    87    15    14    1
    88     3     2    1
    89    17    18    1
    90     2     1    1
    91    95    96    1
    92    96    97    1
    93    97    98   ar
    94    97    99   ar
