@<TRIPOS>MOLECULE
tmp/5pnzB00.pdb
 105 99 0 0 0
SMALL
GASTEIGER

@<TRIPOS>ATOM
      1  N        -18.0610  -14.8140   40.3010 N.3     7  MET7       -0.1245
      2  CA       -18.1630  -14.8270   38.8450 C.3     7  MET7        0.1570
      3  C        -19.5820  -14.5200   38.3730 C.2     7  MET7        0.2261
      4  O        -19.7780  -13.7830   37.4040 O.2     7  MET7       -0.2867
      5  CB       -17.7110  -16.1650   38.2770 C.3     7  MET7        0.0387
      6  CG       -17.3890  -16.0700   36.7990 C.3     7  MET7        0.0595
      7  SD       -16.6900  -17.5660   36.0950 S.3     7  MET7       -0.1393
      8  CE       -15.6060  -18.1220   37.4150 C.3     7  MET7        0.0692
      9  N        -20.1500  -10.7910   38.7580 N.3    10  ARG10      -0.1231
     10  CA       -19.5120   -9.9890   37.7130 C.3    10  ARG10       0.1694
     11  C        -20.2870  -10.1110   36.4000 C.2    10  ARG10       0.2591
     12  O        -20.3870   -9.1500   35.6380 O.2    10  ARG10      -0.2718
     13  CB       -18.0450  -10.4010   37.5310 C.3    10  ARG10       0.0321
     14  CG       -17.1810  -10.0990   38.7500 C.3    10  ARG10       0.0489
     15  CD       -15.6950  -10.2900   38.4610 C.3    10  ARG10       0.2205
     16  NE       -15.3650  -11.6490   38.0470 N.pl3  10  ARG10      -0.0865
     17  CZ       -14.9810  -12.6100   38.8800 C.cat  10  ARG10       0.5346
     18  NH1      -14.8870  -12.3660   40.1790 N.pl3  10  ARG10       0.1354
     19  NH2      -14.6950  -13.8160   38.4120 N.pl3  10  ARG10       0.1354
     20  N        -20.8500  -11.2880   36.1450 N.am   11  LEU11      -0.1980
     21  CA       -21.7050  -11.4870   34.9700 C.3    11  LEU11       0.1596
     22  C        -22.9590  -10.6130   35.0440 C.2    11  LEU11       0.2287
     23  O        -23.3310   -9.9330   34.0660 O.2    11  LEU11      -0.2864
     24  CB       -22.0950  -12.9770   34.8460 C.3    11  LEU11       0.0297
     25  CG       -23.0520  -13.3880   33.7270 C.3    11  LEU11       0.0022
     26  CD1      -22.8050  -14.8280   33.3310 C.3    11  LEU11       0.0001
     27  CD2      -24.5000  -13.2380   34.1470 C.3    11  LEU11       0.0001
     28  N        -22.0580   -6.7970   34.8750 N.3    14  LEU14      -0.1245
     29  CA       -21.7330   -6.4140   33.4940 C.3    14  LEU14       0.1561
     30  C        -23.0040   -6.2770   32.6600 C.2    14  LEU14       0.2260
     31  O        -23.1480   -5.3310   31.8810 O.2    14  LEU14      -0.2867
     32  CB       -20.8030   -7.4370   32.8430 C.3    14  LEU14       0.0270
     33  CG       -20.5230   -7.1630   31.3630 C.3    14  LEU14       0.0019
     34  CD1      -19.7090   -5.8770   31.2190 C.3    14  LEU14       0.0001
     35  CD2      -19.8060   -8.3350   30.6950 C.3    14  LEU14       0.0001
     36  N        -26.8110  -13.4330   26.9700 N.3    66  GLN66      -0.1245
     37  CA       -25.5100  -13.5970   27.6090 C.3    66  GLN66       0.1566
     38  C        -24.3580  -13.7650   26.6030 C.2    66  GLN66       0.2260
     39  O        -23.3900  -14.4610   26.8710 O.2    66  GLN66      -0.2867
     40  CB       -25.5620  -14.7890   28.5770 C.3    66  GLN66       0.0367
     41  CG       -24.9110  -14.5340   29.9230 C.3    66  GLN66       0.0905
     42  CD       -25.4950  -13.3350   30.6240 C.2    66  GLN66       0.2608
     43  OE1      -24.8410  -12.2940   30.7780 O.2    66  GLN66      -0.2717
     44  NE2      -26.7340  -13.4570   31.0470 N.am   66  GLN66      -0.0878
     45  N        -22.3730  -11.2750   25.3350 N.3    68  TYR68      -0.1227
     46  CA       -21.2320  -10.3570   25.5030 C.3    68  TYR68       0.1736
     47  C        -20.3940  -10.7630   26.7140 C.2    68  TYR68       0.2595
     48  O        -20.8800  -10.7150   27.8380 O.2    68  TYR68      -0.2718
     49  CB       -21.7010   -8.8980   25.6600 C.3    68  TYR68       0.0548
     50  CG       -22.2700   -8.2970   24.3870 C.ar   68  TYR68      -0.0200
     51  CD1      -21.4910   -8.1910   23.2440 C.ar   68  TYR68      -0.0009
     52  CD2      -23.5760   -7.8350   24.3370 C.ar   68  TYR68      -0.0009
     53  CE1      -22.0040   -7.6400   22.0670 C.ar   68  TYR68       0.0417
     54  CE2      -24.0940   -7.2720   23.1630 C.ar   68  TYR68       0.0417
     55  CZ       -23.3060   -7.1950   22.0380 C.ar   68  TYR68       0.1957
     56  OH       -23.8340   -6.6640   20.8760 O.3    68  TYR68      -0.2866
     57  N        -19.1390  -11.1410   26.4800 N.am   69  LYS69      -0.1966
     58  CA       -18.2560  -11.5820   27.5720 C.3    69  LYS69       0.1728
     59  C        -17.5950  -10.4220   28.3230 C.2    69  LYS69       0.2616
     60  O        -17.2040  -10.5620   29.4930 O.2    69  LYS69      -0.2715
     61  CB       -17.1690  -12.5170   27.0340 C.3    69  LYS69       0.0311
     62  CG       -17.7060  -13.7030   26.2430 C.3    69  LYS69       0.0038
     63  CD       -18.4350  -14.6960   27.1340 C.3    69  LYS69       0.0206
     64  CE       -19.0380  -15.8420   26.3430 C.3    69  LYS69       0.1093
     65  NZ       -20.3640  -15.4950   25.7570 N.3    69  LYS69      -0.1314
     66  N        -17.4600   -9.2830   27.6510 N.am   70  ASN70      -0.1958
     67  CA       -16.8420   -8.0980   28.2370 C.3    70  ASN70       0.1819
     68  C        -17.3080   -6.8420   27.5080 C.2    70  ASN70       0.2621
     69  O        -18.0030   -6.9380   26.4920 O.2    70  ASN70      -0.2715
     70  CB       -15.3080   -8.1900   28.2000 C.3    70  ASN70       0.1195
     71  CG       -14.7850   -8.5480   26.8280 C.2    70  ASN70       0.2630
     72  OD1      -15.0480   -7.8460   25.8550 O.2    70  ASN70      -0.2716
     73  ND2      -14.0190   -9.6310   26.7450 N.am   70  ASN70      -0.0877
     74  N        -16.9300   -5.6780   28.0220 N.am   71  LEU71      -0.1977
     75  CA       -17.3430   -4.4020   27.4250 C.3    71  LEU71       0.1596
     76  C        -16.7890   -4.2390   26.0240 C.2    71  LEU71       0.2287
     77  O        -17.4550   -3.6920   25.1440 O.2    71  LEU71      -0.2864
     78  CB       -16.8900   -3.2310   28.3030 C.3    71  LEU71       0.0297
     79  CG       -17.1420   -1.8090   27.7980 C.3    71  LEU71       0.0022
     80  CD1      -18.6170   -1.5680   27.5070 C.3    71  LEU71       0.0001
     81  CD2      -16.6680   -0.8220   28.8370 C.3    71  LEU71       0.0001
     82  N        -16.5980   -0.1930   34.7040 N.3   117  VAL117     -0.1245
     83  CA       -15.9790   -1.5200   34.6970 C.3   117  VAL117      0.1561
     84  C        -14.8190   -1.5610   35.6850 C.2   117  VAL117      0.2260
     85  O        -14.6970   -2.4860   36.4840 O.2   117  VAL117     -0.2867
     86  CB       -15.4890   -1.9000   33.2900 C.3   117  VAL117      0.0252
     87  CG1      -14.4670   -3.0420   33.3470 C.3   117  VAL117      0.0019
     88  CG2      -16.6800   -2.2630   32.4170 C.3   117  VAL117      0.0019
     89  N        -15.0420   -5.4300   37.2000 N.3   122  LEU122     -0.1231
     90  CA       -15.6460   -6.4450   36.3390 C.3   122  LEU122      0.1693
     91  C        -14.6260   -7.2540   35.5380 C.2   122  LEU122      0.2591
     92  O        -14.9350   -8.3530   35.0760 O.2   122  LEU122     -0.2718
     93  CB       -16.6540   -5.7840   35.3970 C.3   122  LEU122      0.0284
     94  CG       -17.8610   -5.1770   36.1140 C.3   122  LEU122      0.0019
     95  CD1      -18.8530   -4.5790   35.1310 C.3   122  LEU122      0.0001
     96  CD2      -18.5270   -6.2340   37.0160 C.3   122  LEU122      0.0001
     97  N        -13.4170   -6.7270   35.3730 N.am  123  GLU123     -0.1979
     98  CA       -12.3800   -7.4630   34.6460 C.3   123  GLU123      0.1602
     99  C        -11.2070   -7.8740   35.5400 C.2   123  GLU123      0.2287
    100  O        -10.9200   -7.2320   36.5530 O.2   123  GLU123     -0.2864
    101  CB       -11.8710   -6.6310   33.4700 C.3   123  GLU123      0.0415
    102  CG       -12.9480   -6.3570   32.4410 C.3   123  GLU123      0.1163
    103  CD       -12.4250   -5.6250   31.2320 C.2   123  GLU123      0.3649
    104  OE1      -13.2480   -5.2940   30.3550 O.co2 123  GLU123     -0.2457
    105  OE2      -11.1990   -5.3830   31.1590 O.co2 123  GLU123     -0.2457
@<TRIPOS>BOND
     1    56    55    1
     2    55    53   ar
     3    55    54   ar
     4    53    51   ar
     5    54    52   ar
     6    51    50   ar
     7    52    50   ar
     8    50    49    1
     9    77    76    2
    10    45    46    1
    11    46    49    1
    12    46    47    1
    13    65    64    1
    14    72    71    2
    15    76    75    1
    16    62    61    1
    17    62    63    1
    18    64    63    1
    19    57    47   am
    20    57    58    1
    21    69    68    2
    22    38    39    2
    23    38    37    1
    24    47    48    2
    25    73    71   am
    26    71    70    1
    27    36    37    1
    28    61    58    1
    29    75    74    1
    30    75    78    1
    31    80    79    1
    32    68    74   am
    33    68    67    1
    34    58    59    1
    35    37    40    1
    36    66    67    1
    37    66    59   am
    38    79    78    1
    39    79    81    1
    40    70    67    1
    41    59    60    2
    42    40    41    1
    43    41    42    1
    44   104   103   ar
    45    42    43    2
    46    42    44   am
    47    35    33    1
    48   105   103   ar
    49    34    33    1
    50   103   102    1
    51    33    32    1
    52    31    30    2
    53    88    86    1
    54   102   101    1
    55    30    29    1
    56    32    29    1
    57    86    87    1
    58    86    83    1
    59    26    25    1
    60   101    98    1
    61    29    28    1
    62    25    27    1
    63    25    24    1
    64    23    22    2
    65    98    97    1
    66    98    99    1
    67    83    82    1
    68    83    84    1
    69    24    21    1
    70    21    22    1
    71    21    20    1
    72    92    91    2
    73    95    94    1
    74    97    91   am
    75    93    94    1
    76    93    90    1
    77    91    90    1
    78    99   100    2
    79    12    11    2
    80    84    85    2
    81     7     6    1
    82     7     8    1
    83    94    96    1
    84    20    11   am
    85    90    89    1
    86    11    10    1
    87     6     5    1
    88     4     3    2
    89    13    10    1
    90    13    14    1
    91    10     9    1
    92    16    15    1
    93    16    17    2
    94     5     2    1
    95     3     2    1
    96    19    17    1
    97    15    14    1
    98     2     1    1
    99    17    18    1
