@<TRIPOS>MOLECULE
tmp/5po0A00.pdb
 113 109 0 0 0
SMALL
GASTEIGER

@<TRIPOS>ATOM
      1  N         -1.2970    4.7510   -7.6270 N.3    31  ALA31      -0.1231
      2  CA        -1.6810    6.1580   -7.7200 C.3    31  ALA31       0.1694
      3  C         -1.1010    7.0110   -6.5780 C.2    31  ALA31       0.2592
      4  O         -1.1980    8.2340   -6.6030 O.2    31  ALA31      -0.2718
      5  CB        -3.1990    6.2760   -7.7460 C.3    31  ALA31       0.0304
      6  N         -0.5050    6.3520   -5.5800 N.am   32  ARG32      -0.1966
      7  CA         0.0260    7.0100   -4.3740 C.3    32  ARG32       0.1729
      8  C         -1.0510    7.7930   -3.6160 C.2    32  ARG32       0.2616
      9  O         -0.7930    8.8300   -2.9960 O.2    32  ARG32      -0.2715
     10  CB         1.2270    7.9050   -4.7150 C.3    32  ARG32       0.0348
     11  CG         2.4080    7.1010   -5.2730 C.3    32  ARG32       0.0492
     12  CD         3.7040    7.9060   -5.2870 C.3    32  ARG32       0.2205
     13  NE         4.2690    8.0800   -3.9550 N.pl3  32  ARG32      -0.0865
     14  CZ         5.0050    7.1730   -3.3200 C.cat  32  ARG32       0.5346
     15  NH1        5.4690    7.4330   -2.1050 N.pl3  32  ARG32       0.1354
     16  NH2        5.2740    6.0040   -3.8960 N.pl3  32  ARG32       0.1354
     17  N         -2.2630    7.2510   -3.6290 N.am   33  ILE33      -0.1963
     18  CA        -3.3690    7.8540   -2.9130 C.3    33  ILE33       0.1727
     19  C         -3.1920    7.7290   -1.3990 C.2    33  ILE33       0.2616
     20  O         -3.6820    8.5860   -0.6410 O.2    33  ILE33      -0.2715
     21  CB        -4.6870    7.2250   -3.4000 C.3    33  ILE33       0.0290
     22  CG1       -4.9850    7.7600   -4.8160 C.3    33  ILE33       0.0022
     23  CG2       -5.8470    7.5220   -2.4460 C.3    33  ILE33       0.0023
     24  CD1       -6.0050    6.9600   -5.6040 C.3    33  ILE33       0.0001
     25  N         -2.4300    6.7200   -0.9650 N.am   34  PHE34      -0.1974
     26  CA        -2.2650    6.4550    0.4690 C.3    34  PHE34       0.1639
     27  C         -0.8290    6.6610    0.9450 C.2    34  PHE34       0.2290
     28  O         -0.4600    6.2870    2.0590 O.2    34  PHE34      -0.2864
     29  CB        -2.7500    5.0350    0.7830 C.3    34  PHE34       0.0560
     30  CG        -4.1330    4.7610    0.2640 C.ar   34  PHE34      -0.0200
     31  CD1       -5.2250    5.4180    0.8130 C.ar   34  PHE34      -0.0042
     32  CD2       -4.3330    3.8920   -0.8000 C.ar   34  PHE34      -0.0042
     33  CE1       -6.5060    5.2030    0.3290 C.ar   34  PHE34      -0.0003
     34  CE2       -5.6210    3.6680   -1.2930 C.ar   34  PHE34      -0.0003
     35  CZ        -6.7040    4.3270   -0.7320 C.ar   34  PHE34      -0.0000
     36  N          0.8530    9.4270    1.7140 N.3    36  GLN36      -0.1245
     37  CA         1.0660   10.4740    2.7060 C.3    36  GLN36       0.1566
     38  C         -0.2160   10.7690    3.4860 C.2    36  GLN36       0.2260
     39  O         -1.3080   10.4440    3.0240 O.2    36  GLN36      -0.2867
     40  CB         1.5520   11.7630    2.0140 C.3    36  GLN36       0.0367
     41  CG         2.8730   11.6150    1.2660 C.3    36  GLN36       0.0905
     42  CD         4.0700   11.4980    2.1880 C.2    36  GLN36       0.2608
     43  OE1        4.0610   12.0040    3.3140 O.2    36  GLN36      -0.2717
     44  NE2        5.1230   10.8530    1.7010 N.am   36  GLN36      -0.0878
     45  N         -3.5350   12.4130    4.6590 N.3    38  VAL38      -0.1231
     46  CA        -4.5080   13.2530    3.9810 C.3    38  VAL38       0.1692
     47  C         -4.2340   14.7010    4.3490 C.2    38  VAL38       0.2592
     48  O         -4.1080   15.0450    5.5280 O.2    38  VAL38      -0.2718
     49  CB        -5.9490   12.8740    4.3460 C.3    38  VAL38       0.0266
     50  CG1       -6.9220   13.8930    3.7790 C.3    38  VAL38       0.0020
     51  CG2       -6.2770   11.4740    3.8300 C.3    38  VAL38       0.0020
     52  N         -4.1050   15.5400    3.3240 N.am   39  SER39      -0.1952
     53  CA        -3.7730   16.9440    3.5190 C.3    39  SER39       0.1924
     54  C         -4.9240   17.7230    4.1330 C.2    39  SER39       0.2314
     55  O         -6.0310   17.7410    3.5960 O.2    39  SER39      -0.2863
     56  CB        -3.3800   17.5850    2.1940 C.3    39  SER39       0.2116
     57  OG        -3.3660   18.9960    2.3240 O.3    39  SER39      -0.2180
     58  N         -8.1920   19.1020    2.5740 N.3    43  VAL43      -0.1245
     59  CA        -9.3870   18.5610    3.2140 C.3    43  VAL43       0.1561
     60  C         -9.4850   19.0780    4.6550 C.2    43  VAL43       0.2260
     61  O         -9.1760   18.3600    5.6070 O.2    43  VAL43      -0.2867
     62  CB        -9.3690   17.0110    3.2160 C.3    43  VAL43       0.0252
     63  CG1      -10.7170   16.4740    3.6310 C.3    43  VAL43       0.0019
     64  CG2       -8.9920   16.4620    1.8360 C.3    43  VAL43       0.0019
     65  N        -11.1890   17.1010    7.6470 N.3    46  TYR46      -0.1241
     66  CA       -10.9100   15.6620    7.7170 C.3    46  TYR46       0.1605
     67  C        -10.9990   15.0880    9.1350 C.2    46  TYR46       0.2264
     68  O        -11.5800   14.0180    9.3380 O.2    46  TYR46      -0.2867
     69  CB        -9.5310   15.3480    7.1110 C.3    46  TYR46       0.0534
     70  CG        -9.3040   13.8640    6.8820 C.ar   46  TYR46      -0.0201
     71  CD1      -10.0790   13.1570    5.9680 C.ar   46  TYR46      -0.0009
     72  CD2       -8.2960   13.1870    7.5520 C.ar   46  TYR46      -0.0009
     73  CE1       -9.8750   11.8050    5.7430 C.ar   46  TYR46       0.0417
     74  CE2       -8.0800   11.8310    7.3340 C.ar   46  TYR46       0.0417
     75  CZ        -8.8690   11.1540    6.4300 C.ar   46  TYR46       0.1957
     76  OH        -8.6660    9.8080    6.2090 O.3    46  TYR46      -0.2866
     77  N        -10.5920    5.6690    4.3560 N.3    85  CYS85      -0.1235
     78  CA       -10.8750    6.0830    2.9920 C.3    85  CYS85       0.1677
     79  C        -12.2940    5.7260    2.5570 C.2    85  CYS85       0.2270
     80  O        -12.9730    6.5120    1.8820 O.2    85  CYS85      -0.2867
     81  CB        -9.8630    5.4320    2.0600 C.3    85  CYS85       0.0956
     82  SG       -10.0290    6.0080    0.3480 S.3    85  CYS85      -0.0801
     83  N        -14.7840    8.2720    4.3970 N.3    88  TYR88      -0.1227
     84  CA       -14.7860    9.6700    3.9600 C.3    88  TYR88       0.1736
     85  C        -15.2310    9.8430    2.5100 C.2    88  TYR88       0.2595
     86  O        -15.9560   10.7890    2.1820 O.2    88  TYR88      -0.2718
     87  CB       -13.4090   10.3080    4.1450 C.3    88  TYR88       0.0548
     88  CG       -13.4680   11.8040    3.9540 C.ar   88  TYR88      -0.0200
     89  CD1      -13.7870   12.6430    5.0150 C.ar   88  TYR88      -0.0009
     90  CD2      -13.2510   12.3780    2.7010 C.ar   88  TYR88      -0.0009
     91  CE1      -13.8670   14.0140    4.8440 C.ar   88  TYR88       0.0417
     92  CE2      -13.3290   13.7540    2.5200 C.ar   88  TYR88       0.0417
     93  CZ       -13.6410   14.5640    3.5970 C.ar   88  TYR88       0.1957
     94  OH       -13.7210   15.9350    3.4170 O.3    88  TYR88      -0.2866
     95  N        -14.8020    8.9310    1.6470 N.am   89  ASN89      -0.1974
     96  CA       -15.0650    9.0450    0.2160 C.3    89  ASN89       0.1688
     97  C        -16.2180    8.1550   -0.2240 C.2    89  ASN89       0.2292
     98  O        -16.3660    7.0430    0.2800 O.2    89  ASN89      -0.2864
     99  CB       -13.7910    8.6970   -0.5660 C.3    89  ASN89       0.1181
    100  CG       -12.6060    9.5190   -0.1360 C.2    89  ASN89       0.2629
    101  OD1      -11.6880    9.0250    0.5270 O.2    89  ASN89      -0.2716
    102  ND2      -12.6210   10.7880   -0.4990 N.am   89  ASN89      -0.0877
    103  N        -10.8390    7.5010   -5.0710 N.3    95  PHE95      -0.1241
    104  CA       -10.2940    7.2280   -3.7440 C.3    95  PHE95       0.1605
    105  C        -10.8540    5.9440   -3.1530 C.2    95  PHE95       0.2264
    106  O        -10.0990    5.0570   -2.7570 O.2    95  PHE95      -0.2867
    107  CB       -10.5830    8.4070   -2.8050 C.3    95  PHE95       0.0534
    108  CG       -10.1550    9.7330   -3.3510 C.ar   95  PHE95      -0.0203
    109  CD1       -8.8210   10.1140   -3.3020 C.ar   95  PHE95      -0.0042
    110  CD2      -11.0830   10.6040   -3.9090 C.ar   95  PHE95      -0.0042
    111  CE1       -8.4140   11.3410   -3.8110 C.ar   95  PHE95      -0.0003
    112  CE2      -10.6810   11.8350   -4.4180 C.ar   95  PHE95      -0.0003
    113  CZ        -9.3450   12.1960   -4.3700 C.ar   95  PHE95      -0.0000
@<TRIPOS>BOND
     1     5     2    1
     2     2     1    1
     3     2     3    1
     4     4     3    2
     5     3     6   am
     6    24    22    1
     7     6     7    1
     8    12    11    1
     9    12    13    1
    10    11    10    1
    11   103   104    1
    12    22    21    1
    13    10     7    1
    14   112   113   ar
    15   112   110   ar
    16     7     8    1
    17   113   111   ar
    18    13    14    2
    19   110   108   ar
    20    16    14    1
    21   111   109   ar
    22   104   105    1
    23   104   107    1
    24    17     8   am
    25    17    18    1
    26     8     9    2
    27    21    18    1
    28    21    23    1
    29   108   109   ar
    30   108   107    1
    31    14    15    1
    32   105   106    2
    33    18    19    1
    34    19    25   am
    35    19    20    2
    36    34    32   ar
    37    34    35   ar
    38    25    26    1
    39    32    30   ar
    40    35    33   ar
    41    99   100    1
    42    99    96    1
    43   102   100   am
    44    97    96    1
    45    97    98    2
    46   100   101    2
    47    96    95    1
    48    30    29    1
    49    30    31   ar
    50    33    31   ar
    51    82    81    1
    52    26    29    1
    53    26    27    1
    54    27    28    2
    55    41    40    1
    56    41    42    1
    57    95    85   am
    58    44    42   am
    59    36    37    1
    60    64    62    1
    61    80    79    2
    62    40    37    1
    63    81    78    1
    64    86    85    2
    65    42    43    2
    66    56    57    1
    67    56    53    1
    68    85    84    1
    69    92    90   ar
    70    92    93   ar
    71    79    78    1
    72    58    59    1
    73    90    88   ar
    74    37    38    1
    75    78    77    1
    76    39    38    2
    77    59    62    1
    78    59    60    1
    79    62    63    1
    80    52    53    1
    81    52    47   am
    82    94    93    1
    83    53    54    1
    84    55    54    2
    85    93    91   ar
    86    50    49    1
    87    51    49    1
    88    88    87    1
    89    88    89   ar
    90    84    87    1
    91    84    83    1
    92    46    49    1
    93    46    47    1
    94    46    45    1
    95    47    48    2
    96    60    61    2
    97    91    89   ar
    98    73    71   ar
    99    73    75   ar
   100    71    70   ar
   101    76    75    1
   102    75    74   ar
   103    70    69    1
   104    70    72   ar
   105    69    66    1
   106    74    72   ar
   107    65    66    1
   108    66    67    1
   109    67    68    2
