@<TRIPOS>MOLECULE
tmp/5po1B00.pdb
 100 96 0 0 0
SMALL
GASTEIGER

@<TRIPOS>ATOM
      1  N        -33.0250    5.2070   13.1320 N.3    33  ILE33      -0.1231
      2  CA       -32.1410    4.9240   12.0100 C.3    33  ILE33       0.1692
      3  C        -31.3370    3.6440   12.2390 C.2    33  ILE33       0.2592
      4  O        -31.0870    2.8980   11.2920 O.2    33  ILE33      -0.2718
      5  CB       -31.1890    6.1060   11.7700 C.3    33  ILE33       0.0266
      6  CG1      -31.9990    7.3230   11.3080 C.3    33  ILE33       0.0019
      7  CG2      -30.1380    5.7850   10.6970 C.3    33  ILE33       0.0020
      8  CD1      -31.2240    8.6210   11.3440 C.3    33  ILE33       0.0001
      9  N        -30.9550    3.3980   13.4930 N.am   34  PHE34      -0.1976
     10  CA       -30.0680    2.2730   13.8290 C.3    34  PHE34       0.1639
     11  C        -30.7890    1.1960   14.6240 C.2    34  PHE34       0.2290
     12  O        -30.1680    0.2750   15.1480 O.2    34  PHE34      -0.2864
     13  CB       -28.8440    2.7840   14.6120 C.3    34  PHE34       0.0560
     14  CG       -28.1120    3.9040   13.9140 C.ar   34  PHE34      -0.0200
     15  CD1      -27.3490    3.6490   12.7870 C.ar   34  PHE34      -0.0042
     16  CD2      -28.2140    5.2110   14.3700 C.ar   34  PHE34      -0.0042
     17  CE1      -26.6800    4.6760   12.1250 C.ar   34  PHE34      -0.0003
     18  CE2      -27.5390    6.2510   13.7150 C.ar   34  PHE34      -0.0003
     19  CZ       -26.7720    5.9740   12.5910 C.ar   34  PHE34      -0.0000
     20  N        -33.0320   -1.2640   13.7930 N.3    36  GLN36      -0.1245
     21  CA       -33.3200   -2.5600   13.1970 C.3    36  GLN36       0.1566
     22  C        -32.3680   -2.8060   12.0450 C.2    36  GLN36       0.2260
     23  O        -31.7920   -1.8550   11.5080 O.2    36  GLN36      -0.2867
     24  CB       -34.7730   -2.6000   12.6880 C.3    36  GLN36       0.0367
     25  CG       -35.8140   -2.5600   13.7820 C.3    36  GLN36       0.0905
     26  CD       -35.9190   -3.8850   14.4980 C.2    36  GLN36       0.2608
     27  OE1      -35.5860   -4.9290   13.9370 O.2    36  GLN36      -0.2717
     28  NE2      -36.3690   -3.8500   15.7460 N.am   36  GLN36      -0.0878
     29  N        -30.8510   -3.0600    8.4600 N.3    38  VAL38      -0.1245
     30  CA       -31.1720   -2.4290    7.1840 C.3    38  VAL38       0.1561
     31  C        -31.9550   -3.4370    6.3410 C.2    38  VAL38       0.2260
     32  O        -31.5920   -4.6130    6.2660 O.2    38  VAL38      -0.2867
     33  CB       -29.8900   -1.9680    6.4280 C.3    38  VAL38       0.0252
     34  CG1      -30.2240   -1.5280    5.0070 C.3    38  VAL38       0.0019
     35  CG2      -29.1720   -0.8630    7.1970 C.3    38  VAL38       0.0019
     36  N        -35.6170   -2.7850    0.8260 N.3    42  GLU42      -0.1231
     37  CA       -35.5180   -1.3440    0.5990 C.3    42  GLU42       0.1699
     38  C        -34.1390   -0.8980    0.1060 C.2    42  GLU42       0.2592
     39  O        -34.0210    0.1360   -0.5510 O.2    42  GLU42      -0.2718
     40  CB       -35.8650   -0.5800    1.8780 C.3    42  GLU42       0.0402
     41  CG       -37.2950   -0.8640    2.3380 C.3    42  GLU42       0.1161
     42  CD       -38.2140    0.1570    1.6980 C.2    42  GLU42       0.3649
     43  OE1      -37.7800    1.0540    0.9340 O.co2  42  GLU42      -0.2457
     44  OE2      -39.4260    0.0510    1.9150 O.co2  42  GLU42      -0.2457
     45  N        -33.1000   -1.6610    0.4450 N.am   43  VAL43      -0.1980
     46  CA       -31.7310   -1.3310    0.0590 C.3    43  VAL43       0.1595
     47  C        -31.0600   -2.5640   -0.5410 C.2    43  VAL43       0.2287
     48  O        -30.2250   -3.2010    0.0980 O.2    43  VAL43      -0.2864
     49  CB       -30.9000   -0.8280    1.2640 C.3    43  VAL43       0.0276
     50  CG1      -29.6070   -0.1890    0.7900 C.3    43  VAL43       0.0022
     51  CG2      -31.7030    0.1690    2.0970 C.3    43  VAL43       0.0022
     52  N        -27.1880   -3.3940   -0.2920 N.3    46  TYR46      -0.1241
     53  CA       -26.5040   -3.1640    0.9890 C.3    46  TYR46       0.1605
     54  C        -25.3730   -4.1630    1.2590 C.2    46  TYR46       0.2264
     55  O        -24.2780   -3.7650    1.6840 O.2    46  TYR46      -0.2867
     56  CB       -27.5090   -3.1900    2.1520 C.3    46  TYR46       0.0534
     57  CG       -26.9250   -2.6390    3.4450 C.ar   46  TYR46      -0.0201
     58  CD1      -26.5780   -1.2960    3.5570 C.ar   46  TYR46      -0.0009
     59  CD2      -26.7050   -3.4630    4.5400 C.ar   46  TYR46      -0.0009
     60  CE1      -26.0350   -0.7820    4.7360 C.ar   46  TYR46       0.0417
     61  CE2      -26.1560   -2.9570    5.7310 C.ar   46  TYR46       0.0417
     62  CZ       -25.8280   -1.6200    5.8190 C.ar   46  TYR46       0.1957
     63  OH       -25.2850   -1.1230    6.9830 O.3    46  TYR46      -0.2866
     64  N        -22.5100    2.5320    8.6170 N.3    85  CYS85      -0.1235
     65  CA       -23.2860    3.6760    8.1540 C.3    85  CYS85       0.1677
     66  C        -22.3880    4.7180    7.4910 C.2    85  CYS85       0.2270
     67  O        -22.7510    5.2840    6.4630 O.2    85  CYS85      -0.2867
     68  CB       -24.0560    4.2730    9.3280 C.3    85  CYS85       0.0956
     69  SG       -25.1750    5.6510    8.8870 S.3    85  CYS85      -0.0801
     70  N        -21.3720    3.1520    4.0460 N.3    88  TYR88      -0.1227
     71  CA       -22.4190    3.0170    3.0280 C.3    88  TYR88       0.1736
     72  C        -22.9190    4.3720    2.5400 C.2    88  TYR88       0.2595
     73  O        -23.2270    4.5350    1.3540 O.2    88  TYR88      -0.2718
     74  CB       -23.6100    2.1900    3.5380 C.3    88  TYR88       0.0548
     75  CG       -24.6160    1.9790    2.4260 C.ar   88  TYR88      -0.0200
     76  CD1      -24.4000    1.0130    1.4510 C.ar   88  TYR88      -0.0009
     77  CD2      -25.7430    2.7840    2.3150 C.ar   88  TYR88      -0.0009
     78  CE1      -25.2940    0.8440    0.4000 C.ar   88  TYR88       0.0417
     79  CE2      -26.6380    2.6240    1.2620 C.ar   88  TYR88       0.0417
     80  CZ       -26.4070    1.6500    0.3130 C.ar   88  TYR88       0.1957
     81  OH       -27.3030    1.4800   -0.7350 O.3    88  TYR88      -0.2866
     82  N        -22.9960    5.3400    3.4460 N.am   89  ASN89      -0.1974
     83  CA       -23.5670    6.6390    3.0830 C.3    89  ASN89       0.1688
     84  C        -22.5050    7.6820    2.7730 C.2    89  ASN89       0.2292
     85  O        -21.4520    7.7160    3.4140 O.2    89  ASN89      -0.2864
     86  CB       -24.4750    7.1450    4.2020 C.3    89  ASN89       0.1181
     87  CG       -25.6250    6.2150    4.4670 C.2    89  ASN89       0.2629
     88  OD1      -25.5980    5.4140    5.4080 O.2    89  ASN89      -0.2716
     89  ND2      -26.6390    6.2810    3.6140 N.am   89  ASN89      -0.0877
     90  N        -27.9920   10.6030    7.0710 N.3    95  PHE95      -0.1241
     91  CA       -27.6730    9.3660    7.7960 C.3    95  PHE95       0.1605
     92  C        -26.1990    9.3150    8.1900 C.2    95  PHE95       0.2264
     93  O        -25.8700    8.8480    9.2830 O.2    95  PHE95      -0.2867
     94  CB       -28.0400    8.1270    6.9770 C.3    95  PHE95       0.0534
     95  CG       -29.5120    7.7730    7.0110 C.ar   95  PHE95      -0.0203
     96  CD1      -30.4520    8.6250    7.5640 C.ar   95  PHE95      -0.0042
     97  CD2      -29.9390    6.5650    6.4980 C.ar   95  PHE95      -0.0042
     98  CE1      -31.8040    8.2700    7.5890 C.ar   95  PHE95      -0.0003
     99  CE2      -31.2730    6.2100    6.5190 C.ar   95  PHE95      -0.0003
    100  CZ       -32.2050    7.0650    7.0580 C.ar   95  PHE95      -0.0000
@<TRIPOS>BOND
     1    81    80    1
     2    39    38    2
     3    47    46    1
     4    47    48    2
     5    52    53    1
     6    46    45    1
     7    46    49    1
     8    38    45   am
     9    38    37    1
    10    80    78   ar
    11    80    79   ar
    12    78    76   ar
    13    37    36    1
    14    37    40    1
    15    50    49    1
    16    43    42   ar
    17    53    54    1
    18    53    56    1
    19    54    55    2
    20    79    77   ar
    21    49    51    1
    22    73    72    2
    23    76    75   ar
    24    42    44   ar
    25    42    41    1
    26    40    41    1
    27    56    57    1
    28    77    75   ar
    29    75    74    1
    30    72    71    1
    31    72    82   am
    32    84    83    1
    33    84    85    2
    34    71    74    1
    35    71    70    1
    36    83    82    1
    37    83    86    1
    38    57    58   ar
    39    57    59   ar
    40    58    60   ar
    41    89    87   am
    42    86    87    1
    43    87    88    2
    44    59    61   ar
    45    60    62   ar
    46    34    33    1
    47    61    62   ar
    48    62    63    1
    49    32    31    2
    50    31    30    1
    51    33    30    1
    52    33    35    1
    53    67    66    2
    54    97    99   ar
    55    97    95   ar
    56    99   100   ar
    57    94    95    1
    58    94    91    1
    59    95    96   ar
    60   100    98   ar
    61    90    91    1
    62    30    29    1
    63    66    65    1
    64    96    98   ar
    65    91    92    1
    66    65    64    1
    67    65    68    1
    68    92    93    2
    69    69    68    1
    70     7     5    1
    71     4     3    2
    72     6     8    1
    73     6     5    1
    74    23    22    2
    75     5     2    1
    76     2     3    1
    77     2     1    1
    78    22    21    1
    79    17    19   ar
    80    17    15   ar
    81     3     9   am
    82    19    18   ar
    83    24    21    1
    84    24    25    1
    85    15    14   ar
    86    21    20    1
    87     9    10    1
    88    18    16   ar
    89    25    26    1
    90    10    13    1
    91    10    11    1
    92    14    16   ar
    93    14    13    1
    94    27    26    2
    95    26    28   am
    96    11    12    2
