@<TRIPOS>MOLECULE
tmp/5po2A00.pdb
 86 82 0 0 0
SMALL
GASTEIGER

@<TRIPOS>ATOM
      1  N         -2.0490    7.4100   -3.7570 N.3    33  ILE33      -0.1245
      2  CA        -3.1630    8.0170   -3.0470 C.3    33  ILE33       0.1561
      3  C         -3.0020    7.8980   -1.5250 C.2    33  ILE33       0.2260
      4  O         -3.4040    8.7910   -0.7710 O.2    33  ILE33      -0.2867
      5  CB        -4.4710    7.3740   -3.5310 C.3    33  ILE33       0.0252
      6  CG1       -4.7350    7.8240   -4.9740 C.3    33  ILE33       0.0019
      7  CG2       -5.6410    7.7260   -2.6240 C.3    33  ILE33       0.0019
      8  CD1       -5.8880    7.0950   -5.6490 C.3    33  ILE33       0.0001
      9  N         -3.3780   12.6150    4.8300 N.3    38  VAL38      -0.1231
     10  CA        -4.2960   13.5730    4.2390 C.3    38  VAL38       0.1692
     11  C         -3.9570   14.9560    4.7970 C.2    38  VAL38       0.2592
     12  O         -3.7810   15.1280    6.0070 O.2    38  VAL38      -0.2718
     13  CB        -5.7630   13.2090    4.5230 C.3    38  VAL38       0.0266
     14  CG1       -6.6760   14.3340    4.0740 C.3    38  VAL38       0.0020
     15  CG2       -6.1200   11.9030    3.8260 C.3    38  VAL38       0.0020
     16  N         -3.8160   15.9240    3.8960 N.am   39  SER39      -0.1952
     17  CA        -3.4520   17.2890    4.2530 C.3    39  SER39       0.1924
     18  C         -4.5780   18.0540    4.9330 C.2    39  SER39       0.2314
     19  O         -5.6550   18.2050    4.3660 O.2    39  SER39      -0.2863
     20  CB        -3.0280   18.0570    3.0070 C.3    39  SER39       0.2116
     21  OG        -2.8520   19.4290    3.3130 O.3    39  SER39      -0.2180
     22  N         -5.4520   20.9870    2.7810 N.3    42  GLU42      -0.1231
     23  CA        -6.2920   20.6480    1.6350 C.3    42  GLU42       0.1699
     24  C         -7.6790   20.1390    2.0540 C.2    42  GLU42       0.2592
     25  O         -8.6520   20.2870    1.3090 O.2    42  GLU42      -0.2718
     26  CB        -5.6000   19.6000    0.7590 C.3    42  GLU42       0.0402
     27  CG        -6.3180   19.2670   -0.5340 C.3    42  GLU42       0.1161
     28  CD        -6.1740   20.3040   -1.5840 C.2    42  GLU42       0.3649
     29  OE1       -5.0530   20.8500   -1.7510 O.co2  42  GLU42      -0.2457
     30  OE2       -7.2030   20.4510   -2.3340 O.co2  42  GLU42      -0.2457
     31  N         -7.7600   19.5240    3.2340 N.am   43  VAL43      -0.1980
     32  CA        -9.0210   18.9900    3.7560 C.3    43  VAL43       0.1595
     33  C         -9.1640   19.3690    5.2310 C.2    43  VAL43       0.2287
     34  O         -8.9320   18.5480    6.1220 O.2    43  VAL43      -0.2864
     35  CB        -9.1040   17.4500    3.6020 C.3    43  VAL43       0.0276
     36  CG1      -10.4870   16.9540    3.9720 C.3    43  VAL43       0.0022
     37  CG2       -8.7580   17.0200    2.1780 C.3    43  VAL43       0.0022
     38  N        -11.0980   17.2040    7.9650 N.3    46  TYR46      -0.1241
     39  CA       -10.8670   15.7540    7.9350 C.3    46  TYR46       0.1605
     40  C        -10.9710   15.1020    9.3240 C.2    46  TYR46       0.2264
     41  O        -11.5790   14.0390    9.4640 O.2    46  TYR46      -0.2867
     42  CB        -9.5030   15.4440    7.3050 C.3    46  TYR46       0.0534
     43  CG        -9.2750   13.9750    6.9970 C.ar   46  TYR46      -0.0201
     44  CD1      -10.0100   13.3240    6.0080 C.ar   46  TYR46      -0.0009
     45  CD2       -8.3130   13.2530    7.6810 C.ar   46  TYR46      -0.0009
     46  CE1       -9.7940   11.9810    5.7210 C.ar   46  TYR46       0.0417
     47  CE2       -8.0930   11.9020    7.4060 C.ar   46  TYR46       0.0417
     48  CZ        -8.8290   11.2810    6.4300 C.ar   46  TYR46       0.1957
     49  OH        -8.6090    9.9560    6.1530 O.3    46  TYR46      -0.2866
     50  N        -10.6000    5.7010    4.2450 N.3    85  CYS85      -0.1235
     51  CA       -10.8580    6.1600    2.8850 C.3    85  CYS85       0.1677
     52  C        -12.2750    5.8160    2.4290 C.2    85  CYS85       0.2270
     53  O        -12.9440    6.6310    1.7870 O.2    85  CYS85      -0.2867
     54  CB        -9.8330    5.5470    1.9330 C.3    85  CYS85       0.0956
     55  SG       -10.0020    6.1140    0.2200 S.3    85  CYS85      -0.0801
     56  N        -14.7340    8.3380    4.2790 N.3    88  TYR88      -0.1227
     57  CA       -14.6960    9.7370    3.8920 C.3    88  TYR88       0.1736
     58  C        -15.1540    9.9350    2.4620 C.2    88  TYR88       0.2595
     59  O        -15.8330   10.9180    2.1380 O.2    88  TYR88      -0.2718
     60  CB       -13.2880   10.3120    4.0740 C.3    88  TYR88       0.0548
     61  CG       -13.2840   11.8020    3.9070 C.ar   88  TYR88      -0.0200
     62  CD1      -13.6920   12.6350    4.9430 C.ar   88  TYR88      -0.0009
     63  CD2      -12.9210   12.3850    2.6970 C.ar   88  TYR88      -0.0009
     64  CE1      -13.7180   14.0130    4.7880 C.ar   88  TYR88       0.0417
     65  CE2      -12.9440   13.7660    2.5330 C.ar   88  TYR88       0.0417
     66  CZ       -13.3400   14.5720    3.5770 C.ar   88  TYR88       0.1957
     67  OH       -13.3680   15.9450    3.4080 O.3    88  TYR88      -0.2866
     68  N        -14.8000    8.9920    1.6030 N.am   89  ASN89      -0.1974
     69  CA       -15.0860    9.1410    0.1850 C.3    89  ASN89       0.1688
     70  C        -16.2580    8.2910   -0.2670 C.2    89  ASN89       0.2292
     71  O        -16.4560    7.1700    0.2120 O.2    89  ASN89      -0.2864
     72  CB       -13.8330    8.7940   -0.6230 C.3    89  ASN89       0.1181
     73  CG       -12.6700    9.6690   -0.2600 C.2    89  ASN89       0.2629
     74  OD1      -12.6370   10.8460   -0.6310 O.2    89  ASN89      -0.2716
     75  ND2      -11.7110    9.1210    0.4860 N.am   89  ASN89      -0.0877
     76  N        -10.8800    7.6820   -5.1650 N.3    95  PHE95      -0.1241
     77  CA       -10.3030    7.3760   -3.8520 C.3    95  PHE95       0.1605
     78  C        -10.8700    6.0860   -3.2680 C.2    95  PHE95       0.2264
     79  O        -10.1280    5.1910   -2.8370 O.2    95  PHE95      -0.2867
     80  CB       -10.5470    8.5490   -2.8950 C.3    95  PHE95       0.0534
     81  CG       -10.0410    9.8640   -3.4220 C.ar   95  PHE95      -0.0203
     82  CD1       -8.6980   10.1770   -3.3620 C.ar   95  PHE95      -0.0042
     83  CD2      -10.9130   10.7810   -3.9910 C.ar   95  PHE95      -0.0042
     84  CE1       -8.2320   11.3900   -3.8570 C.ar   95  PHE95      -0.0003
     85  CE2      -10.4480   11.9950   -4.4870 C.ar   95  PHE95      -0.0003
     86  CZ        -9.1060   12.2890   -4.4200 C.ar   95  PHE95      -0.0000
@<TRIPOS>BOND
     1     8     6    1
     2    76    77    1
     3     6     5    1
     4    85    86   ar
     5    85    83   ar
     6    86    84   ar
     7    83    81   ar
     8    84    82   ar
     9    77    78    1
    10    77    80    1
    11     1     2    1
    12     5     2    1
    13     5     7    1
    14    81    82   ar
    15    81    80    1
    16    78    79    2
    17     2     3    1
    18    30    28   ar
    19    29    28   ar
    20    28    27    1
    21     3     4    2
    22    74    73    2
    23    72    73    1
    24    72    69    1
    25    27    26    1
    26    70    69    1
    27    70    71    2
    28    73    75   am
    29    69    68    1
    30    55    54    1
    31    26    23    1
    32    25    24    2
    33    68    58   am
    34    23    24    1
    35    23    22    1
    36    53    52    2
    37    54    51    1
    38    24    31   am
    39    59    58    2
    40    37    35    1
    41    52    51    1
    42    58    57    1
    43    65    63   ar
    44    65    66   ar
    45    63    61   ar
    46    51    50    1
    47    20    21    1
    48    20    17    1
    49    31    32    1
    50    67    66    1
    51    66    64   ar
    52    35    32    1
    53    35    36    1
    54    32    33    1
    55    15    13    1
    56    57    60    1
    57    57    56    1
    58    16    17    1
    59    16    11   am
    60    61    60    1
    61    61    62   ar
    62    14    13    1
    63    10    13    1
    64    10    11    1
    65    10     9    1
    66    17    18    1
    67    19    18    2
    68    64    62   ar
    69    11    12    2
    70    33    34    2
    71    46    44   ar
    72    46    48   ar
    73    44    43   ar
    74    49    48    1
    75    48    47   ar
    76    43    42    1
    77    43    45   ar
    78    42    39    1
    79    47    45   ar
    80    39    38    1
    81    39    40    1
    82    40    41    2
