@<TRIPOS>MOLECULE
tmp/5po3B00.pdb
 106 102 0 0 0
SMALL
GASTEIGER

@<TRIPOS>ATOM
      1  N        -33.0440    5.0620   13.1630 N.3    33  ILE33      -0.1231
      2  CA       -32.1770    4.7970   12.0150 C.3    33  ILE33       0.1692
      3  C        -31.3250    3.5310   12.2160 C.2    33  ILE33       0.2592
      4  O        -31.0730    2.7870   11.2670 O.2    33  ILE33      -0.2718
      5  CB       -31.2830    6.0140   11.7520 C.3    33  ILE33       0.0266
      6  CG1      -32.1620    7.1880   11.2950 C.3    33  ILE33       0.0019
      7  CG2      -30.1990    5.7060   10.7070 C.3    33  ILE33       0.0020
      8  CD1      -31.4380    8.5240   11.2490 C.3    33  ILE33       0.0001
      9  N        -30.9110    3.2840   13.4570 N.am   34  PHE34      -0.1976
     10  CA       -30.0520    2.1410   13.7660 C.3    34  PHE34       0.1639
     11  C        -30.7790    1.0550   14.5600 C.2    34  PHE34       0.2290
     12  O        -30.1610    0.1290   15.0750 O.2    34  PHE34      -0.2864
     13  CB       -28.8140    2.6250   14.5310 C.3    34  PHE34       0.0560
     14  CG       -28.0900    3.7610   13.8450 C.ar   34  PHE34      -0.0200
     15  CD1      -27.3180    3.5250   12.7130 C.ar   34  PHE34      -0.0042
     16  CD2      -28.2050    5.0670   14.3150 C.ar   34  PHE34      -0.0042
     17  CE1      -26.6530    4.5670   12.0650 C.ar   34  PHE34      -0.0003
     18  CE2      -27.5430    6.1120   13.6740 C.ar   34  PHE34      -0.0003
     19  CZ       -26.7590    5.8560   12.5420 C.ar   34  PHE34      -0.0000
     20  N        -32.9680   -1.3930   13.7280 N.3    36  GLN36      -0.1245
     21  CA       -33.2270   -2.7020   13.1220 C.3    36  GLN36       0.1566
     22  C        -32.2720   -2.9260   11.9510 C.2    36  GLN36       0.2260
     23  O        -31.7420   -1.9600   11.4030 O.2    36  GLN36      -0.2867
     24  CB       -34.6840   -2.7770   12.6340 C.3    36  GLN36       0.0367
     25  CG       -35.7390   -2.7480   13.7410 C.3    36  GLN36       0.0905
     26  CD       -35.8180   -4.0690   14.4850 C.2    36  GLN36       0.2608
     27  OE1      -35.4450   -5.1140   13.9490 O.2    36  GLN36      -0.2717
     28  NE2      -36.2860   -4.0260   15.7280 N.am   36  GLN36      -0.0878
     29  N        -30.7850   -3.1490    8.3540 N.3    38  VAL38      -0.1231
     30  CA       -31.1270   -2.5290    7.0850 C.3    38  VAL38       0.1692
     31  C        -31.9120   -3.5400    6.2500 C.2    38  VAL38       0.2592
     32  O        -31.5430   -4.7090    6.1800 O.2    38  VAL38      -0.2718
     33  CB       -29.8580   -2.0650    6.3310 C.3    38  VAL38       0.0266
     34  CG1      -30.1950   -1.5990    4.9200 C.3    38  VAL38       0.0020
     35  CG2      -29.1600   -0.9640    7.1210 C.3    38  VAL38       0.0020
     36  N        -33.0050   -3.0870    5.6440 N.am   39  SER39      -0.1952
     37  CA       -33.8580   -3.9500    4.8260 C.3    39  SER39       0.1924
     38  C        -33.2930   -4.1750    3.4290 C.2    39  SER39       0.2314
     39  O        -33.0550   -3.2170    2.6900 O.2    39  SER39      -0.2863
     40  CB       -35.2610   -3.3490    4.7100 C.3    39  SER39       0.2116
     41  OG       -35.9790   -3.9640    3.6540 O.3    39  SER39      -0.2180
     42  N        -35.6410   -2.8280    0.7110 N.3    42  GLU42      -0.1231
     43  CA       -35.4840   -1.3910    0.4930 C.3    42  GLU42       0.1699
     44  C        -34.0910   -1.0050   -0.0110 C.2    42  GLU42       0.2592
     45  O        -33.9350    0.0000   -0.7050 O.2    42  GLU42      -0.2718
     46  CB       -35.7900   -0.6270    1.7850 C.3    42  GLU42       0.0402
     47  CG       -37.2270   -0.8580    2.2530 C.3    42  GLU42       0.1161
     48  CD       -38.1090    0.2070    1.6330 C.2    42  GLU42       0.3649
     49  OE1      -37.6450    1.0930    0.8750 O.co2  42  GLU42      -0.2457
     50  OE2      -39.3220    0.1460    1.8590 O.co2  42  GLU42      -0.2457
     51  N        -33.0770   -1.7880    0.3510 N.am   43  VAL43      -0.1980
     52  CA       -31.7040   -1.4860   -0.0380 C.3    43  VAL43       0.1595
     53  C        -31.0340   -2.7300   -0.6210 C.2    43  VAL43       0.2287
     54  O        -30.2190   -3.3800    0.0410 O.2    43  VAL43      -0.2864
     55  CB       -30.8710   -0.9630    1.1610 C.3    43  VAL43       0.0276
     56  CG1      -29.5480   -0.3850    0.6860 C.3    43  VAL43       0.0022
     57  CG2      -31.6510    0.1030    1.9330 C.3    43  VAL43       0.0022
     58  N        -27.1360   -3.4570   -0.3980 N.3    46  TYR46      -0.1241
     59  CA       -26.4460   -3.2430    0.8840 C.3    46  TYR46       0.1605
     60  C        -25.3120   -4.2410    1.1210 C.2    46  TYR46       0.2264
     61  O        -24.2070   -3.8450    1.5140 O.2    46  TYR46      -0.2867
     62  CB       -27.4290   -3.2980    2.0520 C.3    46  TYR46       0.0534
     63  CG       -26.8500   -2.7440    3.3500 C.ar   46  TYR46      -0.0201
     64  CD1      -26.4810   -1.4030    3.4530 C.ar   46  TYR46      -0.0009
     65  CD2      -26.6720   -3.5650    4.4590 C.ar   46  TYR46      -0.0009
     66  CE1      -25.9590   -0.8800    4.6440 C.ar   46  TYR46       0.0417
     67  CE2      -26.1570   -3.0600    5.6490 C.ar   46  TYR46       0.0417
     68  CZ       -25.7980   -1.7210    5.7330 C.ar   46  TYR46       0.1957
     69  OH       -25.2750   -1.2320    6.9170 O.3    46  TYR46      -0.2866
     70  N        -22.4880    2.5070    8.5220 N.3    85  CYS85      -0.1235
     71  CA       -23.2880    3.6540    8.0830 C.3    85  CYS85       0.1677
     72  C        -22.4170    4.7110    7.4020 C.2    85  CYS85       0.2270
     73  O        -22.7900    5.2690    6.3670 O.2    85  CYS85      -0.2867
     74  CB       -24.0360    4.2590    9.2690 C.3    85  CYS85       0.0956
     75  SG       -25.1920    5.5780    8.7520 S.3    85  CYS85      -0.0801
     76  N        -21.4150    3.1580    3.9860 N.3    88  TYR88      -0.1227
     77  CA       -22.4710    3.0450    2.9790 C.3    88  TYR88       0.1736
     78  C        -22.9960    4.4020    2.4900 C.2    88  TYR88       0.2595
     79  O        -23.3300    4.5480    1.3140 O.2    88  TYR88      -0.2718
     80  CB       -23.6580    2.2200    3.4910 C.3    88  TYR88       0.0548
     81  CG       -24.6640    1.9720    2.3820 C.ar   88  TYR88      -0.0200
     82  CD1      -24.3930    1.0560    1.3650 C.ar   88  TYR88      -0.0009
     83  CD2      -25.8610    2.6830    2.3250 C.ar   88  TYR88      -0.0009
     84  CE1      -25.3120    0.8460    0.3140 C.ar   88  TYR88       0.0417
     85  CE2      -26.7760    2.4830    1.2830 C.ar   88  TYR88       0.0417
     86  CZ       -26.4910    1.5630    0.2860 C.ar   88  TYR88       0.1957
     87  OH       -27.3900    1.3530   -0.7520 O.3    88  TYR88      -0.2866
     88  N        -23.0840    5.3790    3.3820 N.am   89  ASN89      -0.1974
     89  CA       -23.6400    6.6790    3.0140 C.3    89  ASN89       0.1688
     90  C        -22.5760    7.7250    2.6770 C.2    89  ASN89       0.2292
     91  O        -21.5030    7.7480    3.2820 O.2    89  ASN89      -0.2864
     92  CB       -24.5480    7.1820    4.1480 C.3    89  ASN89       0.1181
     93  CG       -25.7170    6.2560    4.4010 C.2    89  ASN89       0.2629
     94  OD1      -25.6770    5.4110    5.2990 O.2    89  ASN89      -0.2716
     95  ND2      -26.7680    6.3950    3.5950 N.am   89  ASN89      -0.0877
     96  N        -28.1130   10.5490    7.0320 N.3    95  PHE95      -0.1241
     97  CA       -27.7830    9.3110    7.7450 C.3    95  PHE95       0.1605
     98  C        -26.3010    9.2580    8.1360 C.2    95  PHE95       0.2264
     99  O        -25.9800    8.7800    9.2230 O.2    95  PHE95      -0.2867
    100  CB       -28.1480    8.0650    6.9320 C.3    95  PHE95       0.0534
    101  CG       -29.6170    7.6880    7.0090 C.ar   95  PHE95      -0.0203
    102  CD1      -30.5500    8.5810    7.4990 C.ar   95  PHE95      -0.0042
    103  CD2      -30.0440    6.4310    6.6180 C.ar   95  PHE95      -0.0042
    104  CE1      -31.9030    8.2330    7.5720 C.ar   95  PHE95      -0.0003
    105  CE2      -31.3820    6.0780    6.6820 C.ar   95  PHE95      -0.0003
    106  CZ       -32.3180    6.9820    7.1600 C.ar   95  PHE95      -0.0000
@<TRIPOS>BOND
     1    87    86    1
     2    45    44    2
     3    53    52    1
     4    53    54    2
     5    58    59    1
     6    52    51    1
     7    52    55    1
     8    44    51   am
     9    44    43    1
    10    86    84   ar
    11    86    85   ar
    12    84    82   ar
    13    43    42    1
    14    43    46    1
    15    56    55    1
    16    49    48   ar
    17    59    60    1
    18    59    62    1
    19    60    61    2
    20    55    57    1
    21    85    83   ar
    22    79    78    2
    23    82    81   ar
    24    48    50   ar
    25    48    47    1
    26    46    47    1
    27    62    63    1
    28    83    81   ar
    29    81    80    1
    30    78    77    1
    31    78    88   am
    32    90    89    1
    33    90    91    2
    34    39    38    2
    35    77    80    1
    36    77    76    1
    37    89    88    1
    38    89    92    1
    39    63    64   ar
    40    63    65   ar
    41    38    37    1
    42    64    66   ar
    43    95    93   am
    44    41    40    1
    45    92    93    1
    46    93    94    2
    47    65    67   ar
    48    66    68   ar
    49    40    37    1
    50    37    36    1
    51    34    33    1
    52    36    31   am
    53    67    68   ar
    54    68    69    1
    55    32    31    2
    56    31    30    1
    57    33    30    1
    58    33    35    1
    59    73    72    2
    60   103   105   ar
    61   103   101   ar
    62   105   106   ar
    63   100   101    1
    64   100    97    1
    65   101   102   ar
    66    96    97    1
    67    30    29    1
    68   106   104   ar
    69    72    71    1
    70   102   104   ar
    71    97    98    1
    72    71    70    1
    73    71    74    1
    74    98    99    2
    75    75    74    1
    76     7     5    1
    77     8     6    1
    78     4     3    2
    79     6     5    1
    80    23    22    2
    81     5     2    1
    82    22    21    1
    83     2     3    1
    84     2     1    1
    85    17    19   ar
    86    17    15   ar
    87     3     9   am
    88    19    18   ar
    89    24    21    1
    90    24    25    1
    91    15    14   ar
    92    21    20    1
    93     9    10    1
    94    18    16   ar
    95    25    26    1
    96    10    13    1
    97    10    11    1
    98    14    16   ar
    99    14    13    1
   100    27    26    2
   101    26    28   am
   102    11    12    2
