@<TRIPOS>MOLECULE
tmp/5po6A00.pdb
 98 94 0 0 0
SMALL
GASTEIGER

@<TRIPOS>ATOM
      1  N         -2.1410    7.1780   -3.7630 N.3    33  ILE33      -0.1231
      2  CA        -3.2300    7.8160   -3.0510 C.3    33  ILE33       0.1692
      3  C         -3.0420    7.7160   -1.5350 C.2    33  ILE33       0.2592
      4  O         -3.4340    8.6190   -0.7920 O.2    33  ILE33      -0.2718
      5  CB        -4.5650    7.1910   -3.5140 C.3    33  ILE33       0.0266
      6  CG1       -4.8590    7.6850   -4.9450 C.3    33  ILE33       0.0019
      7  CG2       -5.7160    7.5290   -2.5600 C.3    33  ILE33       0.0020
      8  CD1       -5.9260    6.8870   -5.7010 C.3    33  ILE33       0.0001
      9  N         -2.4030    6.6390   -1.0840 N.am   34  PHE34      -0.1976
     10  CA        -2.2710    6.3780    0.3530 C.3    34  PHE34       0.1639
     11  C         -0.8470    6.5730    0.8780 C.2    34  PHE34       0.2290
     12  O         -0.5250    6.1790    2.0030 O.2    34  PHE34      -0.2864
     13  CB        -2.7560    4.9590    0.6490 C.3    34  PHE34       0.0560
     14  CG        -4.1390    4.7030    0.1390 C.ar   34  PHE34      -0.0200
     15  CD1       -5.2250    5.3180    0.7320 C.ar   34  PHE34      -0.0042
     16  CD2       -4.3420    3.9070   -0.9730 C.ar   34  PHE34      -0.0042
     17  CE1       -6.5050    5.1070    0.2470 C.ar   34  PHE34      -0.0003
     18  CE2       -5.6170    3.6900   -1.4700 C.ar   34  PHE34      -0.0003
     19  CZ        -6.7030    4.2890   -0.8600 C.ar   34  PHE34      -0.0000
     20  N         -3.4100   12.4840    4.8180 N.3    38  VAL38      -0.1245
     21  CA        -4.3500   13.4700    4.3070 C.3    38  VAL38       0.1561
     22  C         -3.9690   14.8350    4.8910 C.2    38  VAL38       0.2260
     23  O         -3.7440   14.9680    6.1000 O.2    38  VAL38      -0.2867
     24  CB        -5.7980   13.1040    4.6620 C.3    38  VAL38       0.0252
     25  CG1       -6.7370   14.2360    4.2960 C.3    38  VAL38       0.0019
     26  CG2       -6.1990   11.8060    3.9690 C.3    38  VAL38       0.0019
     27  N         -7.7330   19.5550    3.5710 N.3    43  VAL43      -0.1245
     28  CA        -8.9930   19.0190    4.0920 C.3    43  VAL43       0.1561
     29  C         -9.1200   19.4010    5.5680 C.2    43  VAL43       0.2260
     30  O         -8.9140   18.5710    6.4570 O.2    43  VAL43      -0.2867
     31  CB        -9.0790   17.4810    3.9360 C.3    43  VAL43       0.0252
     32  CG1      -10.4640   16.9850    4.3250 C.3    43  VAL43       0.0019
     33  CG2       -8.7410   17.0590    2.5070 C.3    43  VAL43       0.0019
     34  N        -10.9980   17.2140    8.2280 N.3    46  TYR46      -0.1241
     35  CA       -10.7990   15.7570    8.1640 C.3    46  TYR46       0.1605
     36  C        -10.9550   15.0790    9.5300 C.2    46  TYR46       0.2264
     37  O        -11.5470   13.9980    9.6320 O.2    46  TYR46      -0.2867
     38  CB        -9.4300   15.4260    7.5620 C.3    46  TYR46       0.0534
     39  CG        -9.2340   13.9530    7.2230 C.ar   46  TYR46      -0.0201
     40  CD1      -10.0490   13.3240    6.2890 C.ar   46  TYR46      -0.0009
     41  CD2       -8.2230   13.2130    7.8150 C.ar   46  TYR46      -0.0009
     42  CE1       -9.8690   11.9830    5.9610 C.ar   46  TYR46       0.0417
     43  CE2       -8.0330   11.8650    7.5000 C.ar   46  TYR46       0.0417
     44  CZ        -8.8540   11.2650    6.5730 C.ar   46  TYR46       0.1957
     45  OH        -8.6770    9.9380    6.2570 O.3    46  TYR46      -0.2866
     46  N         -6.0080    2.6170    6.9490 N.3    81  ILE81      -0.1245
     47  CA        -5.8330    3.3160    5.6800 C.3    81  ILE81       0.1561
     48  C         -7.0550    3.0930    4.7870 C.2    81  ILE81       0.2260
     49  O         -7.6510    4.0510    4.2500 O.2    81  ILE81      -0.2867
     50  CB        -4.5520    2.8530    4.9490 C.3    81  ILE81       0.0252
     51  CG1       -3.3010    3.2680    5.7380 C.3    81  ILE81       0.0019
     52  CG2       -4.4990    3.4540    3.5430 C.3    81  ILE81       0.0019
     53  CD1       -1.9830    2.8020    5.1140 C.3    81  ILE81       0.0001
     54  N        -10.6600    4.2200    6.6320 N.3    84  ASN84      -0.1225
     55  CA       -10.8240    5.6760    6.7030 C.3    84  ASN84       0.1785
     56  C        -11.2640    6.2070    5.3380 C.2    84  ASN84       0.2597
     57  O        -12.1640    7.0310    5.2130 O.2    84  ASN84      -0.2718
     58  CB        -9.5260    6.3690    7.1210 C.3    84  ASN84       0.1169
     59  CG        -9.1640    6.1390    8.5880 C.2    84  ASN84       0.2627
     60  OD1       -9.9850    5.6810    9.3860 O.2    84  ASN84      -0.2716
     61  ND2       -7.9310    6.4830    8.9440 N.am   84  ASN84      -0.0877
     62  N        -10.6100    5.7000    4.3030 N.am   85  CYS85      -0.1970
     63  CA       -10.8750    6.1520    2.9420 C.3    85  CYS85       0.1712
     64  C        -12.2840    5.7870    2.5040 C.2    85  CYS85       0.2296
     65  O        -12.9780    6.5930    1.8630 O.2    85  CYS85      -0.2864
     66  CB        -9.8390    5.5390    1.9980 C.3    85  CYS85       0.0983
     67  SG       -10.0180    6.0610    0.2820 S.3    85  CYS85      -0.0798
     68  N        -14.7070    8.3270    4.3420 N.3    88  TYR88      -0.1227
     69  CA       -14.6660    9.7340    3.9570 C.3    88  TYR88       0.1736
     70  C        -15.1160    9.9500    2.5240 C.2    88  TYR88       0.2595
     71  O        -15.8110   10.9230    2.2120 O.2    88  TYR88      -0.2718
     72  CB       -13.2590   10.3020    4.1540 C.3    88  TYR88       0.0548
     73  CG       -13.2290   11.7870    3.9640 C.ar   88  TYR88      -0.0200
     74  CD1      -13.6180   12.6430    4.9870 C.ar   88  TYR88      -0.0009
     75  CD2      -12.8350   12.3430    2.7500 C.ar   88  TYR88      -0.0009
     76  CE1      -13.6120   14.0140    4.8090 C.ar   88  TYR88       0.0417
     77  CE2      -12.8280   13.7190    2.5620 C.ar   88  TYR88       0.0417
     78  CZ       -13.2100   14.5480    3.5930 C.ar   88  TYR88       0.1957
     79  OH       -13.2050   15.9180    3.4040 O.3    88  TYR88      -0.2866
     80  N        -14.7470    9.0190    1.6560 N.am   89  ASN89      -0.1974
     81  CA       -15.0320    9.1540    0.2320 C.3    89  ASN89       0.1688
     82  C        -16.2190    8.3090   -0.2160 C.2    89  ASN89       0.2292
     83  O        -16.4170    7.1880    0.2640 O.2    89  ASN89      -0.2864
     84  CB       -13.7750    8.7750   -0.5660 C.3    89  ASN89       0.1181
     85  CG       -12.5820    9.5970   -0.1670 C.2    89  ASN89       0.2629
     86  OD1      -11.6390    9.1050    0.4730 O.2    89  ASN89      -0.2716
     87  ND2      -12.6090   10.8600   -0.5340 N.am   89  ASN89      -0.0877
     88  N        -10.8820    7.6230   -5.1370 N.3    95  PHE95      -0.1241
     89  CA       -10.2980    7.3030   -3.8310 C.3    95  PHE95       0.1605
     90  C        -10.8920    6.0180   -3.2300 C.2    95  PHE95       0.2264
     91  O        -10.1630    5.1120   -2.7960 O.2    95  PHE95      -0.2867
     92  CB       -10.5040    8.4830   -2.8730 C.3    95  PHE95       0.0534
     93  CG       -10.0310    9.7990   -3.4230 C.ar   95  PHE95      -0.0203
     94  CD1       -8.6740   10.0780   -3.5060 C.ar   95  PHE95      -0.0042
     95  CD2      -10.9370   10.7640   -3.8420 C.ar   95  PHE95      -0.0042
     96  CE1       -8.2320   11.2910   -4.0120 C.ar   95  PHE95      -0.0003
     97  CE2      -10.5020   11.9880   -4.3390 C.ar   95  PHE95      -0.0003
     98  CZ        -9.1480   12.2490   -4.4240 C.ar   95  PHE95      -0.0000
@<TRIPOS>BOND
     1     8     6    1
     2    88    89    1
     3     6     5    1
     4    98    97   ar
     5    98    96   ar
     6    97    95   ar
     7    96    94   ar
     8    95    93   ar
     9    89    90    1
    10    89    92    1
    11     1     2    1
    12     5     2    1
    13     5     7    1
    14    94    93   ar
    15    93    92    1
    16    90    91    2
    17     2     3    1
    18     3     9   am
    19     3     4    2
    20    18    16   ar
    21    18    19   ar
    22     9    10    1
    23    16    14   ar
    24    19    17   ar
    25    84    85    1
    26    84    81    1
    27    87    85   am
    28    82    81    1
    29    82    83    2
    30    85    86    2
    31    14    13    1
    32    14    15   ar
    33    81    80    1
    34    17    15   ar
    35    67    66    1
    36    10    13    1
    37    10    11    1
    38    11    12    2
    39    80    70   am
    40    65    64    2
    41    66    63    1
    42    71    70    2
    43    64    63    1
    44    33    31    1
    45    70    69    1
    46    77    75   ar
    47    77    78   ar
    48    75    73   ar
    49    63    62    1
    50    79    78    1
    51    52    50    1
    52    27    28    1
    53    78    76   ar
    54    31    28    1
    55    31    32    1
    56    69    72    1
    57    69    68    1
    58    73    72    1
    59    73    74   ar
    60    26    24    1
    61    28    29    1
    62    49    48    2
    63    25    24    1
    64    62    56   am
    65    21    24    1
    66    21    20    1
    67    21    22    1
    68    48    47    1
    69    76    74   ar
    70    22    23    2
    71    50    47    1
    72    50    51    1
    73    53    51    1
    74    57    56    2
    75    56    55    1
    76    29    30    2
    77    47    46    1
    78    42    40   ar
    79    42    44   ar
    80    45    44    1
    81    40    39   ar
    82    44    43   ar
    83    54    55    1
    84    55    58    1
    85    58    59    1
    86    39    38    1
    87    39    41   ar
    88    43    41   ar
    89    38    35    1
    90    35    34    1
    91    35    36    1
    92    59    61   am
    93    59    60    2
    94    36    37    2
