@<TRIPOS>MOLECULE
tmp/5po7B00.pdb
 117 113 0 0 0
SMALL
GASTEIGER

@<TRIPOS>ATOM
      1  N        -35.1570    6.1530   14.6490 N.3    32  ARG32      -0.1231
      2  CA       -35.0210    4.7000   14.5130 C.3    32  ARG32       0.1694
      3  C        -34.1830    4.2960   13.3000 C.2    32  ARG32       0.2592
      4  O        -34.4220    3.2520   12.6920 O.2    32  ARG32      -0.2718
      5  CB       -36.4030    4.0350   14.4390 C.3    32  ARG32       0.0321
      6  CG       -37.4020    4.5550   15.4690 C.3    32  ARG32       0.0489
      7  CD       -36.9940    4.2120   16.8940 C.3    32  ARG32       0.2205
      8  NE       -37.1570    2.7920   17.1940 N.pl3  32  ARG32      -0.0865
      9  CZ       -36.9200    2.2500   18.3850 C.cat  32  ARG32       0.5346
     10  NH1      -37.0880    0.9490   18.5740 N.pl3  32  ARG32       0.1354
     11  NH2      -36.5170    3.0130   19.3900 N.pl3  32  ARG32       0.1354
     12  N        -33.1980    5.1200   12.9570 N.am   33  ILE33      -0.1966
     13  CA       -32.3150    4.8410   11.8270 C.3    33  ILE33       0.1727
     14  C        -31.5020    3.5640   12.0630 C.2    33  ILE33       0.2616
     15  O        -31.2140    2.8120   11.1210 O.2    33  ILE33      -0.2715
     16  CB       -31.3870    6.0480   11.5620 C.3    33  ILE33       0.0290
     17  CG1      -32.2270    7.2210   11.0310 C.3    33  ILE33       0.0022
     18  CG2      -30.2860    5.7020   10.5700 C.3    33  ILE33       0.0023
     19  CD1      -31.5330    8.5500   11.0300 C.3    33  ILE33       0.0001
     20  N        -31.1760    3.3090   13.3260 N.am   34  PHE34      -0.1974
     21  CA       -30.3020    2.1930   13.6890 C.3    34  PHE34       0.1639
     22  C        -31.0150    1.1170   14.4880 C.2    34  PHE34       0.2290
     23  O        -30.3700    0.2150   15.0300 O.2    34  PHE34      -0.2864
     24  CB       -29.1030    2.7100   14.4880 C.3    34  PHE34       0.0560
     25  CG       -28.3620    3.8060   13.7970 C.ar   34  PHE34      -0.0200
     26  CD1      -27.6180    3.5390   12.6570 C.ar   34  PHE34      -0.0042
     27  CD2      -28.4250    5.1020   14.2680 C.ar   34  PHE34      -0.0042
     28  CE1      -26.9400    4.5510   11.9990 C.ar   34  PHE34      -0.0003
     29  CE2      -27.7420    6.1140   13.6200 C.ar   34  PHE34      -0.0003
     30  CZ       -27.0040    5.8380   12.4790 C.ar   34  PHE34      -0.0000
     31  N        -33.2330   -1.3040   13.6170 N.3    36  GLN36      -0.1245
     32  CA       -33.5240   -2.5950   13.0150 C.3    36  GLN36       0.1566
     33  C        -32.5380   -2.8650   11.8940 C.2    36  GLN36       0.2260
     34  O        -31.9360   -1.9290   11.3590 O.2    36  GLN36      -0.2867
     35  CB       -34.9630   -2.6350   12.4580 C.3    36  GLN36       0.0367
     36  CG       -36.0640   -2.5970   13.5200 C.3    36  GLN36       0.0905
     37  CD       -36.1610   -3.8860   14.2940 C.2    36  GLN36       0.2608
     38  OE1      -35.8580   -4.9590   13.7730 O.2    36  GLN36      -0.2717
     39  NE2      -36.5730   -3.7910   15.5550 N.am   36  GLN36      -0.0878
     40  N        -30.9390   -3.2190    8.3430 N.3    38  VAL38      -0.1231
     41  CA       -31.2300   -2.6070    7.0530 C.3    38  VAL38       0.1692
     42  C        -32.0030   -3.6170    6.2010 C.2    38  VAL38       0.2592
     43  O        -31.6330   -4.7880    6.1250 O.2    38  VAL38      -0.2718
     44  CB       -29.9440   -2.1640    6.3210 C.3    38  VAL38       0.0266
     45  CG1      -30.2490   -1.8150    4.8690 C.3    38  VAL38       0.0020
     46  CG2      -29.2770   -0.9910    7.0540 C.3    38  VAL38       0.0020
     47  N        -33.0840   -3.1660    5.5730 N.am   39  SER39      -0.1952
     48  CA       -33.9240   -4.0540    4.7700 C.3    39  SER39       0.1924
     49  C        -33.3540   -4.2850    3.3750 C.2    39  SER39       0.2314
     50  O        -33.1430   -3.3320    2.6240 O.2    39  SER39      -0.2863
     51  CB       -35.3320   -3.4760    4.6490 C.3    39  SER39       0.2116
     52  OG       -36.0320   -4.0820    3.5770 O.3    39  SER39      -0.2180
     53  N        -35.5940   -3.0250    0.6700 N.3    42  GLU42      -0.1231
     54  CA       -35.4950   -1.5850    0.4660 C.3    42  GLU42       0.1699
     55  C        -34.1250   -1.1750   -0.0650 C.2    42  GLU42       0.2592
     56  O        -33.9940   -0.1970   -0.8000 O.2    42  GLU42      -0.2718
     57  CB       -35.7750   -0.8560    1.7790 C.3    42  GLU42       0.0402
     58  CG       -36.8710    0.1820    1.7100 C.3    42  GLU42       0.1161
     59  CD       -37.6090    0.3120    3.0250 C.2    42  GLU42       0.3649
     60  OE1      -37.6270    1.4220    3.5960 O.co2  42  GLU42      -0.2457
     61  OE2      -38.1730   -0.7040    3.4870 O.co2  42  GLU42      -0.2457
     62  N        -33.0980   -1.9170    0.3390 N.am   43  VAL43      -0.1980
     63  CA       -31.7250   -1.5980   -0.0420 C.3    43  VAL43       0.1595
     64  C        -31.0460   -2.8390   -0.6290 C.2    43  VAL43       0.2287
     65  O        -30.2250   -3.4900    0.0190 O.2    43  VAL43      -0.2864
     66  CB       -30.9190   -1.0650    1.1590 C.3    43  VAL43       0.0276
     67  CG1      -29.6290   -0.4220    0.6950 C.3    43  VAL43       0.0022
     68  CG2      -31.7450   -0.0470    1.9280 C.3    43  VAL43       0.0022
     69  N        -27.1710   -3.6140   -0.3440 N.3    46  TYR46      -0.1241
     70  CA       -26.4900   -3.3990    0.9400 C.3    46  TYR46       0.1605
     71  C        -25.3750   -4.4120    1.1930 C.2    46  TYR46       0.2264
     72  O        -24.2740   -4.0360    1.5890 O.2    46  TYR46      -0.2867
     73  CB       -27.4910   -3.4370    2.0980 C.3    46  TYR46       0.0534
     74  CG       -26.9300   -2.8670    3.3930 C.ar   46  TYR46      -0.0201
     75  CD1      -26.6320   -1.5150    3.5100 C.ar   46  TYR46      -0.0009
     76  CD2      -26.6980   -3.6830    4.4930 C.ar   46  TYR46      -0.0009
     77  CE1      -26.1160   -0.9840    4.6950 C.ar   46  TYR46       0.0417
     78  CE2      -26.1950   -3.1630    5.6740 C.ar   46  TYR46       0.0417
     79  CZ       -25.9010   -1.8160    5.7700 C.ar   46  TYR46       0.1957
     80  OH       -25.3900   -1.2990    6.9430 O.3    46  TYR46      -0.2866
     81  N        -22.5840    2.3730    8.5680 N.3    85  CYS85      -0.1235
     82  CA       -23.3800    3.5030    8.0980 C.3    85  CYS85       0.1677
     83  C        -22.4930    4.5160    7.3870 C.2    85  CYS85       0.2270
     84  O        -22.8790    5.0740    6.3530 O.2    85  CYS85      -0.2867
     85  CB       -24.1140    4.1560    9.2700 C.3    85  CYS85       0.0956
     86  SG       -25.2810    5.4710    8.7690 S.3    85  CYS85      -0.0801
     87  N        -21.4120    2.8660    3.9820 N.3    88  TYR88      -0.1227
     88  CA       -22.4460    2.7090    2.9610 C.3    88  TYR88       0.1736
     89  C        -22.9800    4.0460    2.4460 C.2    88  TYR88       0.2595
     90  O        -23.2360    4.1930    1.2460 O.2    88  TYR88      -0.2718
     91  CB       -23.6210    1.8610    3.4690 C.3    88  TYR88       0.0548
     92  CG       -24.6210    1.6540    2.3540 C.ar   88  TYR88      -0.0200
     93  CD1      -24.3860    0.7110    1.3620 C.ar   88  TYR88      -0.0009
     94  CD2      -25.7570    2.4430    2.2550 C.ar   88  TYR88      -0.0009
     95  CE1      -25.2720    0.5430    0.3090 C.ar   88  TYR88       0.0417
     96  CE2      -26.6560    2.2750    1.2090 C.ar   88  TYR88       0.0417
     97  CZ       -26.4030    1.3310    0.2430 C.ar   88  TYR88       0.1957
     98  OH       -27.3020    1.1750   -0.7960 O.3    88  TYR88      -0.2866
     99  N        -23.1550    5.0100    3.3400 N.am   89  ASN89      -0.1974
    100  CA       -23.7400    6.2950    2.9470 C.3    89  ASN89       0.1688
    101  C        -22.6810    7.3400    2.6180 C.2    89  ASN89       0.2292
    102  O        -21.6120    7.3640    3.2230 O.2    89  ASN89      -0.2864
    103  CB       -24.6580    6.8070    4.0530 C.3    89  ASN89       0.1181
    104  CG       -25.7640    5.8380    4.3670 C.2    89  ASN89       0.2629
    105  OD1      -25.6630    5.0250    5.2960 O.2    89  ASN89      -0.2716
    106  ND2      -26.8150    5.8740    3.5590 N.am   89  ASN89      -0.0877
    107  N        -28.2090   10.3870    6.9150 N.3    95  PHE95      -0.1241
    108  CA       -27.9000    9.1550    7.6530 C.3    95  PHE95       0.1605
    109  C        -26.4310    9.1110    8.0750 C.2    95  PHE95       0.2264
    110  O        -26.1180    8.6820    9.1910 O.2    95  PHE95      -0.2867
    111  CB       -28.2480    7.9120    6.8310 C.3    95  PHE95       0.0534
    112  CG       -29.7230    7.6910    6.6570 C.ar   95  PHE95      -0.0203
    113  CD1      -30.6430    8.3660    7.4460 C.ar   95  PHE95      -0.0042
    114  CD2      -30.1900    6.8300    5.6790 C.ar   95  PHE95      -0.0042
    115  CE1      -32.0050    8.1650    7.2760 C.ar   95  PHE95      -0.0003
    116  CE2      -31.5480    6.6340    5.4920 C.ar   95  PHE95      -0.0003
    117  CZ       -32.4560    7.2990    6.2920 C.ar   95  PHE95      -0.0000
@<TRIPOS>BOND
     1    56    55    2
     2    98    97    1
     3    64    63    1
     4    64    65    2
     5    69    70    1
     6    55    62   am
     7    55    54    1
     8    63    62    1
     9    63    66    1
    10    97    95   ar
    11    97    96   ar
    12    95    93   ar
    13    54    53    1
    14    54    57    1
    15    67    66    1
    16    70    71    1
    17    70    73    1
    18    66    68    1
    19    71    72    2
    20    96    94   ar
    21    90    89    2
    22    93    92   ar
    23    58    57    1
    24    58    59    1
    25    73    74    1
    26    94    92   ar
    27    92    91    1
    28    89    88    1
    29    89    99   am
    30   101   100    1
    31   101   102    2
    32    50    49    2
    33   100    99    1
    34   100   103    1
    35    88    91    1
    36    88    87    1
    37    59    61   ar
    38    59    60   ar
    39    49    48    1
    40    74    75   ar
    41    74    76   ar
    42    75    77   ar
    43   106   104   am
    44    52    51    1
    45   103   104    1
    46   104   105    2
    47    76    78   ar
    48    51    48    1
    49    77    79   ar
    50    48    47    1
    51    45    44    1
    52   116   114   ar
    53   116   117   ar
    54    47    42   am
    55    78    79   ar
    56   114   112   ar
    57    79    80    1
    58    43    42    2
    59    42    41    1
    60   117   115   ar
    61    44    41    1
    62    44    46    1
    63    84    83    2
    64   112   111    1
    65   112   113   ar
    66   111   108    1
    67   107   108    1
    68    41    40    1
    69   115   113   ar
    70    83    82    1
    71   108   109    1
    72   109   110    2
    73    82    81    1
    74    82    85    1
    75    86    85    1
    76    18    16    1
    77    19    17    1
    78    17    16    1
    79    15    14    2
    80    34    33    2
    81    16    13    1
    82    13    14    1
    83    13    12    1
    84    33    32    1
    85    28    30   ar
    86    28    26   ar
    87    14    20   am
    88    35    32    1
    89    35    36    1
    90    30    29   ar
    91    26    25   ar
    92     4     3    2
    93    12     3   am
    94    32    31    1
    95     3     2    1
    96    20    21    1
    97    36    37    1
    98    29    27   ar
    99    21    22    1
   100    21    24    1
   101    38    37    2
   102    25    27   ar
   103    25    24    1
   104    37    39   am
   105     5     2    1
   106     5     6    1
   107    22    23    2
   108     2     1    1
   109     6     7    1
   110     7     8    1
   111     8     9    2
   112     9    10    1
   113     9    11    1
