@<TRIPOS>MOLECULE
tmp/5po8B00.pdb
 117 113 0 0 0
SMALL
GASTEIGER

@<TRIPOS>ATOM
      1  N        -35.1130    5.9250   14.9050 N.3    32  ARG32      -0.1231
      2  CA       -34.9300    4.4780   14.7880 C.3    32  ARG32       0.1694
      3  C        -34.1570    4.0820   13.5280 C.2    32  ARG32       0.2592
      4  O        -34.3820    3.0120   12.9530 O.2    32  ARG32      -0.2718
      5  CB       -36.2870    3.7680   14.8260 C.3    32  ARG32       0.0321
      6  CG       -37.2050    4.2900   15.9320 C.3    32  ARG32       0.0489
      7  CD       -36.7070    3.9470   17.3310 C.3    32  ARG32       0.2205
      8  NE       -36.7760    2.5160   17.6250 N.pl3  32  ARG32      -0.0865
      9  CZ       -36.4910    1.9810   18.8090 C.cat  32  ARG32       0.5346
     10  NH1      -36.5710    0.6700   18.9860 N.pl3  32  ARG32       0.1354
     11  NH2      -36.1280    2.7570   19.8190 N.pl3  32  ARG32       0.1354
     12  N        -33.2220    4.9380   13.1230 N.am   33  ILE33      -0.1966
     13  CA       -32.3830    4.6690   11.9620 C.3    33  ILE33       0.1727
     14  C        -31.5450    3.4010   12.1520 C.2    33  ILE33       0.2616
     15  O        -31.3570    2.6370   11.2080 O.2    33  ILE33      -0.2715
     16  CB       -31.4630    5.8710   11.6760 C.3    33  ILE33       0.0290
     17  CG1      -32.3220    7.0560   11.2060 C.3    33  ILE33       0.0022
     18  CG2      -30.3990    5.5210   10.6170 C.3    33  ILE33       0.0023
     19  CD1      -31.5860    8.3970   11.2030 C.3    33  ILE33       0.0001
     20  N        -31.0790    3.1700   13.3820 N.am   34  PHE34      -0.1974
     21  CA       -30.1850    2.0510   13.6830 C.3    34  PHE34       0.1639
     22  C        -30.8540    0.9670   14.5130 C.2    34  PHE34       0.2290
     23  O        -30.1850    0.0720   15.0330 O.2    34  PHE34      -0.2864
     24  CB       -28.9420    2.5780   14.4060 C.3    34  PHE34       0.0560
     25  CG       -28.2540    3.6890   13.6600 C.ar   34  PHE34      -0.0200
     26  CD1      -27.5300    3.4170   12.4990 C.ar   34  PHE34      -0.0042
     27  CD2      -28.3690    5.0060   14.0860 C.ar   34  PHE34      -0.0042
     28  CE1      -26.9030    4.4350   11.7920 C.ar   34  PHE34      -0.0003
     29  CE2      -27.7460    6.0350   13.3790 C.ar   34  PHE34      -0.0003
     30  CZ       -27.0140    5.7470   12.2280 C.ar   34  PHE34      -0.0000
     31  N        -33.0590   -1.4720   13.7190 N.3    36  GLN36      -0.1245
     32  CA       -33.3390   -2.7720   13.1140 C.3    36  GLN36       0.1566
     33  C        -32.3860   -3.0380   11.9650 C.2    36  GLN36       0.2260
     34  O        -31.8000   -2.0990   11.4170 O.2    36  GLN36      -0.2867
     35  CB       -34.7950   -2.8360   12.5970 C.3    36  GLN36       0.0367
     36  CG       -35.8640   -2.8270   13.6780 C.3    36  GLN36       0.0905
     37  CD       -35.9210   -4.1300   14.4520 C.2    36  GLN36       0.2608
     38  OE1      -35.5680   -5.1920   13.9350 O.2    36  GLN36      -0.2717
     39  NE2      -36.3460   -4.0500   15.7090 N.am   36  GLN36      -0.0878
     40  N        -30.9190   -3.3540    8.3540 N.3    38  VAL38      -0.1231
     41  CA       -31.2650   -2.7130    7.0870 C.3    38  VAL38       0.1692
     42  C        -32.0660   -3.7050    6.2450 C.2    38  VAL38       0.2592
     43  O        -31.6830   -4.8680    6.1200 O.2    38  VAL38      -0.2718
     44  CB       -30.0070   -2.2630    6.3080 C.3    38  VAL38       0.0266
     45  CG1      -30.3980   -1.7030    4.9450 C.3    38  VAL38       0.0020
     46  CG2      -29.1940   -1.2490    7.1150 C.3    38  VAL38       0.0020
     47  N        -33.1800   -3.2480    5.6860 N.am   39  SER39      -0.1952
     48  CA       -34.0140   -4.1050    4.8320 C.3    39  SER39       0.1924
     49  C        -33.4010   -4.3030    3.4490 C.2    39  SER39       0.2314
     50  O        -33.1480   -3.3410    2.7260 O.2    39  SER39      -0.2863
     51  CB       -35.4160   -3.5130    4.6920 C.3    39  SER39       0.2116
     52  OG       -36.0980   -4.1020    3.5990 O.3    39  SER39      -0.2180
     53  N        -35.7060   -2.9790    0.7400 N.3    42  GLU42      -0.1231
     54  CA       -35.5820   -1.5420    0.5060 C.3    42  GLU42       0.1699
     55  C        -34.2180   -1.1350   -0.0540 C.2    42  GLU42       0.2592
     56  O        -34.1170   -0.1880   -0.8390 O.2    42  GLU42      -0.2718
     57  CB       -35.8480   -0.7770    1.8030 C.3    42  GLU42       0.0402
     58  CG       -37.2600   -1.0300    2.3310 C.3    42  GLU42       0.1161
     59  CD       -38.1850    0.0170    1.7410 C.2    42  GLU42       0.3649
     60  OE1      -37.7670    0.9060    0.9600 O.co2  42  GLU42      -0.2457
     61  OE2      -39.3870   -0.0630    2.0160 O.co2  42  GLU42      -0.2457
     62  N        -33.1670   -1.8390    0.3630 N.am   43  VAL43      -0.1980
     63  CA       -31.8110   -1.5230   -0.0550 C.3    43  VAL43       0.1595
     64  C        -31.1540   -2.7700   -0.6400 C.2    43  VAL43       0.2287
     65  O        -30.3160   -3.4040    0.0020 O.2    43  VAL43      -0.2864
     66  CB       -30.9710   -0.9840    1.1320 C.3    43  VAL43       0.0276
     67  CG1      -29.6690   -0.3820    0.6340 C.3    43  VAL43       0.0022
     68  CG2      -31.7770    0.0430    1.9250 C.3    43  VAL43       0.0022
     69  N        -27.2480   -3.4850   -0.3930 N.3    46  TYR46      -0.1241
     70  CA       -26.5480   -3.2630    0.8800 C.3    46  TYR46       0.1605
     71  C        -25.4120   -4.2580    1.1230 C.2    46  TYR46       0.2264
     72  O        -24.3050   -3.8650    1.5190 O.2    46  TYR46      -0.2867
     73  CB       -27.5420   -3.3010    2.0450 C.3    46  TYR46       0.0534
     74  CG       -26.9550   -2.7810    3.3490 C.ar   46  TYR46      -0.0201
     75  CD1      -26.5970   -1.4440    3.4890 C.ar   46  TYR46      -0.0009
     76  CD2      -26.7420   -3.6320    4.4240 C.ar   46  TYR46      -0.0009
     77  CE1      -26.0450   -0.9620    4.6760 C.ar   46  TYR46       0.0417
     78  CE2      -26.1960   -3.1630    5.6130 C.ar   46  TYR46       0.0417
     79  CZ       -25.8530   -1.8280    5.7300 C.ar   46  TYR46       0.1957
     80  OH       -25.3120   -1.3660    6.9150 O.3    46  TYR46      -0.2866
     81  N        -22.5380    2.4850    8.4610 N.3    85  CYS85      -0.1235
     82  CA       -23.3090    3.6320    7.9950 C.3    85  CYS85       0.1677
     83  C        -22.4200    4.6730    7.3180 C.2    85  CYS85       0.2270
     84  O        -22.7930    5.2400    6.2840 O.2    85  CYS85      -0.2867
     85  CB       -24.0810    4.2450    9.1750 C.3    85  CYS85       0.0956
     86  SG       -25.2280    5.5740    8.6690 S.3    85  CYS85      -0.0801
     87  N        -21.3780    3.0660    3.9140 N.3    88  TYR88      -0.1227
     88  CA       -22.4170    2.9490    2.8920 C.3    88  TYR88       0.1736
     89  C        -22.9180    4.3060    2.3710 C.2    88  TYR88       0.2595
     90  O        -23.2520    4.4420    1.1880 O.2    88  TYR88      -0.2718
     91  CB       -23.6100    2.1440    3.4130 C.3    88  TYR88       0.0548
     92  CG       -24.6300    1.9270    2.3280 C.ar   88  TYR88      -0.0200
     93  CD1      -24.4500    0.9380    1.3700 C.ar   88  TYR88      -0.0009
     94  CD2      -25.7540    2.7360    2.2400 C.ar   88  TYR88      -0.0009
     95  CE1      -25.3870    0.7590    0.3460 C.ar   88  TYR88       0.0417
     96  CE2      -26.6930    2.5620    1.2260 C.ar   88  TYR88       0.0417
     97  CZ       -26.4980    1.5700    0.2910 C.ar   88  TYR88       0.1957
     98  OH       -27.4130    1.3900   -0.7340 O.3    88  TYR88      -0.2866
     99  N        -22.9910    5.2990    3.2490 N.am   89  ASN89      -0.1974
    100  CA       -23.5420    6.6020    2.8740 C.3    89  ASN89       0.1688
    101  C        -22.4720    7.6550    2.6040 C.2    89  ASN89       0.2292
    102  O        -21.4160    7.6770    3.2450 O.2    89  ASN89      -0.2864
    103  CB       -24.4870    7.0960    3.9720 C.3    89  ASN89       0.1181
    104  CG       -25.6440    6.1550    4.1930 C.2    89  ASN89       0.2629
    105  OD1      -26.6310    6.1900    3.4540 O.2    89  ASN89      -0.2716
    106  ND2      -25.5260    5.2840    5.1900 N.am   89  ASN89      -0.0877
    107  N        -28.1160   10.4560    6.8890 N.3    95  PHE95      -0.1241
    108  CA       -27.7900    9.2470    7.6580 C.3    95  PHE95       0.1605
    109  C        -26.3030    9.2050    8.0450 C.2    95  PHE95       0.2264
    110  O        -25.9820    8.7630    9.1410 O.2    95  PHE95      -0.2867
    111  CB       -28.1790    7.9670    6.9010 C.3    95  PHE95       0.0534
    112  CG       -29.6510    7.5980    7.0110 C.ar   95  PHE95      -0.0203
    113  CD1      -30.5950    8.4940    7.4850 C.ar   95  PHE95      -0.0042
    114  CD2      -30.0730    6.3340    6.6350 C.ar   95  PHE95      -0.0042
    115  CE1      -31.9340    8.1260    7.5750 C.ar   95  PHE95      -0.0003
    116  CE2      -31.4070    5.9660    6.7160 C.ar   95  PHE95      -0.0003
    117  CZ       -32.3340    6.8630    7.1810 C.ar   95  PHE95      -0.0000
@<TRIPOS>BOND
     1    56    55    2
     2    98    97    1
     3    64    63    1
     4    64    65    2
     5    69    70    1
     6    63    62    1
     7    63    66    1
     8    55    62   am
     9    55    54    1
    10    97    95   ar
    11    97    96   ar
    12    95    93   ar
    13    54    53    1
    14    54    57    1
    15    67    66    1
    16    70    71    1
    17    70    73    1
    18    60    59   ar
    19    71    72    2
    20    66    68    1
    21    90    89    2
    22    96    94   ar
    23    93    92   ar
    24    59    61   ar
    25    59    58    1
    26    57    58    1
    27    73    74    1
    28    94    92   ar
    29    92    91    1
    30    89    88    1
    31    89    99   am
    32   101   100    1
    33   101   102    2
    34    50    49    2
    35   100    99    1
    36   100   103    1
    37    88    91    1
    38    88    87    1
    39    74    75   ar
    40    74    76   ar
    41    49    48    1
    42   105   104    2
    43    75    77   ar
    44    52    51    1
    45   103   104    1
    46   104   106   am
    47    76    78   ar
    48    77    79   ar
    49    51    48    1
    50    48    47    1
    51    45    44    1
    52    78    79   ar
    53    47    42   am
    54    79    80    1
    55    43    42    2
    56    42    41    1
    57    84    83    2
    58    44    41    1
    59    44    46    1
    60   114   116   ar
    61   114   112   ar
    62   116   117   ar
    63   107   108    1
    64   111   112    1
    65   111   108    1
    66   112   113   ar
    67    41    40    1
    68   117   115   ar
    69    83    82    1
    70   113   115   ar
    71   108   109    1
    72    82    81    1
    73    82    85    1
    74   109   110    2
    75    86    85    1
    76    18    16    1
    77    19    17    1
    78    17    16    1
    79    15    14    2
    80    34    33    2
    81    16    13    1
    82    28    30   ar
    83    28    26   ar
    84    13    14    1
    85    13    12    1
    86    33    32    1
    87    14    20   am
    88    30    29   ar
    89    26    25   ar
    90    35    32    1
    91    35    36    1
    92     4     3    2
    93    32    31    1
    94    12     3   am
    95    29    27   ar
    96    20    21    1
    97     3     2    1
    98    25    27   ar
    99    25    24    1
   100    36    37    1
   101    21    24    1
   102    21    22    1
   103    38    37    2
   104    37    39   am
   105    22    23    2
   106     2     5    1
   107     2     1    1
   108     5     6    1
   109     6     7    1
   110     7     8    1
   111     8     9    2
   112     9    10    1
   113     9    11    1
