@<TRIPOS>MOLECULE
tmp/5po9B00.pdb
 114 109 0 0 0
SMALL
GASTEIGER

@<TRIPOS>ATOM
      1  N        -32.9190    4.5290   13.0480 N.3    33  ILE33      -0.1231
      2  CA       -32.0100    4.3410   11.9170 C.3    33  ILE33       0.1692
      3  C        -31.0830    3.1410   12.1040 C.2    33  ILE33       0.2592
      4  O        -30.7200    2.4750   11.1410 O.2    33  ILE33      -0.2718
      5  CB       -31.1570    5.6150   11.6970 C.3    33  ILE33       0.0266
      6  CG1      -32.0160    6.7580   11.1670 C.3    33  ILE33       0.0019
      7  CG2      -30.0470    5.3870   10.7230 C.3    33  ILE33       0.0020
      8  CD1      -31.3120    8.0840   11.2380 C.3    33  ILE33       0.0001
      9  N        -30.6980    2.8720   13.3470 N.am   34  PHE34      -0.1976
     10  CA       -29.7860    1.7680   13.6360 C.3    34  PHE34       0.1639
     11  C        -30.4770    0.6600   14.4320 C.2    34  PHE34       0.2290
     12  O        -29.8260   -0.1810   15.0240 O.2    34  PHE34      -0.2864
     13  CB       -28.5580    2.2860   14.3970 C.3    34  PHE34       0.0560
     14  CG       -27.9600    3.4840   13.7670 C.ar   34  PHE34      -0.0200
     15  CD1      -27.3080    3.3800   12.5580 C.ar   34  PHE34      -0.0042
     16  CD2      -28.0790    4.7190   14.3480 C.ar   34  PHE34      -0.0042
     17  CE1      -26.8020    4.4840   11.9420 C.ar   34  PHE34      -0.0003
     18  CE2      -27.5430    5.8250   13.7310 C.ar   34  PHE34      -0.0003
     19  CZ       -26.9240    5.7080   12.5280 C.ar   34  PHE34      -0.0000
     20  N        -32.4890   -1.8490   13.4980 N.3    36  GLN36      -0.1245
     21  CA       -32.7080   -3.1400   12.8260 C.3    36  GLN36       0.1566
     22  C        -31.6920   -3.3450   11.7080 C.2    36  GLN36       0.2260
     23  O        -31.0930   -2.3740   11.2520 O.2    36  GLN36      -0.2867
     24  CB       -34.1210   -3.2080   12.2380 C.3    36  GLN36       0.0367
     25  CG       -35.2600   -3.2060   13.2530 C.3    36  GLN36       0.0905
     26  CD       -35.3380   -4.4910   14.0840 C.2    36  GLN36       0.2608
     27  OE1      -34.8280   -5.5490   13.6860 O.2    36  GLN36      -0.2717
     28  NE2      -35.9450   -4.3890   15.2600 N.am   36  GLN36      -0.0878
     29  N        -30.1000   -3.5230    8.1280 N.3    38  VAL38      -0.1231
     30  CA       -30.4190   -2.9140    6.8480 C.3    38  VAL38       0.1692
     31  C        -31.1640   -3.9270    5.9630 C.2    38  VAL38       0.2592
     32  O        -30.7030   -5.0470    5.7550 O.2    38  VAL38      -0.2718
     33  CB       -29.1510   -2.4080    6.1400 C.3    38  VAL38       0.0266
     34  CG1      -29.4570   -1.9890    4.6950 C.3    38  VAL38       0.0020
     35  CG2      -28.5280   -1.2460    6.9330 C.3    38  VAL38       0.0020
     36  N        -32.3410   -3.5440    5.4910 N.am   39  SER39      -0.1952
     37  CA       -33.1370   -4.3930    4.6050 C.3    39  SER39       0.1924
     38  C        -32.5530   -4.5080    3.2150 C.2    39  SER39       0.2314
     39  O        -32.2700   -3.4930    2.5900 O.2    39  SER39      -0.2863
     40  CB       -34.5530   -3.8450    4.4700 C.3    39  SER39       0.2116
     41  OG       -35.2360   -4.5530    3.4570 O.3    39  SER39      -0.2180
     42  N        -34.8210   -3.2490    0.5150 N.3    42  GLU42      -0.1231
     43  CA       -34.7040   -1.8040    0.3790 C.3    42  GLU42       0.1699
     44  C        -33.3370   -1.3770   -0.1600 C.2    42  GLU42       0.2592
     45  O        -33.2240   -0.4140   -0.9090 O.2    42  GLU42      -0.2718
     46  CB       -34.9800   -1.1330    1.7250 C.3    42  GLU42       0.0402
     47  CG       -36.3930   -1.4300    2.2270 C.3    42  GLU42       0.1161
     48  CD       -37.3210   -0.3500    1.7080 C.2    42  GLU42       0.3649
     49  OE1      -36.9060    0.5940    0.9930 O.co2  42  GLU42      -0.2457
     50  OE2      -38.5240   -0.4550    1.9710 O.co2  42  GLU42      -0.2457
     51  N        -32.2870   -2.0880    0.2150 N.am   43  VAL43      -0.1980
     52  CA       -30.9480   -1.7140   -0.2370 C.3    43  VAL43       0.1595
     53  C        -30.2360   -2.9280   -0.8050 C.2    43  VAL43       0.2287
     54  O        -29.3520   -3.4790   -0.1650 O.2    43  VAL43      -0.2864
     55  CB       -30.0970   -1.1250    0.9030 C.3    43  VAL43       0.0276
     56  CG1      -28.8910   -0.4380    0.3420 C.3    43  VAL43       0.0022
     57  CG2      -30.9070   -0.1530    1.7210 C.3    43  VAL43       0.0022
     58  N        -26.3850   -3.6150   -0.5630 N.3    46  TYR46      -0.1241
     59  CA       -25.7330   -3.3750    0.7250 C.3    46  TYR46       0.1605
     60  C        -24.5950   -4.3250    0.9380 C.2    46  TYR46       0.2264
     61  O        -23.4790   -3.8950    1.2090 O.2    46  TYR46      -0.2867
     62  CB       -26.6930   -3.5070    1.8800 C.3    46  TYR46       0.0534
     63  CG       -26.1650   -2.9260    3.1730 C.ar   46  TYR46      -0.0201
     64  CD1      -25.8290   -1.5770    3.2640 C.ar   46  TYR46      -0.0009
     65  CD2      -26.0150   -3.7160    4.3000 C.ar   46  TYR46      -0.0009
     66  CE1      -25.3560   -1.0320    4.4440 C.ar   46  TYR46       0.0417
     67  CE2      -25.5560   -3.1840    5.4860 C.ar   46  TYR46       0.0417
     68  CZ       -25.2260   -1.8390    5.5500 C.ar   46  TYR46       0.1957
     69  OH       -24.7740   -1.3000    6.7340 O.3    46  TYR46      -0.2866
     70  N        -21.4630   -0.6760   13.5950 N.3    81  ILE81      -0.1245
     71  CA       -22.6800    0.0350   13.2190 C.3    81  ILE81       0.1561
     72  C        -22.3550    1.4000   12.5980 C.2    81  ILE81       0.2260
     73  O        -22.9250    1.7780   11.5650 O.2    81  ILE81      -0.2867
     74  CB       -23.5950    0.2480   14.4290 C.3    81  ILE81       0.0252
     75  CG1      -24.2990   -1.0480   14.8170 C.3    81  ILE81       0.0019
     76  CG2      -24.6180    1.2990   14.1230 C.3    81  ILE81       0.0019
     77  CD1      -25.1520   -0.8890   16.0900 C.3    81  ILE81       0.0001
     78  N        -22.1040    2.4830    8.2940 N.3    85  CYS85      -0.1235
     79  CA       -22.9570    3.5630    7.8560 C.3    85  CYS85       0.1677
     80  C        -22.1270    4.6910    7.2530 C.2    85  CYS85       0.2270
     81  O        -22.5130    5.2730    6.2320 O.2    85  CYS85      -0.2867
     82  CB       -23.8080    4.0590    9.0330 C.3    85  CYS85       0.0956
     83  SG       -25.0380    5.3270    8.6400 S.3    85  CYS85      -0.0801
     84  N        -20.8610    3.2800    3.7940 N.3    88  TYR88      -0.1227
     85  CA       -21.8610    3.1640    2.7510 C.3    88  TYR88       0.1736
     86  C        -22.4470    4.5060    2.2890 C.2    88  TYR88       0.2595
     87  O        -22.6140    4.7400    1.0940 O.2    88  TYR88      -0.2718
     88  CB       -22.9960    2.2560    3.2000 C.3    88  TYR88       0.0548
     89  CG       -23.9320    1.9630    2.0550 C.ar   88  TYR88      -0.0200
     90  CD1      -23.6270    0.9630    1.1320 C.ar   88  TYR88      -0.0009
     91  CD2      -25.1070    2.6940    1.8750 C.ar   88  TYR88      -0.0009
     92  CE1      -24.4560    0.7030    0.0760 C.ar   88  TYR88       0.0417
     93  CE2      -25.9610    2.4260    0.8080 C.ar   88  TYR88       0.0417
     94  CZ       -25.6340    1.4360   -0.0830 C.ar   88  TYR88       0.1957
     95  OH       -26.4600    1.1660   -1.1450 O.3    88  TYR88      -0.2866
     96  N        -22.7740    5.3780    3.2320 N.am   89  ASN89      -0.1974
     97  CA       -23.4310    6.6340    2.8880 C.3    89  ASN89       0.1688
     98  C        -22.4360    7.7340    2.6500 C.2    89  ASN89       0.2292
     99  O        -21.4440    7.8250    3.3590 O.2    89  ASN89      -0.2864
    100  CB       -24.3890    7.0550    4.0020 C.3    89  ASN89       0.1181
    101  CG       -25.3830    5.9950    4.3190 C.2    89  ASN89       0.2629
    102  OD1      -25.2090    5.2290    5.2700 O.2    89  ASN89      -0.2716
    103  ND2      -26.4360    5.9180    3.5110 N.am   89  ASN89      -0.0877
    104  N        -28.0570   10.2250    6.9430 N.3    95  PHE95      -0.1241
    105  CA       -27.7080    9.0020    7.6470 C.3    95  PHE95       0.1605
    106  C        -26.2170    8.9700    8.0270 C.2    95  PHE95       0.2264
    107  O        -25.8460    8.4500    9.0930 O.2    95  PHE95      -0.2867
    108  CB       -28.0680    7.7590    6.8240 C.3    95  PHE95       0.0534
    109  CG       -29.5170    7.3660    6.9080 C.ar   95  PHE95      -0.0203
    110  CD1      -30.4390    8.1900    7.5100 C.ar   95  PHE95      -0.0042
    111  CD2      -29.9550    6.1670    6.3700 C.ar   95  PHE95      -0.0042
    112  CE1      -31.7790    7.8230    7.5800 C.ar   95  PHE95      -0.0003
    113  CE2      -31.2800    5.8030    6.4390 C.ar   95  PHE95      -0.0003
    114  CZ       -32.1910    6.6300    7.0440 C.ar   95  PHE95      -0.0000
@<TRIPOS>BOND
     1    95    94    1
     2    45    44    2
     3    53    52    1
     4    53    54    2
     5    58    59    1
     6    52    51    1
     7    52    55    1
     8    44    51   am
     9    44    43    1
    10    94    92   ar
    11    94    93   ar
    12    92    90   ar
    13    56    55    1
    14    43    42    1
    15    43    46    1
    16    59    60    1
    17    59    62    1
    18    93    91   ar
    19    55    57    1
    20    60    61    2
    21    49    48   ar
    22    87    86    2
    23    90    89   ar
    24    48    50   ar
    25    48    47    1
    26    46    47    1
    27    91    89   ar
    28    62    63    1
    29    89    88    1
    30    86    85    1
    31    86    96   am
    32    39    38    2
    33    98    97    1
    34    98    99    2
    35    85    88    1
    36    85    84    1
    37    97    96    1
    38    97   100    1
    39    63    64   ar
    40    63    65   ar
    41    38    37    1
    42    64    66   ar
    43    41    40    1
    44   103   101   am
    45   100   101    1
    46    65    67   ar
    47   101   102    2
    48    66    68   ar
    49    40    37    1
    50    37    36    1
    51    34    33    1
    52    67    68   ar
    53    36    31   am
    54    68    69    1
    55    32    31    2
    56    31    30    1
    57    33    30    1
    58    33    35    1
    59    81    80    2
    60   111   113   ar
    61   111   109   ar
    62   113   114   ar
    63   108   109    1
    64   108   105    1
    65    30    29    1
    66   109   110   ar
    67   104   105    1
    68   114   112   ar
    69    80    79    1
    70   110   112   ar
    71   105   106    1
    72    79    78    1
    73    79    82    1
    74   106   107    2
    75    83    82    1
    76     7     5    1
    77     4     3    2
    78     6     8    1
    79     6     5    1
    80    23    22    2
    81    73    72    2
    82     5     2    1
    83    22    21    1
    84     2     3    1
    85     2     1    1
    86    17    19   ar
    87    17    15   ar
    88     3     9   am
    89    24    21    1
    90    24    25    1
    91    19    18   ar
    92    15    14   ar
    93    72    71    1
    94    21    20    1
    95    71    70    1
    96    71    74    1
    97    25    26    1
    98     9    10    1
    99    10    13    1
   100    10    11    1
   101    27    26    2
   102    18    16   ar
   103    14    16   ar
   104    14    13    1
   105    26    28   am
   106    76    74    1
   107    74    75    1
   108    11    12    2
   109    75    77    1
