@<TRIPOS>MOLECULE
tmp/5pobB00.pdb
 106 102 0 0 0
SMALL
GASTEIGER

@<TRIPOS>ATOM
      1  N        -33.3180    5.0590   13.1190 N.3    33  ILE33      -0.1231
      2  CA       -32.4530    4.7790   11.9680 C.3    33  ILE33       0.1692
      3  C        -31.5990    3.5170   12.1640 C.2    33  ILE33       0.2592
      4  O        -31.3950    2.7460   11.2300 O.2    33  ILE33      -0.2718
      5  CB       -31.5460    5.9870   11.6890 C.3    33  ILE33       0.0266
      6  CG1      -32.4000    7.1500   11.1690 C.3    33  ILE33       0.0019
      7  CG2      -30.4590    5.6510   10.6740 C.3    33  ILE33       0.0020
      8  CD1      -31.6760    8.4850   11.1450 C.3    33  ILE33       0.0001
      9  N        -31.1210    3.3060   13.3880 N.am   34  PHE34      -0.1976
     10  CA       -30.2220    2.1920   13.6790 C.3    34  PHE34       0.1639
     11  C        -30.9130    1.1060   14.5070 C.2    34  PHE34       0.2290
     12  O        -30.2710    0.2010   15.0350 O.2    34  PHE34      -0.2864
     13  CB       -28.9680    2.7200   14.4010 C.3    34  PHE34       0.0560
     14  CG       -28.2490    3.8080   13.6340 C.ar   34  PHE34      -0.0200
     15  CD1      -27.5020    3.5010   12.5020 C.ar   34  PHE34      -0.0042
     16  CD2      -28.3410    5.1410   14.0320 C.ar   34  PHE34      -0.0042
     17  CE1      -26.8360    4.5010   11.7790 C.ar   34  PHE34      -0.0003
     18  CE2      -27.6860    6.1570   13.3100 C.ar   34  PHE34      -0.0003
     19  CZ       -26.9200    5.8300   12.1830 C.ar   34  PHE34      -0.0000
     20  N        -33.0640   -1.3590   13.6750 N.3    36  GLN36      -0.1245
     21  CA       -33.3560   -2.6440   13.0450 C.3    36  GLN36       0.1566
     22  C        -32.3930   -2.8600   11.8920 C.2    36  GLN36       0.2260
     23  O        -31.8430   -1.8880   11.3730 O.2    36  GLN36      -0.2867
     24  CB       -34.8080   -2.6750   12.5210 C.3    36  GLN36       0.0367
     25  CG       -35.8880   -2.6360   13.5980 C.3    36  GLN36       0.0905
     26  CD       -35.9990   -3.9490   14.3460 C.2    36  GLN36       0.2608
     27  OE1      -35.6820   -5.0120   13.8070 O.2    36  GLN36      -0.2717
     28  NE2      -36.4310   -3.8820   15.6040 N.am   36  GLN36      -0.0878
     29  N        -30.8630   -3.0530    8.3290 N.3    38  VAL38      -0.1231
     30  CA       -31.1640   -2.3900    7.0720 C.3    38  VAL38       0.1692
     31  C        -31.8650   -3.3840    6.1490 C.2    38  VAL38       0.2592
     32  O        -31.3670   -4.4890    5.9430 O.2    38  VAL38      -0.2718
     33  CB       -29.8820   -1.8570    6.4000 C.3    38  VAL38       0.0266
     34  CG1      -30.1820   -1.3440    5.0020 C.3    38  VAL38       0.0020
     35  CG2      -29.2340   -0.7650    7.2740 C.3    38  VAL38       0.0020
     36  N        -33.0090   -2.9870    5.6000 N.am   39  SER39      -0.1952
     37  CA       -33.8080   -3.8740    4.7500 C.3    39  SER39       0.1924
     38  C        -33.2160   -4.0930    3.3610 C.2    39  SER39       0.2314
     39  O        -32.9550   -3.1430    2.6220 O.2    39  SER39      -0.2863
     40  CB       -35.2260   -3.3280    4.5930 C.3    39  SER39       0.2116
     41  OG       -35.8980   -4.0170    3.5510 O.3    39  SER39      -0.2180
     42  N        -35.5850   -2.7440    0.7400 N.3    42  GLU42      -0.1231
     43  CA       -35.4490   -1.3080    0.5250 C.3    42  GLU42       0.1699
     44  C        -34.0780   -0.9330   -0.0440 C.2    42  GLU42       0.2592
     45  O        -33.9680    0.0080   -0.8240 O.2    42  GLU42      -0.2718
     46  CB       -35.6900   -0.5500    1.8320 C.3    42  GLU42       0.0402
     47  CG       -37.0990   -0.7900    2.3750 C.3    42  GLU42       0.1161
     48  CD       -38.0180    0.2710    1.8050 C.2    42  GLU42       0.3649
     49  OE1      -37.6000    1.1620    1.0270 O.co2  42  GLU42      -0.2457
     50  OE2      -39.2170    0.2040    2.0950 O.co2  42  GLU42      -0.2457
     51  N        -33.0340   -1.6630    0.3540 N.am   43  VAL43      -0.1980
     52  CA       -31.6750   -1.3770   -0.1040 C.3    43  VAL43       0.1595
     53  C        -31.0330   -2.6270   -0.7050 C.2    43  VAL43       0.2287
     54  O        -30.2130   -3.2930   -0.0610 O.2    43  VAL43      -0.2864
     55  CB       -30.7860   -0.8470    1.0480 C.3    43  VAL43       0.0276
     56  CG1      -29.4980   -0.2490    0.5020 C.3    43  VAL43       0.0022
     57  CG2      -31.5450    0.1950    1.8610 C.3    43  VAL43       0.0022
     58  N        -27.2030   -3.4230   -0.4600 N.3    46  TYR46      -0.1241
     59  CA       -26.5340   -3.2060    0.8350 C.3    46  TYR46       0.1605
     60  C        -25.4140   -4.2130    1.1000 C.2    46  TYR46       0.2264
     61  O        -24.3040   -3.8240    1.4830 O.2    46  TYR46      -0.2867
     62  CB       -27.5320   -3.2470    1.9880 C.3    46  TYR46       0.0534
     63  CG       -26.9480   -2.7170    3.2930 C.ar   46  TYR46      -0.0201
     64  CD1      -26.6010   -1.3770    3.4220 C.ar   46  TYR46      -0.0009
     65  CD2      -26.7290   -3.5610    4.3760 C.ar   46  TYR46      -0.0009
     66  CE1      -26.0590   -0.8790    4.6110 C.ar   46  TYR46       0.0417
     67  CE2      -26.1920   -3.0800    5.5670 C.ar   46  TYR46       0.0417
     68  CZ       -25.8560   -1.7340    5.6750 C.ar   46  TYR46       0.1957
     69  OH       -25.3150   -1.2460    6.8480 O.3    46  TYR46      -0.2866
     70  N        -22.4830    2.4740    8.4770 N.3    85  CYS85      -0.1235
     71  CA       -23.2350    3.6200    8.0070 C.3    85  CYS85       0.1677
     72  C        -22.3310    4.6550    7.3330 C.2    85  CYS85       0.2270
     73  O        -22.6940    5.2200    6.2970 O.2    85  CYS85      -0.2867
     74  CB       -24.0120    4.2470    9.1690 C.3    85  CYS85       0.0956
     75  SG       -25.2190    5.5030    8.6140 S.3    85  CYS85      -0.0801
     76  N        -21.2440    3.0310    3.8930 N.3    88  TYR88      -0.1227
     77  CA       -22.2720    2.9070    2.8620 C.3    88  TYR88       0.1736
     78  C        -22.7230    4.2580    2.3100 C.2    88  TYR88       0.2595
     79  O        -22.9060    4.3990    1.0960 O.2    88  TYR88      -0.2718
     80  CB       -23.5030    2.1520    3.3710 C.3    88  TYR88       0.0548
     81  CG       -24.4890    1.9340    2.2380 C.ar   88  TYR88      -0.0200
     82  CD1      -24.3090    0.9000    1.3240 C.ar   88  TYR88      -0.0009
     83  CD2      -25.5700    2.7870    2.0550 C.ar   88  TYR88      -0.0009
     84  CE1      -25.1930    0.7190    0.2640 C.ar   88  TYR88       0.0417
     85  CE2      -26.4600    2.6040    1.0050 C.ar   88  TYR88       0.0417
     86  CZ       -26.2620    1.5690    0.1180 C.ar   88  TYR88       0.1957
     87  OH       -27.1440    1.3910   -0.9390 O.3    88  TYR88      -0.2866
     88  N        -22.8960    5.2430    3.1900 N.am   89  ASN89      -0.1974
     89  CA       -23.4660    6.5340    2.7980 C.3    89  ASN89       0.1688
     90  C        -22.4290    7.6190    2.5150 C.2    89  ASN89       0.2292
     91  O        -21.3660    7.6520    3.1380 O.2    89  ASN89      -0.2864
     92  CB       -24.4380    7.0120    3.8850 C.3    89  ASN89       0.1181
     93  CG       -25.5630    6.0300    4.1180 C.2    89  ASN89       0.2629
     94  OD1      -26.5290    5.9840    3.3530 O.2    89  ASN89      -0.2716
     95  ND2      -25.4330    5.2110    5.1600 N.am   89  ASN89      -0.0877
     96  N        -28.2010   10.3810    6.8800 N.3    95  PHE95      -0.1241
     97  CA       -27.8760    9.1910    7.6570 C.3    95  PHE95       0.1605
     98  C        -26.3910    9.1470    8.0560 C.2    95  PHE95       0.2264
     99  O        -26.0640    8.6840    9.1470 O.2    95  PHE95      -0.2867
    100  CB       -28.2740    7.9170    6.9040 C.3    95  PHE95       0.0534
    101  CG       -29.7590    7.6060    6.9790 C.ar   95  PHE95      -0.0203
    102  CD1      -30.6450    8.5090    7.5540 C.ar   95  PHE95      -0.0042
    103  CD2      -30.2580    6.4190    6.4740 C.ar   95  PHE95      -0.0042
    104  CE1      -32.0060    8.2290    7.6270 C.ar   95  PHE95      -0.0003
    105  CE2      -31.6140    6.1350    6.5310 C.ar   95  PHE95      -0.0003
    106  CZ       -32.4890    7.0370    7.1130 C.ar   95  PHE95      -0.0000
@<TRIPOS>BOND
     1    87    86    1
     2    45    44    2
     3    53    52    1
     4    53    54    2
     5    58    59    1
     6    52    51    1
     7    52    55    1
     8    44    51   am
     9    44    43    1
    10    86    84   ar
    11    86    85   ar
    12    84    82   ar
    13    56    55    1
    14    43    42    1
    15    43    46    1
    16    59    60    1
    17    59    62    1
    18    85    83   ar
    19    49    48   ar
    20    55    57    1
    21    79    78    2
    22    60    61    2
    23    82    81   ar
    24    48    50   ar
    25    48    47    1
    26    46    47    1
    27    62    63    1
    28    83    81   ar
    29    81    80    1
    30    78    77    1
    31    78    88   am
    32    90    89    1
    33    90    91    2
    34    39    38    2
    35    89    88    1
    36    89    92    1
    37    77    80    1
    38    77    76    1
    39    63    64   ar
    40    63    65   ar
    41    94    93    2
    42    38    37    1
    43    64    66   ar
    44    41    40    1
    45    92    93    1
    46    93    95   am
    47    65    67   ar
    48    40    37    1
    49    66    68   ar
    50    37    36    1
    51    34    33    1
    52    67    68   ar
    53    36    31   am
    54    68    69    1
    55    32    31    2
    56    31    30    1
    57    73    72    2
    58    33    30    1
    59    33    35    1
    60   103   105   ar
    61   103   101   ar
    62   105   106   ar
    63    96    97    1
    64   100   101    1
    65   100    97    1
    66   101   102   ar
    67    30    29    1
    68   106   104   ar
    69    72    71    1
    70   102   104   ar
    71    97    98    1
    72    71    70    1
    73    71    74    1
    74    98    99    2
    75    75    74    1
    76     7     5    1
    77     8     6    1
    78     6     5    1
    79     4     3    2
    80    23    22    2
    81     5     2    1
    82    17    19   ar
    83    17    15   ar
    84    22    21    1
    85     2     3    1
    86     2     1    1
    87     3     9   am
    88    19    18   ar
    89    15    14   ar
    90    24    21    1
    91    24    25    1
    92    21    20    1
    93    18    16   ar
    94     9    10    1
    95    25    26    1
    96    14    16   ar
    97    14    13    1
    98    10    13    1
    99    10    11    1
   100    27    26    2
   101    26    28   am
   102    11    12    2
