@<TRIPOS>MOLECULE
tmp/5pocA00.pdb
 117 113 0 0 0
SMALL
GASTEIGER

@<TRIPOS>ATOM
      1  N         -0.2780    6.4660   -5.6240 N.3    32  ARG32      -0.1231
      2  CA         0.2430    7.0730   -4.3850 C.3    32  ARG32       0.1694
      3  C         -0.8230    7.8810   -3.6340 C.2    32  ARG32       0.2592
      4  O         -0.5340    8.8610   -2.9530 O.2    32  ARG32      -0.2718
      5  CB         1.4860    7.9230   -4.6750 C.3    32  ARG32       0.0321
      6  CG         2.6510    7.0590   -5.2210 C.3    32  ARG32       0.0489
      7  CD         3.9890    7.7820   -5.2290 C.3    32  ARG32       0.2205
      8  NE         4.5100    7.9980   -3.8870 N.pl3  32  ARG32      -0.0865
      9  CZ         5.1800    7.0910   -3.1810 C.cat  32  ARG32       0.5346
     10  NH1        5.6160    7.3970   -1.9690 N.pl3  32  ARG32       0.1354
     11  NH2        5.4060    5.8790   -3.6850 N.pl3  32  ARG32       0.1354
     12  N         -2.0610    7.4040   -3.7320 N.am   33  ILE33      -0.1966
     13  CA        -3.1780    8.0270   -3.0490 C.3    33  ILE33       0.1727
     14  C         -3.0320    7.9110   -1.5360 C.2    33  ILE33       0.2616
     15  O         -3.4470    8.8100   -0.7940 O.2    33  ILE33      -0.2715
     16  CB        -4.4900    7.3860   -3.5530 C.3    33  ILE33       0.0290
     17  CG1       -4.7530    7.8510   -4.9960 C.3    33  ILE33       0.0022
     18  CG2       -5.6730    7.6840   -2.6220 C.3    33  ILE33       0.0023
     19  CD1       -5.8210    7.0530   -5.7500 C.3    33  ILE33       0.0001
     20  N         -2.3830    6.8350   -1.0840 N.am   34  PHE34      -0.1974
     21  CA        -2.2650    6.5730    0.3590 C.3    34  PHE34       0.1639
     22  C         -0.8410    6.7670    0.8920 C.2    34  PHE34       0.2290
     23  O         -0.5180    6.3800    2.0190 O.2    34  PHE34      -0.2864
     24  CB        -2.7750    5.1610    0.6520 C.3    34  PHE34       0.0560
     25  CG        -4.1610    4.9220    0.1320 C.ar   34  PHE34      -0.0200
     26  CD1       -5.2420    5.5700    0.7110 C.ar   34  PHE34      -0.0042
     27  CD2       -4.3750    4.1000   -0.9680 C.ar   34  PHE34      -0.0042
     28  CE1       -6.5290    5.3770    0.2230 C.ar   34  PHE34      -0.0003
     29  CE2       -5.6620    3.9000   -1.4690 C.ar   34  PHE34      -0.0003
     30  CZ        -6.7410    4.5430   -0.8730 C.ar   34  PHE34      -0.0000
     31  N          0.8150    9.5020    1.7420 N.3    36  GLN36      -0.1245
     32  CA         1.0460   10.5740    2.7010 C.3    36  GLN36       0.1566
     33  C         -0.2270   10.8900    3.4750 C.2    36  GLN36       0.2260
     34  O         -1.3150   10.5810    3.0050 O.2    36  GLN36      -0.2867
     35  CB         1.5310   11.8400    1.9700 C.3    36  GLN36       0.0367
     36  CG         2.8670   11.6960    1.2540 C.3    36  GLN36       0.0905
     37  CD         4.0440   11.5790    2.2000 C.2    36  GLN36       0.2608
     38  OE1        4.0210   12.1010    3.3170 O.2    36  GLN36      -0.2717
     39  NE2        5.0910   10.8960    1.7450 N.am   36  GLN36      -0.0878
     40  N         -3.5470   12.5730    4.6570 N.3    38  VAL38      -0.1231
     41  CA        -4.5050   13.4320    3.9870 C.3    38  VAL38       0.1692
     42  C         -4.2590   14.8800    4.4120 C.2    38  VAL38       0.2592
     43  O         -4.2010   15.1850    5.6070 O.2    38  VAL38      -0.2718
     44  CB        -5.9510   13.0340    4.3040 C.3    38  VAL38       0.0266
     45  CG1       -6.9050   14.1020    3.7960 C.3    38  VAL38       0.0020
     46  CG2       -6.2820   11.6890    3.6720 C.3    38  VAL38       0.0020
     47  N         -4.0920   15.7550    3.4240 N.am   39  SER39      -0.1952
     48  CA        -3.7860   17.1590    3.6760 C.3    39  SER39       0.1924
     49  C         -4.9800   17.9110    4.2390 C.2    39  SER39       0.2314
     50  O         -6.0590   17.9160    3.6400 O.2    39  SER39      -0.2863
     51  CB        -3.3170   17.8460    2.3970 C.3    39  SER39       0.2116
     52  OG        -3.1970   19.2420    2.6100 O.3    39  SER39      -0.2180
     53  N         -6.1740   20.6270    1.6870 N.3    42  GLU42      -0.1231
     54  CA        -7.0670   20.2540    0.5950 C.3    42  GLU42       0.1699
     55  C         -8.3990   19.7250    1.1320 C.2    42  GLU42       0.2592
     56  O         -9.4230   19.7540    0.4400 O.2    42  GLU42      -0.2718
     57  CB        -6.4080   19.2030   -0.3050 C.3    42  GLU42       0.0402
     58  CG        -5.0900   19.6370   -0.9400 C.3    42  GLU42       0.1161
     59  CD        -5.2780   20.6780   -2.0310 C.2    42  GLU42       0.3649
     60  OE1       -4.3400   21.4690   -2.2670 O.co2  42  GLU42      -0.2457
     61  OE2       -6.3620   20.7040   -2.6580 O.co2  42  GLU42      -0.2457
     62  N         -8.3620   19.2220    2.3640 N.am   43  VAL43      -0.1980
     63  CA        -9.5300   18.6360    3.0190 C.3    43  VAL43       0.1595
     64  C         -9.6480   19.1570    4.4590 C.2    43  VAL43       0.2287
     65  O         -9.3380   18.4500    5.4200 O.2    43  VAL43      -0.2864
     66  CB        -9.4510   17.0850    3.0350 C.3    43  VAL43       0.0276
     67  CG1      -10.7970   16.4990    3.3950 C.3    43  VAL43       0.0022
     68  CG2       -8.9620   16.5360    1.6800 C.3    43  VAL43       0.0022
     69  N        -11.3550   17.1700    7.4800 N.3    46  TYR46      -0.1241
     70  CA       -11.0470   15.7360    7.5440 C.3    46  TYR46       0.1605
     71  C        -11.1010   15.1470    8.9660 C.2    46  TYR46       0.2264
     72  O        -11.6270   14.0490    9.1680 O.2    46  TYR46      -0.2867
     73  CB        -9.6660   15.4560    6.9090 C.3    46  TYR46       0.0534
     74  CG        -9.3910   13.9750    6.7280 C.ar   46  TYR46      -0.0201
     75  CD1      -10.1070   13.2250    5.8050 C.ar   46  TYR46      -0.0009
     76  CD2       -8.4180   13.3400    7.4800 C.ar   46  TYR46      -0.0009
     77  CE1       -9.8630   11.8670    5.6430 C.ar   46  TYR46       0.0417
     78  CE2       -8.1630   11.9860    7.3230 C.ar   46  TYR46       0.0417
     79  CZ        -8.8840   11.2610    6.4030 C.ar   46  TYR46       0.1957
     80  OH        -8.6390    9.9140    6.2550 O.3    46  TYR46      -0.2866
     81  N        -10.7370    5.6690    4.2290 N.3    85  CYS85      -0.1235
     82  CA       -11.0120    6.1070    2.8680 C.3    85  CYS85       0.1677
     83  C        -12.4140    5.7130    2.4090 C.2    85  CYS85       0.2270
     84  O        -13.0970    6.4900    1.7220 O.2    85  CYS85      -0.2867
     85  CB        -9.9570    5.5160    1.9280 C.3    85  CYS85       0.0956
     86  SG       -10.1040    6.1030    0.2170 S.3    85  CYS85      -0.0801
     87  N        -14.9190    8.2450    4.1890 N.3    88  TYR88      -0.1227
     88  CA       -14.9180    9.6440    3.7690 C.3    88  TYR88       0.1736
     89  C        -15.3900    9.8230    2.3290 C.2    88  TYR88       0.2595
     90  O        -16.0580   10.8120    1.9990 O.2    88  TYR88      -0.2718
     91  CB       -13.5320   10.2690    3.9360 C.3    88  TYR88       0.0548
     92  CG       -13.5800   11.7720    3.7760 C.ar   88  TYR88      -0.0200
     93  CD1      -13.8960   12.5920    4.8560 C.ar   88  TYR88      -0.0009
     94  CD2      -13.3470   12.3710    2.5390 C.ar   88  TYR88      -0.0009
     95  CE1      -13.9610   13.9640    4.7160 C.ar   88  TYR88       0.0417
     96  CE2      -13.4130   13.7530    2.3890 C.ar   88  TYR88       0.0417
     97  CZ       -13.7240   14.5350    3.4780 C.ar   88  TYR88       0.1957
     98  OH       -13.7920   15.9010    3.3260 O.3    88  TYR88      -0.2866
     99  N        -15.0620    8.8650    1.4720 N.am   89  ASN89      -0.1974
    100  CA       -15.3430    9.0080    0.0480 C.3    89  ASN89       0.1688
    101  C        -16.4560    8.0860   -0.4020 C.2    89  ASN89       0.2292
    102  O        -16.6050    6.9760    0.1230 O.2    89  ASN89      -0.2864
    103  CB       -14.0690    8.7400   -0.7650 C.3    89  ASN89       0.1181
    104  CG       -12.9080    9.5820   -0.3090 C.2    89  ASN89       0.2629
    105  OD1      -12.8320   10.7720   -0.6140 O.2    89  ASN89      -0.2716
    106  ND2      -12.0020    8.9840    0.4400 N.am   89  ASN89      -0.0877
    107  N        -10.8650    7.6180   -5.1440 N.3    95  PHE95      -0.1241
    108  CA       -10.3270    7.3310   -3.8140 C.3    95  PHE95       0.1605
    109  C        -10.8910    6.0290   -3.2510 C.2    95  PHE95       0.2264
    110  O        -10.1400    5.1380   -2.8590 O.2    95  PHE95      -0.2867
    111  CB       -10.6270    8.5020   -2.8630 C.3    95  PHE95       0.0534
    112  CG       -10.1340    9.8270   -3.3600 C.ar   95  PHE95      -0.0203
    113  CD1       -8.7770   10.1270   -3.3360 C.ar   95  PHE95      -0.0042
    114  CD2      -11.0200   10.7770   -3.8570 C.ar   95  PHE95      -0.0042
    115  CE1       -8.3100   11.3500   -3.7960 C.ar   95  PHE95      -0.0003
    116  CE2      -10.5590   12.0150   -4.3160 C.ar   95  PHE95      -0.0003
    117  CZ        -9.2010   12.2940   -4.2860 C.ar   95  PHE95      -0.0000
@<TRIPOS>BOND
     1    19    17    1
     2     1     2    1
     3     7     6    1
     4     7     8    1
     5     6     5    1
     6   107   108    1
     7    17    16    1
     8     5     2    1
     9     2     3    1
    10   116   117   ar
    11   116   114   ar
    12   117   115   ar
    13     8     9    2
    14   114   112   ar
    15   108   109    1
    16   108   111    1
    17   115   113   ar
    18    12     3   am
    19    12    13    1
    20    11     9    1
    21     3     4    2
    22    16    13    1
    23    16    18    1
    24   112   113   ar
    25   112   111    1
    26   109   110    2
    27     9    10    1
    28    13    14    1
    29    61    59   ar
    30    60    59   ar
    31    59    58    1
    32    14    20   am
    33    14    15    2
    34    29    27   ar
    35    29    30   ar
    36    20    21    1
    37    27    25   ar
    38    58    57    1
    39    30    28   ar
    40   103   104    1
    41   103   100    1
    42   105   104    2
    43   101   100    1
    44   101   102    2
    45   104   106   am
    46    57    54    1
    47   100    99    1
    48    25    24    1
    49    25    26   ar
    50    86    85    1
    51    28    26   ar
    52    21    24    1
    53    21    22    1
    54    56    55    2
    55    54    55    1
    56    54    53    1
    57    22    23    2
    58    55    62   am
    59    36    35    1
    60    36    37    1
    61    99    89   am
    62    68    66    1
    63    84    83    2
    64    31    32    1
    65    39    37   am
    66    85    82    1
    67    35    32    1
    68    90    89    2
    69    37    38    2
    70    89    88    1
    71    62    63    1
    72    96    94   ar
    73    96    97   ar
    74    51    52    1
    75    51    48    1
    76    83    82    1
    77    94    92   ar
    78    32    33    1
    79    82    81    1
    80    34    33    2
    81    63    66    1
    82    63    64    1
    83    66    67    1
    84    98    97    1
    85    47    48    1
    86    47    42   am
    87    97    95   ar
    88    50    49    2
    89    46    44    1
    90    48    49    1
    91    88    91    1
    92    88    87    1
    93    92    91    1
    94    92    93   ar
    95    45    44    1
    96    41    44    1
    97    41    42    1
    98    41    40    1
    99    42    43    2
   100    64    65    2
   101    95    93   ar
   102    77    75   ar
   103    77    79   ar
   104    75    74   ar
   105    80    79    1
   106    79    78   ar
   107    74    73    1
   108    74    76   ar
   109    73    70    1
   110    78    76   ar
   111    69    70    1
   112    70    71    1
   113    71    72    2
