@<TRIPOS>MOLECULE
tmp/5pofA00.pdb
 108 103 0 0 0
SMALL
GASTEIGER

@<TRIPOS>ATOM
      1  N         -2.2480    7.8350   -3.3780 N.3    33  ILE33      -0.1231
      2  CA        -3.3640    8.4000   -2.6410 C.3    33  ILE33       0.1692
      3  C         -3.1920    8.2610   -1.1230 C.2    33  ILE33       0.2592
      4  O         -3.7040    9.0770   -0.3600 O.2    33  ILE33      -0.2718
      5  CB        -4.6850    7.7310   -3.1210 C.3    33  ILE33       0.0266
      6  CG1       -5.0790    8.3150   -4.4820 C.3    33  ILE33       0.0019
      7  CG2       -5.8110    7.8980   -2.1180 C.3    33  ILE33       0.0020
      8  CD1       -5.8420    7.3820   -5.3610 C.3    33  ILE33       0.0001
      9  N         -2.4360    7.2540   -0.6890 N.am   34  PHE34      -0.1976
     10  CA        -2.2260    7.0140    0.7440 C.3    34  PHE34       0.1639
     11  C         -0.7760    7.1950    1.2240 C.2    34  PHE34       0.2290
     12  O         -0.4130    6.7340    2.3100 O.2    34  PHE34      -0.2864
     13  CB        -2.6940    5.6060    1.0900 C.3    34  PHE34       0.0560
     14  CG        -3.9820    5.2300    0.4320 C.ar   34  PHE34      -0.0200
     15  CD1       -5.1880    5.7320    0.9060 C.ar   34  PHE34      -0.0042
     16  CD2       -3.9880    4.3910   -0.6750 C.ar   34  PHE34      -0.0042
     17  CE1       -6.3710    5.3910    0.3040 C.ar   34  PHE34      -0.0003
     18  CE2       -5.1640    4.0490   -1.2820 C.ar   34  PHE34      -0.0003
     19  CZ        -6.3680    4.5500   -0.7950 C.ar   34  PHE34      -0.0000
     20  N          0.8090    9.8430    2.1800 N.3    36  GLN36      -0.1245
     21  CA         1.0350   10.8910    3.1780 C.3    36  GLN36       0.1566
     22  C         -0.2390   11.1740    3.9530 C.2    36  GLN36       0.2260
     23  O         -1.3300   10.9130    3.4530 O.2    36  GLN36      -0.2867
     24  CB         1.5160   12.1780    2.5060 C.3    36  GLN36       0.0367
     25  CG         2.7490   12.0220    1.6250 C.3    36  GLN36       0.0905
     26  CD         4.0430   11.8480    2.4200 C.2    36  GLN36       0.2608
     27  OE1        4.1930   12.3590    3.5410 O.2    36  GLN36      -0.2717
     28  NE2        4.9890   11.1220    1.8330 N.am   36  GLN36      -0.0878
     29  N         -3.4960   12.9410    5.2320 N.3    38  VAL38      -0.1245
     30  CA        -4.4200   13.9080    4.6620 C.3    38  VAL38       0.1561
     31  C         -4.1560   15.3080    5.2170 C.2    38  VAL38       0.2260
     32  O         -4.1680   15.5090    6.4330 O.2    38  VAL38      -0.2867
     33  CB        -5.8730   13.5170    4.9390 C.3    38  VAL38       0.0252
     34  CG1       -6.7920   14.6970    4.6800 C.3    38  VAL38       0.0019
     35  CG2       -6.2670   12.3110    4.0940 C.3    38  VAL38       0.0019
     36  N         -5.8410   21.4620    3.4300 N.3    42  GLU42      -0.1231
     37  CA        -6.7420   21.2940    2.2930 C.3    42  GLU42       0.1699
     38  C         -8.0900   20.6910    2.6990 C.2    42  GLU42       0.2592
     39  O         -9.0910   20.8600    2.0000 O.2    42  GLU42      -0.2718
     40  CB        -6.0860   20.4200    1.2140 C.3    42  GLU42       0.0402
     41  CG        -4.6670   20.8600    0.8120 C.3    42  GLU42       0.1161
     42  CD        -4.0670   20.0030   -0.3120 C.2    42  GLU42       0.3649
     43  OE1       -4.8450   19.4640   -1.1300 O.co2  42  GLU42      -0.2457
     44  OE2       -2.8230   19.8660   -0.3770 O.co2  42  GLU42      -0.2457
     45  N         -8.1090   19.9710    3.8170 N.am   43  VAL43      -0.1980
     46  CA        -9.3350   19.3480    4.3250 C.3    43  VAL43       0.1595
     47  C         -9.4670   19.6270    5.8210 C.2    43  VAL43       0.2287
     48  O         -9.2350   18.7360    6.6480 O.2    43  VAL43      -0.2864
     49  CB        -9.3440   17.8240    4.0820 C.3    43  VAL43       0.0276
     50  CG1      -10.7170   17.2440    4.3770 C.3    43  VAL43       0.0022
     51  CG2       -8.9340   17.5110    2.6490 C.3    43  VAL43       0.0022
     52  N        -11.2580   17.3710    8.4800 N.3    46  TYR46      -0.1241
     53  CA       -11.0400   15.9330    8.3350 C.3    46  TYR46       0.1605
     54  C        -11.1920   15.1810    9.6570 C.2    46  TYR46       0.2264
     55  O        -11.7750   14.0880    9.6890 O.2    46  TYR46      -0.2867
     56  CB        -9.6630   15.6520    7.7410 C.3    46  TYR46       0.0534
     57  CG        -9.4170   14.1780    7.4440 C.ar   46  TYR46      -0.0201
     58  CD1      -10.1880   13.5010    6.5050 C.ar   46  TYR46      -0.0009
     59  CD2       -8.4020   13.4750    8.0910 C.ar   46  TYR46      -0.0009
     60  CE1       -9.9670   12.1550    6.2240 C.ar   46  TYR46       0.0417
     61  CE2       -8.1660   12.1410    7.8200 C.ar   46  TYR46       0.0417
     62  CZ        -8.9500   11.4790    6.8880 C.ar   46  TYR46       0.1957
     63  OH        -8.7080   10.1460    6.6180 O.3    46  TYR46      -0.2866
     64  N         -5.9290    2.7130    7.1260 N.3    81  ILE81      -0.1245
     65  CA        -5.7750    3.4470    5.8760 C.3    81  ILE81       0.1561
     66  C         -6.9770    3.1700    4.9620 C.2    81  ILE81       0.2260
     67  O         -7.6230    4.0960    4.4640 O.2    81  ILE81      -0.2867
     68  CB        -4.4470    3.0820    5.1440 C.3    81  ILE81       0.0252
     69  CG1       -3.2220    3.5370    5.9480 C.3    81  ILE81       0.0019
     70  CG2       -4.3890    3.7380    3.7870 C.3    81  ILE81       0.0019
     71  CD1       -1.8970    3.1220    5.3240 C.3    81  ILE81       0.0001
     72  N        -10.6510    5.5900    4.3460 N.3    85  CYS85      -0.1235
     73  CA       -10.8790    6.1050    3.0080 C.3    85  CYS85       0.1677
     74  C        -12.2520    5.7400    2.4940 C.2    85  CYS85       0.2270
     75  O        -12.9410    6.5610    1.8970 O.2    85  CYS85      -0.2867
     76  CB        -9.8220    5.5790    2.0420 C.3    85  CYS85       0.0956
     77  SG       -10.1190    6.1490    0.3720 S.3    85  CYS85      -0.0801
     78  N        -14.6620    8.1270    4.4900 N.3    88  TYR88      -0.1227
     79  CA       -14.6620    9.5510    4.1850 C.3    88  TYR88       0.1736
     80  C        -15.1090    9.8270    2.7450 C.2    88  TYR88       0.2595
     81  O        -15.9000   10.7490    2.4970 O.2    88  TYR88      -0.2718
     82  CB       -13.2930   10.1610    4.4570 C.3    88  TYR88       0.0548
     83  CG       -13.2810   11.6420    4.2310 C.ar   88  TYR88      -0.0200
     84  CD1      -13.7080   12.5130    5.2120 C.ar   88  TYR88      -0.0009
     85  CD2      -12.8870   12.1690    3.0110 C.ar   88  TYR88      -0.0009
     86  CE1      -13.7280   13.8740    4.9980 C.ar   88  TYR88       0.0417
     87  CE2      -12.8950   13.5280    2.7830 C.ar   88  TYR88       0.0417
     88  CZ       -13.3160   14.3750    3.7760 C.ar   88  TYR88       0.1957
     89  OH       -13.3230   15.7240    3.5410 O.3    88  TYR88      -0.2866
     90  N        -14.6310    9.0070    1.8120 N.am   89  ASN89      -0.1974
     91  CA       -14.9960    9.1340    0.4030 C.3    89  ASN89       0.1688
     92  C        -16.1780    8.2530   -0.0370 C.2    89  ASN89       0.2292
     93  O        -16.3180    7.1200    0.4100 O.2    89  ASN89      -0.2864
     94  CB       -13.7870    8.8080   -0.4530 C.3    89  ASN89       0.1181
     95  CG       -12.5870    9.6700   -0.1140 C.2    89  ASN89       0.2629
     96  OD1      -12.5140   10.8110   -0.5340 O.2    89  ASN89      -0.2716
     97  ND2      -11.6380    9.1190    0.6400 N.am   89  ASN89      -0.0877
     98  N        -11.0090    7.8110   -5.1700 N.3    95  PHE95      -0.1241
     99  CA       -10.3270    7.5440   -3.9000 C.3    95  PHE95       0.1605
    100  C        -10.8100    6.2640   -3.2430 C.2    95  PHE95       0.2264
    101  O        -10.0020    5.4410   -2.7930 O.2    95  PHE95      -0.2867
    102  CB       -10.5140    8.7170   -2.9470 C.3    95  PHE95       0.0534
    103  CG       -10.2480   10.0440   -3.5900 C.ar   95  PHE95      -0.0203
    104  CD1       -8.9530   10.4900   -3.7700 C.ar   95  PHE95      -0.0042
    105  CD2      -11.2930   10.8460   -4.0190 C.ar   95  PHE95      -0.0042
    106  CE1       -8.7070   11.7130   -4.3680 C.ar   95  PHE95      -0.0003
    107  CE2      -11.0500   12.0790   -4.6150 C.ar   95  PHE95      -0.0003
    108  CZ        -9.7600   12.5080   -4.7880 C.ar   95  PHE95      -0.0000
@<TRIPOS>BOND
     1     8     6    1
     2    98    99    1
     3   108   107   ar
     4   108   106   ar
     5   107   105   ar
     6     6     5    1
     7   106   104   ar
     8   105   103   ar
     9    99   100    1
    10    99   102    1
    11   104   103   ar
    12   103   102    1
    13     1     2    1
    14   100   101    2
    15     5     2    1
    16     5     7    1
    17     2     3    1
    18    18    19   ar
    19    18    16   ar
    20    43    42   ar
    21     3     9   am
    22     3     4    2
    23    19    17   ar
    24     9    10    1
    25    16    14   ar
    26    96    95    2
    27    94    95    1
    28    94    91    1
    29    44    42   ar
    30    42    41    1
    31    95    97   am
    32    92    91    1
    33    92    93    2
    34    17    15   ar
    35    77    76    1
    36    91    90    1
    37    14    15   ar
    38    14    13    1
    39    10    13    1
    40    10    11    1
    41    41    40    1
    42    40    37    1
    43    11    12    2
    44    25    26    1
    45    25    24    1
    46    90    80   am
    47    28    26   am
    48    75    74    2
    49    39    38    2
    50    76    73    1
    51    20    21    1
    52    37    38    1
    53    37    36    1
    54    26    27    2
    55    74    73    1
    56    81    80    2
    57    24    21    1
    58    51    49    1
    59    38    45   am
    60    80    79    1
    61    87    85   ar
    62    87    88   ar
    63    73    72    1
    64    85    83   ar
    65    21    22    1
    66    23    22    2
    67    89    88    1
    68    88    86   ar
    69    70    68    1
    70    45    46    1
    71    49    46    1
    72    49    50    1
    73    35    33    1
    74    79    82    1
    75    79    78    1
    76    83    82    1
    77    83    84   ar
    78    46    47    1
    79    67    66    2
    80    30    33    1
    81    30    31    1
    82    30    29    1
    83    34    33    1
    84    66    65    1
    85    86    84   ar
    86    68    65    1
    87    68    69    1
    88    31    32    2
    89    71    69    1
    90    47    48    2
    91    65    64    1
    92    60    58   ar
    93    60    62   ar
    94    58    57   ar
    95    63    62    1
    96    62    61   ar
    97    57    56    1
    98    57    59   ar
    99    56    53    1
   100    61    59   ar
   101    53    52    1
   102    53    54    1
   103    54    55    2
