@<TRIPOS>MOLECULE
tmp/5pogB00.pdb
 99 95 0 0 0
SMALL
GASTEIGER

@<TRIPOS>ATOM
      1  N        -33.4440    5.3550   13.1480 N.3    33  ILE33      -0.1231
      2  CA       -32.6410    5.0640   11.9760 C.3    33  ILE33       0.1692
      3  C        -31.8460    3.7580   12.1730 C.2    33  ILE33       0.2592
      4  O        -31.6770    2.9760   11.2290 O.2    33  ILE33      -0.2718
      5  CB       -31.7190    6.2400   11.6690 C.3    33  ILE33       0.0266
      6  CG1      -32.5630    7.4360   11.2000 C.3    33  ILE33       0.0019
      7  CG2      -30.7290    5.8710   10.5910 C.3    33  ILE33       0.0020
      8  CD1      -31.7790    8.7300   11.0590 C.3    33  ILE33       0.0001
      9  N        -31.3850    3.5270   13.4080 N.am   34  PHE34      -0.1976
     10  CA       -30.5220    2.3850   13.7450 C.3    34  PHE34       0.1639
     11  C        -31.2260    1.3150   14.5720 C.2    34  PHE34       0.2290
     12  O        -30.6020    0.3860   15.1000 O.2    34  PHE34      -0.2864
     13  CB       -29.2690    2.8940   14.4770 C.3    34  PHE34       0.0560
     14  CG       -28.5490    3.9770   13.7120 C.ar   34  PHE34      -0.0200
     15  CD1      -27.8280    3.6680   12.5700 C.ar   34  PHE34      -0.0042
     16  CD2      -28.6500    5.3120   14.0950 C.ar   34  PHE34      -0.0042
     17  CE1      -27.1830    4.6570   11.8270 C.ar   34  PHE34      -0.0003
     18  CE2      -28.0000    6.3080   13.3700 C.ar   34  PHE34      -0.0003
     19  CZ       -27.2560    5.9730   12.2260 C.ar   34  PHE34      -0.0000
     20  N        -31.3400   -2.7820    8.4070 N.3    38  VAL38      -0.1245
     21  CA       -31.6380   -2.1300    7.1350 C.3    38  VAL38       0.1561
     22  C        -32.4620   -3.0920    6.2570 C.2    38  VAL38       0.2260
     23  O        -32.1350   -4.2710    6.1490 O.2    38  VAL38      -0.2867
     24  CB       -30.3360   -1.7080    6.4240 C.3    38  VAL38       0.0252
     25  CG1      -30.6040   -1.2430    4.9970 C.3    38  VAL38       0.0019
     26  CG2      -29.6220   -0.6290    7.2340 C.3    38  VAL38       0.0019
     27  N        -36.1350   -1.9910    1.0270 N.3    42  GLU42      -0.1231
     28  CA       -35.9580   -0.5480    0.9120 C.3    42  GLU42       0.1699
     29  C        -34.5850   -0.1950    0.3320 C.2    42  GLU42       0.2592
     30  O        -34.4320    0.8140   -0.3540 O.2    42  GLU42      -0.2718
     31  CB       -36.1370    0.1220    2.2750 C.3    42  GLU42       0.0402
     32  CG       -37.5370   -0.1130    2.8420 C.3    42  GLU42       0.1161
     33  CD       -38.4360    1.0150    2.3770 C.2    42  GLU42       0.3649
     34  OE1      -38.0100    1.9460    1.6500 O.co2  42  GLU42      -0.2457
     35  OE2      -39.6280    0.9650    2.6960 O.co2  42  GLU42      -0.2457
     36  N        -33.5890   -1.0290    0.6260 N.am   43  VAL43      -0.1980
     37  CA       -32.2130   -0.8190    0.1740 C.3    43  VAL43       0.1595
     38  C        -31.6330   -2.1220   -0.4020 C.2    43  VAL43       0.2287
     39  O        -30.8790   -2.8240    0.2720 O.2    43  VAL43      -0.2864
     40  CB       -31.3050   -0.3130    1.3380 C.3    43  VAL43       0.0276
     41  CG1      -29.9550    0.1390    0.8150 C.3    43  VAL43       0.0022
     42  CG2      -31.9850    0.8190    2.1090 C.3    43  VAL43       0.0022
     43  N        -27.7200   -3.2640   -0.3680 N.3    46  TYR46      -0.1241
     44  CA       -27.0030   -3.0560    0.8960 C.3    46  TYR46       0.1605
     45  C        -25.9020   -4.0690    1.1470 C.2    46  TYR46       0.2264
     46  O        -24.7680   -3.7010    1.4790 O.2    46  TYR46      -0.2867
     47  CB       -27.9740   -3.0750    2.0770 C.3    46  TYR46       0.0534
     48  CG       -27.3650   -2.5210    3.3600 C.ar   46  TYR46      -0.0201
     49  CD1      -27.0550   -1.1640    3.4810 C.ar   46  TYR46      -0.0009
     50  CD2      -27.0970   -3.3580    4.4390 C.ar   46  TYR46      -0.0009
     51  CE1      -26.4890   -0.6520    4.6600 C.ar   46  TYR46       0.0417
     52  CE2      -26.5400   -2.8610    5.6200 C.ar   46  TYR46       0.0417
     53  CZ       -26.2480   -1.5100    5.7240 C.ar   46  TYR46       0.1957
     54  OH       -25.6940   -1.0370    6.8940 O.3    46  TYR46      -0.2866
     55  N        -22.4110   -0.6020   13.7320 N.3    81  ILE81      -0.1245
     56  CA       -23.5740    0.2190   13.3520 C.3    81  ILE81       0.1561
     57  C        -23.1280    1.5410   12.7170 C.2    81  ILE81       0.2260
     58  O        -23.5770    1.9100   11.6300 O.2    81  ILE81      -0.2867
     59  CB       -24.4970    0.5110   14.5660 C.3    81  ILE81       0.0252
     60  CG1      -25.2350   -0.7630   14.9910 C.3    81  ILE81       0.0019
     61  CG2      -25.5310    1.5840   14.2130 C.3    81  ILE81       0.0019
     62  CD1      -26.0690   -0.5810   16.2440 C.3    81  ILE81       0.0001
     63  N        -22.9400    2.4690    8.4340 N.3    85  CYS85      -0.1235
     64  CA       -23.7090    3.6180    7.9660 C.3    85  CYS85       0.1677
     65  C        -22.8480    4.6820    7.2850 C.2    85  CYS85       0.2270
     66  O        -23.2550    5.2660    6.2730 O.2    85  CYS85      -0.2867
     67  CB       -24.4840    4.2380    9.1250 C.3    85  CYS85       0.0956
     68  SG       -25.5780    5.6240    8.5930 S.3    85  CYS85      -0.0801
     69  N        -21.7450    3.0560    3.8830 N.3    88  TYR88      -0.1227
     70  CA       -22.7900    2.9380    2.8630 C.3    88  TYR88       0.1736
     71  C        -23.2620    4.2800    2.3010 C.2    88  TYR88       0.2595
     72  O        -23.5070    4.3950    1.0970 O.2    88  TYR88      -0.2718
     73  CB       -24.0080    2.1840    3.3980 C.3    88  TYR88       0.0548
     74  CG       -25.0180    2.0180    2.2880 C.ar   88  TYR88      -0.0200
     75  CD1      -24.8170    1.0810    1.2760 C.ar   88  TYR88      -0.0009
     76  CD2      -26.1350    2.8290    2.2210 C.ar   88  TYR88      -0.0009
     77  CE1      -25.7030    0.9500    0.2370 C.ar   88  TYR88       0.0417
     78  CE2      -27.0520    2.6960    1.1740 C.ar   88  TYR88       0.0417
     79  CZ       -26.8180    1.7560    0.1880 C.ar   88  TYR88       0.1957
     80  OH       -27.6990    1.6120   -0.8580 O.3    88  TYR88      -0.2866
     81  N        -23.3920    5.2780    3.1710 N.am   89  ASN89      -0.1974
     82  CA       -23.9050    6.5950    2.7790 C.3    89  ASN89       0.1688
     83  C        -22.8470    7.6530    2.4810 C.2    89  ASN89       0.2292
     84  O        -21.7780    7.6630    3.0910 O.2    89  ASN89      -0.2864
     85  CB       -24.8280    7.1140    3.8770 C.3    89  ASN89       0.1181
     86  CG       -25.9690    6.1690    4.1580 C.2    89  ASN89       0.2629
     87  OD1      -25.8980    5.3570    5.0800 O.2    89  ASN89      -0.2716
     88  ND2      -27.0250    6.2490    3.3440 N.am   89  ASN89      -0.0877
     89  N        -28.4290   10.3970    6.8220 N.3    95  PHE95      -0.1241
     90  CA       -28.0910    9.1810    7.5610 C.3    95  PHE95       0.1605
     91  C        -26.6130    9.1480    7.9520 C.2    95  PHE95       0.2264
     92  O        -26.2670    8.6770    9.0340 O.2    95  PHE95      -0.2867
     93  CB       -28.4550    7.9310    6.7570 C.3    95  PHE95       0.0534
     94  CG       -29.9000    7.5220    6.8880 C.ar   95  PHE95      -0.0203
     95  CD1      -30.8440    8.4080    7.3760 C.ar   95  PHE95      -0.0042
     96  CD2      -30.3070    6.2430    6.5370 C.ar   95  PHE95      -0.0042
     97  CE1      -32.1720    8.0340    7.4980 C.ar   95  PHE95      -0.0003
     98  CE2      -31.6230    5.8590    6.6590 C.ar   95  PHE95      -0.0003
     99  CZ       -32.5610    6.7550    7.1390 C.ar   95  PHE95      -0.0000
@<TRIPOS>BOND
     1    80    79    1
     2    38    37    1
     3    38    39    2
     4    43    44    1
     5    30    29    2
     6    37    36    1
     7    37    40    1
     8    79    77   ar
     9    79    78   ar
    10    77    75   ar
    11    29    36   am
    12    29    28    1
    13    41    40    1
    14    44    45    1
    15    44    47    1
    16    28    27    1
    17    28    31    1
    18    72    71    2
    19    45    46    2
    20    78    76   ar
    21    75    74   ar
    22    40    42    1
    23    34    33   ar
    24    47    48    1
    25    76    74   ar
    26    31    32    1
    27    74    73    1
    28    71    70    1
    29    71    81   am
    30    33    35   ar
    31    33    32    1
    32    83    82    1
    33    83    84    2
    34    82    81    1
    35    82    85    1
    36    70    73    1
    37    70    69    1
    38    88    86   am
    39    48    49   ar
    40    48    50   ar
    41    49    51   ar
    42    85    86    1
    43    86    87    2
    44    50    52   ar
    45    51    53   ar
    46    25    24    1
    47    52    53   ar
    48    53    54    1
    49    23    22    2
    50    22    21    1
    51    66    65    2
    52    24    21    1
    53    24    26    1
    54    96    98   ar
    55    96    94   ar
    56    98    99   ar
    57    93    94    1
    58    93    90    1
    59    89    90    1
    60    94    95   ar
    61    21    20    1
    62    99    97   ar
    63    65    64    1
    64    95    97   ar
    65    90    91    1
    66    91    92    2
    67    64    63    1
    68    64    67    1
    69    68    67    1
    70     7     5    1
    71     8     6    1
    72     6     5    1
    73     4     3    2
    74    58    57    2
    75     5     2    1
    76    17    19   ar
    77    17    15   ar
    78     2     3    1
    79     2     1    1
    80     3     9   am
    81    19    18   ar
    82    15    14   ar
    83    57    56    1
    84    56    55    1
    85    56    59    1
    86    18    16   ar
    87     9    10    1
    88    14    16   ar
    89    14    13    1
    90    10    13    1
    91    10    11    1
    92    61    59    1
    93    59    60    1
    94    11    12    2
    95    60    62    1
