@<TRIPOS>MOLECULE
tmp/5pohA00.pdb
 114 109 0 0 0
SMALL
GASTEIGER

@<TRIPOS>ATOM
      1  N         -2.2460    7.4680   -3.6780 N.3    33  ILE33      -0.1231
      2  CA        -3.3650    8.0620   -2.9590 C.3    33  ILE33       0.1692
      3  C         -3.2310    7.9330   -1.4340 C.2    33  ILE33       0.2592
      4  O         -3.7020    8.8000   -0.6780 O.2    33  ILE33      -0.2718
      5  CB        -4.6680    7.4080   -3.4550 C.3    33  ILE33       0.0266
      6  CG1       -4.9310    7.8430   -4.9070 C.3    33  ILE33       0.0019
      7  CG2       -5.8500    7.7390   -2.5470 C.3    33  ILE33       0.0020
      8  CD1       -6.0940    7.1250   -5.6120 C.3    33  ILE33       0.0001
      9  N         -2.5540    6.8750   -0.9880 N.am   34  PHE34      -0.1976
     10  CA        -2.4360    6.5590    0.4420 C.3    34  PHE34       0.1639
     11  C         -1.0050    6.7530    0.9670 C.2    34  PHE34       0.2290
     12  O         -0.6740    6.3690    2.0910 O.2    34  PHE34      -0.2864
     13  CB        -2.9140    5.1210    0.6870 C.3    34  PHE34       0.0560
     14  CG        -4.2690    4.8510    0.1260 C.ar   34  PHE34      -0.0200
     15  CD1       -5.3870    5.3980    0.7230 C.ar   34  PHE34      -0.0042
     16  CD2       -4.4270    4.0800   -1.0170 C.ar   34  PHE34      -0.0042
     17  CE1       -6.6460    5.1710    0.2070 C.ar   34  PHE34      -0.0003
     18  CE2       -5.6870    3.8480   -1.5440 C.ar   34  PHE34      -0.0003
     19  CZ        -6.7990    4.3880   -0.9340 C.ar   34  PHE34      -0.0000
     20  N          0.7100    9.5220    1.7930 N.3    36  GLN36      -0.1245
     21  CA         0.9300   10.5610    2.7990 C.3    36  GLN36       0.1566
     22  C         -0.3470   10.8450    3.5900 C.2    36  GLN36       0.2260
     23  O         -1.4420   10.5560    3.1180 O.2    36  GLN36      -0.2867
     24  CB         1.3990   11.8560    2.1300 C.3    36  GLN36       0.0367
     25  CG         2.6970   11.7220    1.3780 C.3    36  GLN36       0.0905
     26  CD         3.8760   11.5720    2.3110 C.2    36  GLN36       0.2608
     27  OE1        3.8790   12.1030    3.4240 O.2    36  GLN36      -0.2717
     28  NE2        4.8920   10.8540    1.8610 N.am   36  GLN36      -0.0878
     29  N         -3.6290   12.6670    4.9140 N.3    38  VAL38      -0.1231
     30  CA        -4.5170   13.6670    4.3490 C.3    38  VAL38       0.1692
     31  C         -4.1930   15.0200    4.9870 C.2    38  VAL38       0.2592
     32  O         -4.1520   15.1530    6.2190 O.2    38  VAL38      -0.2718
     33  CB        -5.9870   13.2910    4.5620 C.3    38  VAL38       0.0266
     34  CG1       -6.8880   14.4290    4.1090 C.3    38  VAL38       0.0020
     35  CG2       -6.3160   12.0010    3.8120 C.3    38  VAL38       0.0020
     36  N         -3.9210   16.0150    4.1430 N.am   39  SER39      -0.1952
     37  CA        -3.5150   17.3410    4.6060 C.3    39  SER39       0.1924
     38  C         -4.6980   18.1670    5.1160 C.2    39  SER39       0.2314
     39  O         -5.6960   18.2890    4.4240 O.2    39  SER39      -0.2863
     40  CB        -2.8310   18.1040    3.4690 C.3    39  SER39       0.2116
     41  OG        -2.6840   19.4780    3.7950 O.3    39  SER39      -0.2180
     42  N         -5.5440   21.0740    2.8300 N.3    42  GLU42      -0.1231
     43  CA        -6.3320   20.7470    1.6550 C.3    42  GLU42       0.1699
     44  C         -7.7280   20.2520    2.0240 C.2    42  GLU42       0.2592
     45  O         -8.6920   20.5160    1.3030 O.2    42  GLU42      -0.2718
     46  CB        -5.5970   19.7130    0.8110 C.3    42  GLU42       0.0402
     47  CG        -4.2460   20.2480    0.3350 C.3    42  GLU42       0.1161
     48  CD        -3.4460   19.2620   -0.4880 C.2    42  GLU42       0.3649
     49  OE1       -3.8870   18.1070   -0.6560 O.co2  42  GLU42      -0.2457
     50  OE2       -2.3620   19.6560   -0.9710 O.co2  42  GLU42      -0.2457
     51  N         -7.8220   19.5300    3.1410 N.am   43  VAL43      -0.1980
     52  CA        -9.1010   19.0250    3.6470 C.3    43  VAL43       0.1595
     53  C         -9.2690   19.4310    5.1130 C.2    43  VAL43       0.2287
     54  O         -9.0330   18.6340    6.0290 O.2    43  VAL43      -0.2864
     55  CB        -9.2000   17.4890    3.5200 C.3    43  VAL43       0.0276
     56  CG1      -10.6230   17.0300    3.8170 C.3    43  VAL43       0.0022
     57  CG2       -8.7880   17.0380    2.1230 C.3    43  VAL43       0.0022
     58  N        -11.2190   17.1710    7.7950 N.3    46  TYR46      -0.1241
     59  CA       -10.9840   15.7270    7.7750 C.3    46  TYR46       0.1605
     60  C        -11.0440   15.0720    9.1630 C.2    46  TYR46       0.2264
     61  O        -11.5980   13.9790    9.3170 O.2    46  TYR46      -0.2867
     62  CB        -9.6380   15.4200    7.1190 C.3    46  TYR46       0.0534
     63  CG        -9.4160   13.9400    6.8790 C.ar   46  TYR46      -0.0201
     64  CD1      -10.1570   13.2500    5.9260 C.ar   46  TYR46      -0.0009
     65  CD2       -8.4550   13.2440    7.6010 C.ar   46  TYR46      -0.0009
     66  CE1       -9.9470   11.8860    5.7090 C.ar   46  TYR46       0.0417
     67  CE2       -8.2420   11.8880    7.3990 C.ar   46  TYR46       0.0417
     68  CZ        -8.9790   11.2210    6.4510 C.ar   46  TYR46       0.1957
     69  OH        -8.7730    9.8730    6.2580 O.3    46  TYR46      -0.2866
     70  N         -6.1600    2.5860    6.8820 N.3    81  ILE81      -0.1245
     71  CA        -6.0000    3.2920    5.6100 C.3    81  ILE81       0.1561
     72  C         -7.2160    3.0450    4.7200 C.2    81  ILE81       0.2260
     73  O         -7.8370    3.9910    4.2170 O.2    81  ILE81      -0.2867
     74  CB        -4.6980    2.8690    4.8830 C.3    81  ILE81       0.0252
     75  CG1       -3.4740    3.2640    5.7140 C.3    81  ILE81       0.0019
     76  CG2       -4.6110    3.5250    3.4980 C.3    81  ILE81       0.0019
     77  CD1       -2.1290    2.8910    5.1030 C.3    81  ILE81       0.0001
     78  N        -10.7230    5.6170    4.2570 N.3    85  CYS85      -0.1235
     79  CA       -10.9990    6.0500    2.8880 C.3    85  CYS85       0.1677
     80  C        -12.4130    5.6900    2.4250 C.2    85  CYS85       0.2270
     81  O        -13.0820    6.4990    1.7730 O.2    85  CYS85      -0.2867
     82  CB        -9.9570    5.4490    1.9420 C.3    85  CYS85       0.0956
     83  SG       -10.0870    6.0400    0.2400 S.3    85  CYS85      -0.0801
     84  N        -14.8530    8.2120    4.3190 N.3    88  TYR88      -0.1227
     85  CA       -14.7800    9.6230    3.9590 C.3    88  TYR88       0.1736
     86  C        -15.2270    9.8690    2.5230 C.2    88  TYR88       0.2595
     87  O        -15.9240   10.8450    2.2330 O.2    88  TYR88      -0.2718
     88  CB       -13.3640   10.1780    4.1780 C.3    88  TYR88       0.0548
     89  CG       -13.3440   11.6660    3.9780 C.ar   88  TYR88      -0.0200
     90  CD1      -13.8290   12.5150    4.9610 C.ar   88  TYR88      -0.0009
     91  CD2      -12.8830   12.2310    2.7880 C.ar   88  TYR88      -0.0009
     92  CE1      -13.8450   13.8910    4.7820 C.ar   88  TYR88       0.0417
     93  CE2      -12.9020   13.6090    2.5950 C.ar   88  TYR88       0.0417
     94  CZ       -13.3920   14.4310    3.5940 C.ar   88  TYR88       0.1957
     95  OH       -13.4320   15.8000    3.4150 O.3    88  TYR88      -0.2866
     96  N        -14.8270    8.9840    1.6190 N.am   89  ASN89      -0.1974
     97  CA       -15.1610    9.1600    0.2090 C.3    89  ASN89       0.1688
     98  C        -16.3330    8.2960   -0.2240 C.2    89  ASN89       0.2292
     99  O        -16.4870    7.1440    0.2350 O.2    89  ASN89      -0.2864
    100  CB       -13.9240    8.8650   -0.6400 C.3    89  ASN89       0.1181
    101  CG       -12.7290    9.6570   -0.1840 C.2    89  ASN89       0.2629
    102  OD1      -12.6120   10.8490   -0.4720 O.2    89  ASN89      -0.2716
    103  ND2      -11.8590    9.0240    0.5750 N.am   89  ASN89      -0.0877
    104  N        -11.0010    7.6680   -5.1700 N.3    95  PHE95      -0.1241
    105  CA       -10.4150    7.3490   -3.8700 C.3    95  PHE95       0.1605
    106  C        -10.9930    6.0640   -3.2860 C.2    95  PHE95       0.2264
    107  O        -10.2610    5.1670   -2.8870 O.2    95  PHE95      -0.2867
    108  CB       -10.6240    8.5210   -2.8990 C.3    95  PHE95       0.0534
    109  CG       -10.1200    9.8320   -3.4270 C.ar   95  PHE95      -0.0203
    110  CD1       -8.7580   10.0650   -3.5420 C.ar   95  PHE95      -0.0042
    111  CD2      -11.0000   10.8260   -3.8210 C.ar   95  PHE95      -0.0042
    112  CE1       -8.2840   11.2710   -4.0360 C.ar   95  PHE95      -0.0003
    113  CE2      -10.5320   12.0440   -4.3170 C.ar   95  PHE95      -0.0003
    114  CZ        -9.1710   12.2620   -4.4280 C.ar   95  PHE95      -0.0000
@<TRIPOS>BOND
     1     8     6    1
     2   104   105    1
     3     6     5    1
     4   114   113   ar
     5   114   112   ar
     6   113   111   ar
     7   112   110   ar
     8   105   106    1
     9   105   108    1
    10   111   109   ar
    11     1     2    1
    12   110   109   ar
    13     5     2    1
    14     5     7    1
    15   109   108    1
    16   106   107    2
    17     2     3    1
    18    18    16   ar
    19    18    19   ar
    20     3     9   am
    21     3     4    2
    22    16    14   ar
    23     9    10    1
    24    50    48   ar
    25    19    17   ar
    26    49    48   ar
    27   100   101    1
    28   100    97    1
    29    48    47    1
    30   102   101    2
    31    98    97    1
    32    98    99    2
    33   101   103   am
    34    14    13    1
    35    14    15   ar
    36    17    15   ar
    37    97    96    1
    38    83    82    1
    39    47    46    1
    40    10    13    1
    41    10    11    1
    42    46    43    1
    43    11    12    2
    44    45    44    2
    45    25    24    1
    46    25    26    1
    47    96    86   am
    48    43    44    1
    49    43    42    1
    50    81    80    2
    51    20    21    1
    52    28    26   am
    53    82    79    1
    54    44    51   am
    55    57    55    1
    56    24    21    1
    57    87    86    2
    58    26    27    2
    59    80    79    1
    60    86    85    1
    61    93    91   ar
    62    93    94   ar
    63    91    89   ar
    64    21    22    1
    65    79    78    1
    66    23    22    2
    67    51    52    1
    68    95    94    1
    69    40    41    1
    70    40    37    1
    71    76    74    1
    72    55    52    1
    73    55    56    1
    74    94    92   ar
    75    52    53    1
    76    35    33    1
    77    85    88    1
    78    85    84    1
    79    89    88    1
    80    89    90   ar
    81    34    33    1
    82    36    37    1
    83    36    31   am
    84    73    72    2
    85    30    33    1
    86    30    29    1
    87    30    31    1
    88    39    38    2
    89    37    38    1
    90    72    71    1
    91    92    90   ar
    92    74    71    1
    93    74    75    1
    94    31    32    2
    95    77    75    1
    96    53    54    2
    97    71    70    1
    98    66    64   ar
    99    66    68   ar
   100    64    63   ar
   101    69    68    1
   102    68    67   ar
   103    63    62    1
   104    63    65   ar
   105    62    59    1
   106    67    65   ar
   107    59    58    1
   108    59    60    1
   109    60    61    2
