@<TRIPOS>MOLECULE
tmp/5poiB00.pdb
 91 88 0 0 0
SMALL
GASTEIGER

@<TRIPOS>ATOM
      1  N        -33.4720    5.2920   13.2390 N.3    33  ILE33      -0.1231
      2  CA       -32.6440    5.0300   12.0720 C.3    33  ILE33       0.1692
      3  C        -31.8200    3.7520   12.2730 C.2    33  ILE33       0.2592
      4  O        -31.5380    3.0230   11.3360 O.2    33  ILE33      -0.2718
      5  CB       -31.7100    6.2230   11.7870 C.3    33  ILE33       0.0266
      6  CG1      -32.5180    7.4340   11.3210 C.3    33  ILE33       0.0019
      7  CG2      -30.6640    5.8610   10.7500 C.3    33  ILE33       0.0020
      8  CD1      -31.7140    8.7210   11.2660 C.3    33  ILE33       0.0001
      9  N        -31.4600    3.4680   13.5140 N.am   34  PHE34      -0.1976
     10  CA       -30.5840    2.3420   13.7880 C.3    34  PHE34       0.1639
     11  C        -31.2710    1.2540   14.5970 C.2    34  PHE34       0.2290
     12  O        -30.6100    0.3640   15.1310 O.2    34  PHE34      -0.2864
     13  CB       -29.3300    2.8530   14.4970 C.3    34  PHE34       0.0560
     14  CG       -28.6050    3.8950   13.7030 C.ar   34  PHE34      -0.0200
     15  CD1      -27.9200    3.5390   12.5380 C.ar   34  PHE34      -0.0042
     16  CD2      -28.6570    5.2340   14.0700 C.ar   34  PHE34      -0.0042
     17  CE1      -27.2590    4.4930   11.7710 C.ar   34  PHE34      -0.0003
     18  CE2      -28.0040    6.2030   13.3000 C.ar   34  PHE34      -0.0003
     19  CZ       -27.2960    5.8300   12.1530 C.ar   34  PHE34      -0.0000
     20  N        -31.3350   -2.8590    8.3600 N.3    38  VAL38      -0.1245
     21  CA       -31.6260   -2.1500    7.1220 C.3    38  VAL38       0.1561
     22  C        -32.4190   -3.0900    6.2000 C.2    38  VAL38       0.2260
     23  O        -31.9930   -4.2170    5.9610 O.2    38  VAL38      -0.2867
     24  CB       -30.3170   -1.6850    6.4420 C.3    38  VAL38       0.0252
     25  CG1      -30.5580   -1.2400    5.0070 C.3    38  VAL38       0.0019
     26  CG2      -29.6380   -0.5970    7.2690 C.3    38  VAL38       0.0019
     27  N        -36.0440   -2.3340    0.9010 N.3    42  GLU42      -0.1231
     28  CA       -35.8820   -0.8910    0.7590 C.3    42  GLU42       0.1699
     29  C        -34.4980   -0.5280    0.1990 C.2    42  GLU42       0.2592
     30  O        -34.3630    0.4260   -0.5630 O.2    42  GLU42      -0.2718
     31  CB       -36.1160   -0.1910    2.1030 C.3    42  GLU42       0.0402
     32  CG       -35.9680    1.3300    2.0380 C.3    42  GLU42       0.1161
     33  CD       -36.2180    2.0150    3.3720 C.2    42  GLU42       0.3649
     34  OE1      -36.5830    1.3220    4.3430 O.co2  42  GLU42      -0.2457
     35  OE2      -36.0500    3.2510    3.4480 O.co2  42  GLU42      -0.2457
     36  N        -33.4720   -1.2880    0.5760 N.am   43  VAL43      -0.1980
     37  CA       -32.1110   -1.0390    0.0930 C.3    43  VAL43       0.1595
     38  C        -31.4980   -2.3340   -0.4380 C.2    43  VAL43       0.2287
     39  O        -30.7300   -3.0080    0.2600 O.2    43  VAL43      -0.2864
     40  CB       -31.2070   -0.4540    1.1980 C.3    43  VAL43       0.0276
     41  CG1      -29.8950    0.0430    0.6040 C.3    43  VAL43       0.0022
     42  CG2      -31.9210    0.6750    1.9430 C.3    43  VAL43       0.0022
     43  N        -27.6030   -3.2450   -0.3200 N.3    46  TYR46      -0.1241
     44  CA       -26.9160   -2.9810    0.9560 C.3    46  TYR46       0.1605
     45  C        -25.8040   -3.9910    1.2410 C.2    46  TYR46       0.2264
     46  O        -24.6820   -3.6240    1.6310 O.2    46  TYR46      -0.2867
     47  CB       -27.9180   -2.9710    2.1200 C.3    46  TYR46       0.0534
     48  CG       -27.3380   -2.4340    3.4090 C.ar   46  TYR46      -0.0201
     49  CD1      -26.9530   -1.0990    3.5120 C.ar   46  TYR46      -0.0009
     50  CD2      -27.1650   -3.2540    4.5190 C.ar   46  TYR46      -0.0009
     51  CE1      -26.4050   -0.5910    4.6730 C.ar   46  TYR46       0.0417
     52  CE2      -26.6230   -2.7480    5.7050 C.ar   46  TYR46       0.0417
     53  CZ       -26.2480   -1.4140    5.7730 C.ar   46  TYR46       0.1957
     54  OH       -25.7040   -0.8970    6.9310 O.3    46  TYR46      -0.2866
     55  N        -22.9770    2.5150    8.4400 N.3    85  CYS85      -0.1235
     56  CA       -23.7260    3.6770    7.9970 C.3    85  CYS85       0.1677
     57  C        -22.8060    4.6870    7.2980 C.2    85  CYS85       0.2270
     58  O        -23.0770    5.1200    6.1720 O.2    85  CYS85      -0.2867
     59  CB       -24.4400    4.3320    9.1740 C.3    85  CYS85       0.0956
     60  SG       -25.6110    5.6300    8.6570 S.3    85  CYS85      -0.0801
     61  N        -21.6990    3.0860    3.9700 N.3    88  TYR88      -0.1227
     62  CA       -22.7080    2.9830    2.9180 C.3    88  TYR88       0.1736
     63  C        -23.2090    4.3380    2.3960 C.2    88  TYR88       0.2595
     64  O        -23.5170    4.4720    1.2120 O.2    88  TYR88      -0.2718
     65  CB       -23.9070    2.1520    3.3820 C.3    88  TYR88       0.0548
     66  CG       -24.8990    1.9530    2.2540 C.ar   88  TYR88      -0.0200
     67  CD1      -24.6650    1.0120    1.2570 C.ar   88  TYR88      -0.0009
     68  CD2      -26.0410    2.7370    2.1590 C.ar   88  TYR88      -0.0009
     69  CE1      -25.5460    0.8530    0.2110 C.ar   88  TYR88       0.0417
     70  CE2      -26.9290    2.5800    1.1180 C.ar   88  TYR88       0.0417
     71  CZ       -26.6760    1.6390    0.1420 C.ar   88  TYR88       0.1957
     72  OH       -27.5530    1.4810   -0.9100 O.3    88  TYR88      -0.2866
     73  N        -23.3090    5.3360    3.2650 N.am   89  ASN89      -0.1974
     74  CA       -23.8890    6.6140    2.8530 C.3    89  ASN89       0.1688
     75  C        -22.8500    7.6920    2.5200 C.2    89  ASN89       0.2292
     76  O        -21.7340    7.6970    3.0640 O.2    89  ASN89      -0.2864
     77  CB       -24.8400    7.1190    3.9450 C.3    89  ASN89       0.1181
     78  CG       -26.0110    6.1590    4.2000 C.2    89  ASN89       0.2629
     79  OD1      -26.0130    5.3970    5.1650 O.2    89  ASN89      -0.2716
     80  ND2      -26.9960    6.1880    3.3190 N.am   89  ASN89      -0.0877
     81  N        -28.3610   10.4470    6.9030 N.3    95  PHE95      -0.1241
     82  CA       -27.9980    9.2170    7.5930 C.3    95  PHE95       0.1605
     83  C        -26.5400    9.2290    8.0090 C.2    95  PHE95       0.2264
     84  O        -26.2060    8.8370    9.1300 O.2    95  PHE95      -0.2867
     85  CB       -28.3290    7.9930    6.7390 C.3    95  PHE95       0.0534
     86  CG       -29.8080    7.6340    6.7570 C.ar   95  PHE95      -0.0203
     87  CD1      -30.7230    8.4630    7.3890 C.ar   95  PHE95      -0.0042
     88  CD2      -30.2730    6.4740    6.1720 C.ar   95  PHE95      -0.0042
     89  CE1      -32.0670    8.1430    7.4180 C.ar   95  PHE95      -0.0003
     90  CE2      -31.6240    6.1510    6.2010 C.ar   95  PHE95      -0.0003
     91  CZ       -32.5160    6.9830    6.8200 C.ar   95  PHE95      -0.0000
@<TRIPOS>BOND
     1    72    71    1
     2    30    29    2
     3    38    37    1
     4    38    39    2
     5    43    44    1
     6    37    36    1
     7    37    40    1
     8    71    69   ar
     9    71    70   ar
    10    29    36   am
    11    29    28    1
    12    69    67   ar
    13    41    40    1
    14    28    27    1
    15    28    31    1
    16    44    45    1
    17    44    47    1
    18    70    68   ar
    19    40    42    1
    20    64    63    2
    21    45    46    2
    22    67    66   ar
    23    32    31    1
    24    32    33    1
    25    47    48    1
    26    68    66   ar
    27    66    65    1
    28    63    62    1
    29    63    73   am
    30    75    74    1
    31    75    76    2
    32    74    73    1
    33    74    77    1
    34    62    65    1
    35    62    61    1
    36    80    78   am
    37    33    35   ar
    38    33    34   ar
    39    48    49   ar
    40    48    50   ar
    41    49    51   ar
    42    77    78    1
    43    78    79    2
    44    50    52   ar
    45    51    53   ar
    46    25    24    1
    47    52    53   ar
    48    53    54    1
    49    23    22    2
    50    58    57    2
    51    88    90   ar
    52    88    86   ar
    53    22    21    1
    54    90    91   ar
    55    24    21    1
    56    24    26    1
    57    85    86    1
    58    85    82    1
    59    86    87   ar
    60    91    89   ar
    61    81    82    1
    62    21    20    1
    63    57    56    1
    64    87    89   ar
    65    82    83    1
    66    56    55    1
    67    56    59    1
    68    83    84    2
    69    60    59    1
    70     7     5    1
    71     8     6    1
    72     6     5    1
    73     4     3    2
    74    17    19   ar
    75    17    15   ar
    76     5     2    1
    77     2     3    1
    78     2     1    1
    79    19    18   ar
    80     3     9   am
    81    15    14   ar
    82    18    16   ar
    83     9    10    1
    84    14    16   ar
    85    14    13    1
    86    10    13    1
    87    10    11    1
    88    11    12    2
