@<TRIPOS>MOLECULE
tmp/5pokA00.pdb
 106 102 0 0 0
SMALL
GASTEIGER

@<TRIPOS>ATOM
      1  N         -2.1670    7.3970   -3.6540 N.3    33  ILE33      -0.1231
      2  CA        -3.2540    8.0330   -2.9360 C.3    33  ILE33       0.1692
      3  C         -3.0920    7.8730   -1.4230 C.2    33  ILE33       0.2592
      4  O         -3.5220    8.7250   -0.6470 O.2    33  ILE33      -0.2718
      5  CB        -4.5930    7.4510   -3.4030 C.3    33  ILE33       0.0266
      6  CG1       -4.7880    7.7770   -4.8870 C.3    33  ILE33       0.0019
      7  CG2       -5.7300    7.9740   -2.5390 C.3    33  ILE33       0.0020
      8  CD1       -6.0450    7.1910   -5.4940 C.3    33  ILE33       0.0001
      9  N         -2.4220    6.8050   -1.0030 N.am   34  PHE34      -0.1976
     10  CA        -2.2970    6.5470    0.4300 C.3    34  PHE34       0.1639
     11  C         -0.8820    6.7540    0.9590 C.2    34  PHE34       0.2290
     12  O         -0.5560    6.3580    2.0780 O.2    34  PHE34      -0.2864
     13  CB        -2.7860    5.1390    0.7250 C.3    34  PHE34       0.0560
     14  CG        -4.1430    4.8730    0.1690 C.ar   34  PHE34      -0.0200
     15  CD1       -5.2560    5.4680    0.7390 C.ar   34  PHE34      -0.0042
     16  CD2       -4.3070    4.0740   -0.9530 C.ar   34  PHE34      -0.0042
     17  CE1       -6.5110    5.2500    0.2260 C.ar   34  PHE34      -0.0003
     18  CE2       -5.5690    3.8460   -1.4750 C.ar   34  PHE34      -0.0003
     19  CZ        -6.6730    4.4360   -0.8880 C.ar   34  PHE34      -0.0000
     20  N          0.7770    9.5780    1.8750 N.3    36  GLN36      -0.1245
     21  CA         1.0410   10.6390    2.8690 C.3    36  GLN36       0.1566
     22  C         -0.2070   10.9790    3.7120 C.2    36  GLN36       0.2260
     23  O         -1.3160   10.6790    3.2780 O.2    36  GLN36      -0.2867
     24  CB         1.5340   11.9070    2.1500 C.3    36  GLN36       0.0367
     25  CG         2.7960   11.7170    1.3150 C.3    36  GLN36       0.0905
     26  CD         4.0400   11.5770    2.1740 C.2    36  GLN36       0.2608
     27  OE1        4.1150   12.1310    3.2690 O.2    36  GLN36      -0.2717
     28  NE2        5.0230   10.8360    1.6790 N.am   36  GLN36      -0.0878
     29  N         -3.4740   12.6900    4.9590 N.3    38  VAL38      -0.1231
     30  CA        -4.4010   13.6420    4.3720 C.3    38  VAL38       0.1692
     31  C         -4.0980   15.0200    4.9500 C.2    38  VAL38       0.2592
     32  O         -4.0360   15.1950    6.1730 O.2    38  VAL38      -0.2718
     33  CB        -5.8650   13.2700    4.6440 C.3    38  VAL38       0.0266
     34  CG1       -6.7740   14.3820    4.1700 C.3    38  VAL38       0.0020
     35  CG2       -6.2170   11.9520    3.9640 C.3    38  VAL38       0.0020
     36  N         -3.8940   15.9860    4.0550 N.am   39  SER39      -0.1952
     37  CA        -3.5730   17.3590    4.4180 C.3    39  SER39       0.1924
     38  C         -4.7200   18.1040    5.1050 C.2    39  SER39       0.2314
     39  O         -5.8090   18.2420    4.5500 O.2    39  SER39      -0.2863
     40  CB        -3.1620   18.1400    3.1700 C.3    39  SER39       0.2116
     41  OG        -3.0200   19.5170    3.4760 O.3    39  SER39      -0.2180
     42  N         -5.6360   21.0300    3.0240 N.3    42  GLU42      -0.1231
     43  CA        -6.4680   20.7390    1.8630 C.3    42  GLU42       0.1699
     44  C         -7.8310   20.1610    2.2570 C.2    42  GLU42       0.2592
     45  O         -8.8080   20.3010    1.5190 O.2    42  GLU42      -0.2718
     46  CB        -5.7250   19.7920    0.9210 C.3    42  GLU42       0.0402
     47  CG        -4.5840   20.4830    0.1740 C.3    42  GLU42       0.1161
     48  CD        -3.5800   19.5110   -0.4220 C.2    42  GLU42       0.3649
     49  OE1       -3.8060   18.2900   -0.3280 O.co2  42  GLU42      -0.2457
     50  OE2       -2.5580   19.9720   -0.9770 O.co2  42  GLU42      -0.2457
     51  N         -7.9010   19.5150    3.4190 N.am   43  VAL43      -0.1980
     52  CA        -9.1770   18.9950    3.9210 C.3    43  VAL43       0.1595
     53  C         -9.3390   19.3950    5.3840 C.2    43  VAL43       0.2287
     54  O         -9.0900   18.5960    6.2970 O.2    43  VAL43      -0.2864
     55  CB        -9.2710   17.4600    3.7880 C.3    43  VAL43       0.0276
     56  CG1      -10.6700   16.9870    4.1360 C.3    43  VAL43       0.0022
     57  CG2       -8.8980   17.0170    2.3740 C.3    43  VAL43       0.0022
     58  N        -11.2160   17.2470    8.0910 N.3    46  TYR46      -0.1241
     59  CA       -10.9540   15.8000    8.0280 C.3    46  TYR46       0.1605
     60  C        -11.1100   15.1340    9.3960 C.2    46  TYR46       0.2264
     61  O        -11.7330   14.0730    9.5090 O.2    46  TYR46      -0.2867
     62  CB        -9.5520   15.5050    7.4540 C.3    46  TYR46       0.0534
     63  CG        -9.3080   14.0260    7.1560 C.ar   46  TYR46      -0.0201
     64  CD1      -10.0220   13.3770    6.1540 C.ar   46  TYR46      -0.0009
     65  CD2       -8.3560   13.3040    7.8540 C.ar   46  TYR46      -0.0009
     66  CE1       -9.7990   12.0280    5.8730 C.ar   46  TYR46       0.0417
     67  CE2       -8.1290   11.9490    7.5840 C.ar   46  TYR46       0.0417
     68  CZ        -8.8470   11.3280    6.5990 C.ar   46  TYR46       0.1957
     69  OH        -8.6290    9.9930    6.3240 O.3    46  TYR46      -0.2866
     70  N        -10.5530    5.7270    4.3240 N.3    85  CYS85      -0.1235
     71  CA       -10.8190    6.1840    2.9610 C.3    85  CYS85       0.1677
     72  C        -12.2230    5.8110    2.4820 C.2    85  CYS85       0.2270
     73  O        -12.8980    6.5940    1.8000 O.2    85  CYS85      -0.2867
     74  CB        -9.7620    5.6000    2.0260 C.3    85  CYS85       0.0956
     75  SG        -9.8850    6.2200    0.3200 S.3    85  CYS85      -0.0801
     76  N        -14.7110    8.3180    4.3750 N.3    88  TYR88      -0.1227
     77  CA       -14.7030    9.7240    4.0020 C.3    88  TYR88       0.1736
     78  C        -15.1600    9.9480    2.5720 C.2    88  TYR88       0.2595
     79  O        -15.8530   10.9270    2.2640 O.2    88  TYR88      -0.2718
     80  CB       -13.3060   10.3250    4.1920 C.3    88  TYR88       0.0548
     81  CG       -13.3240   11.8180    4.0120 C.ar   88  TYR88      -0.0200
     82  CD1      -13.7120   12.6540    5.0450 C.ar   88  TYR88      -0.0009
     83  CD2      -12.9920   12.3940    2.7920 C.ar   88  TYR88      -0.0009
     84  CE1      -13.7500   14.0310    4.8760 C.ar   88  TYR88       0.0417
     85  CE2      -13.0290   13.7680    2.6140 C.ar   88  TYR88       0.0417
     86  CZ       -13.4160   14.5780    3.6540 C.ar   88  TYR88       0.1957
     87  OH       -13.4650   15.9460    3.4630 O.3    88  TYR88      -0.2866
     88  N        -14.8010    9.0180    1.7020 N.am   89  ASN89      -0.1974
     89  CA       -15.0740    9.1750    0.2820 C.3    89  ASN89       0.1688
     90  C        -16.2120    8.3000   -0.1690 C.2    89  ASN89       0.2292
     91  O        -16.3560    7.1600    0.2770 O.2    89  ASN89      -0.2864
     92  CB       -13.8090    8.8600   -0.5260 C.3    89  ASN89       0.1181
     93  CG       -12.6640    9.7480   -0.1500 C.2    89  ASN89       0.2629
     94  OD1      -12.6720   10.9350   -0.4760 O.2    89  ASN89      -0.2716
     95  ND2      -11.6680    9.1980    0.5500 N.am   89  ASN89      -0.0877
     96  N        -10.9300    7.7860   -5.1330 N.3    95  PHE95      -0.1241
     97  CA       -10.3540    7.4780   -3.8230 C.3    95  PHE95       0.1605
     98  C        -10.9140    6.1910   -3.2130 C.2    95  PHE95       0.2264
     99  O        -10.1590    5.3340   -2.7300 O.2    95  PHE95      -0.2867
    100  CB       -10.5930    8.6520   -2.8780 C.3    95  PHE95       0.0534
    101  CG       -10.1070    9.9630   -3.4210 C.ar   95  PHE95      -0.0203
    102  CD1       -8.7530   10.2300   -3.4940 C.ar   95  PHE95      -0.0042
    103  CD2      -11.0000   10.9280   -3.8580 C.ar   95  PHE95      -0.0042
    104  CE1       -8.3030   11.4330   -3.9910 C.ar   95  PHE95      -0.0003
    105  CE2      -10.5500   12.1450   -4.3600 C.ar   95  PHE95      -0.0003
    106  CZ        -9.2000   12.3900   -4.4340 C.ar   95  PHE95      -0.0000
@<TRIPOS>BOND
     1     8     6    1
     2    96    97    1
     3     6     5    1
     4   106   105   ar
     5   106   104   ar
     6   105   103   ar
     7   104   102   ar
     8   103   101   ar
     9    97    98    1
    10    97   100    1
    11     1     2    1
    12   102   101   ar
    13   101   100    1
    14     5     2    1
    15     5     7    1
    16    98    99    2
    17     2     3    1
    18    18    16   ar
    19    18    19   ar
    20     3     9   am
    21     3     4    2
    22     9    10    1
    23    50    48   ar
    24    16    14   ar
    25    19    17   ar
    26    92    93    1
    27    92    89    1
    28    94    93    2
    29    48    49   ar
    30    48    47    1
    31    90    91    2
    32    90    89    1
    33    93    95   am
    34    14    13    1
    35    14    15   ar
    36    47    46    1
    37    17    15   ar
    38    89    88    1
    39    75    74    1
    40    10    13    1
    41    10    11    1
    42    46    43    1
    43    11    12    2
    44    25    24    1
    45    25    26    1
    46    45    44    2
    47    28    26   am
    48    88    78   am
    49    73    72    2
    50    43    44    1
    51    43    42    1
    52    20    21    1
    53    74    71    1
    54    24    21    1
    55    26    27    2
    56    44    51   am
    57    79    78    2
    58    57    55    1
    59    72    71    1
    60    78    77    1
    61    85    83   ar
    62    85    86   ar
    63    83    81   ar
    64    21    22    1
    65    71    70    1
    66    40    41    1
    67    40    37    1
    68    23    22    2
    69    51    52    1
    70    87    86    1
    71    86    84   ar
    72    55    52    1
    73    55    56    1
    74    52    53    1
    75    35    33    1
    76    77    80    1
    77    77    76    1
    78    81    80    1
    79    81    82   ar
    80    36    37    1
    81    36    31   am
    82    34    33    1
    83    30    33    1
    84    30    31    1
    85    30    29    1
    86    37    38    1
    87    39    38    2
    88    84    82   ar
    89    31    32    2
    90    53    54    2
    91    66    64   ar
    92    66    68   ar
    93    64    63   ar
    94    69    68    1
    95    68    67   ar
    96    63    62    1
    97    63    65   ar
    98    62    59    1
    99    67    65   ar
   100    59    58    1
   101    59    60    1
   102    60    61    2
