@<TRIPOS>MOLECULE
tmp/5polB00.pdb
 91 88 0 0 0
SMALL
GASTEIGER

@<TRIPOS>ATOM
      1  N        -33.1140    5.0790   13.0950 N.3    33  ILE33      -0.1231
      2  CA       -32.2270    4.8040   11.9660 C.3    33  ILE33       0.1692
      3  C        -31.4060    3.5170   12.1720 C.2    33  ILE33       0.2592
      4  O        -31.1600    2.7650   11.2240 O.2    33  ILE33      -0.2718
      5  CB       -31.2860    6.0020   11.7220 C.3    33  ILE33       0.0266
      6  CG1      -32.1070    7.2100   11.2460 C.3    33  ILE33       0.0019
      7  CG2      -30.2050    5.6790   10.6690 C.3    33  ILE33       0.0020
      8  CD1      -31.3390    8.5160   11.2470 C.3    33  ILE33       0.0001
      9  N        -31.0010    3.2640   13.4150 N.am   34  PHE34      -0.1976
     10  CA       -30.1450    2.1260   13.7370 C.3    34  PHE34       0.1639
     11  C        -30.8710    1.0610   14.5480 C.2    34  PHE34       0.2290
     12  O        -30.2620    0.1280   15.0640 O.2    34  PHE34      -0.2864
     13  CB       -28.9010    2.6240   14.4980 C.3    34  PHE34       0.0560
     14  CG       -28.1880    3.7540   13.8000 C.ar   34  PHE34      -0.0200
     15  CD1      -27.4340    3.5090   12.6580 C.ar   34  PHE34      -0.0042
     16  CD2      -28.2810    5.0590   14.2690 C.ar   34  PHE34      -0.0042
     17  CE1      -26.7840    4.5440   11.9970 C.ar   34  PHE34      -0.0003
     18  CE2      -27.6380    6.1020   13.6050 C.ar   34  PHE34      -0.0003
     19  CZ       -26.8750    5.8370   12.4710 C.ar   34  PHE34      -0.0000
     20  N        -30.8670   -3.2320    8.4100 N.3    38  VAL38      -0.1245
     21  CA       -31.2010   -2.5800    7.1520 C.3    38  VAL38       0.1561
     22  C        -31.9820   -3.5670    6.2890 C.2    38  VAL38       0.2260
     23  O        -31.6050   -4.7370    6.1790 O.2    38  VAL38      -0.2867
     24  CB       -29.9300   -2.0970    6.4080 C.3    38  VAL38       0.0252
     25  CG1      -30.2500   -1.7270    4.9700 C.3    38  VAL38       0.0019
     26  CG2      -29.2870   -0.9280    7.1500 C.3    38  VAL38       0.0019
     27  N        -35.6950   -2.7460    0.9090 N.3    42  GLU42      -0.1231
     28  CA       -35.5600   -1.2980    0.7460 C.3    42  GLU42       0.1699
     29  C        -34.1980   -0.9170    0.1730 C.2    42  GLU42       0.2592
     30  O        -34.0670    0.0760   -0.5440 O.2    42  GLU42      -0.2718
     31  CB       -35.7710   -0.5810    2.0890 C.3    42  GLU42       0.0402
     32  CG       -35.6360    0.9440    2.0210 C.3    42  GLU42       0.1161
     33  CD       -35.6270    1.6170    3.3880 C.2    42  GLU42       0.3649
     34  OE1      -35.8530    2.8460    3.4480 O.co2  42  GLU42      -0.2457
     35  OE2      -35.3880    0.9270    4.4030 O.co2  42  GLU42      -0.2457
     36  N        -33.1710   -1.6990    0.5090 N.am   43  VAL43      -0.1980
     37  CA       -31.8070   -1.4000    0.0690 C.3    43  VAL43       0.1595
     38  C        -31.1310   -2.6220   -0.5450 C.2    43  VAL43       0.2287
     39  O        -30.2940   -3.2590    0.0890 O.2    43  VAL43      -0.2864
     40  CB       -30.9380   -0.8820    1.2430 C.3    43  VAL43       0.0276
     41  CG1      -29.6330   -0.2780    0.7290 C.3    43  VAL43       0.0022
     42  CG2      -31.7050    0.1410    2.0610 C.3    43  VAL43       0.0022
     43  N        -27.2260   -3.4060   -0.3310 N.3    46  TYR46      -0.1241
     44  CA       -26.5510   -3.1760    0.9580 C.3    46  TYR46       0.1605
     45  C        -25.4340   -4.1830    1.2230 C.2    46  TYR46       0.2264
     46  O        -24.3320   -3.8120    1.6520 O.2    46  TYR46      -0.2867
     47  CB       -27.5520   -3.2060    2.1140 C.3    46  TYR46       0.0534
     48  CG       -26.9610   -2.6820    3.4180 C.ar   46  TYR46      -0.0201
     49  CD1      -26.6050   -1.3440    3.5520 C.ar   46  TYR46      -0.0009
     50  CD2      -26.7380   -3.5350    4.4990 C.ar   46  TYR46      -0.0009
     51  CE1      -26.0540   -0.8560    4.7370 C.ar   46  TYR46       0.0417
     52  CE2      -26.1800   -3.0570    5.6960 C.ar   46  TYR46       0.0417
     53  CZ       -25.8430   -1.7140    5.8020 C.ar   46  TYR46       0.1957
     54  OH       -25.2960   -1.2210    6.9760 O.3    46  TYR46      -0.2866
     55  N        -22.5140    2.4390    8.5910 N.3    85  CYS85      -0.1235
     56  CA       -23.2990    3.5750    8.1300 C.3    85  CYS85       0.1677
     57  C        -22.4050    4.6110    7.4510 C.2    85  CYS85       0.2270
     58  O        -22.7590    5.1480    6.4050 O.2    85  CYS85      -0.2867
     59  CB       -24.0820    4.1720    9.3040 C.3    85  CYS85       0.0956
     60  SG       -25.2250    5.5160    8.8090 S.3    85  CYS85      -0.0801
     61  N        -21.3590    3.0350    4.0130 N.3    88  TYR88      -0.1227
     62  CA       -22.3930    2.9200    2.9880 C.3    88  TYR88       0.1736
     63  C        -22.8890    4.2700    2.4640 C.2    88  TYR88       0.2595
     64  O        -23.2200    4.3990    1.2780 O.2    88  TYR88      -0.2718
     65  CB       -23.6010    2.1290    3.5000 C.3    88  TYR88       0.0548
     66  CG       -24.6150    1.9210    2.3980 C.ar   88  TYR88      -0.0200
     67  CD1      -24.4180    0.9490    1.4220 C.ar   88  TYR88      -0.0009
     68  CD2      -25.7510    2.7190    2.3110 C.ar   88  TYR88      -0.0009
     69  CE1      -25.3430    0.7720    0.3860 C.ar   88  TYR88       0.0417
     70  CE2      -26.6730    2.5500    1.2780 C.ar   88  TYR88       0.0417
     71  CZ       -26.4550    1.5750    0.3200 C.ar   88  TYR88       0.1957
     72  OH       -27.3610    1.3880   -0.7140 O.3    88  TYR88      -0.2866
     73  N        -22.9700    5.2610    3.3470 N.am   89  ASN89      -0.1974
     74  CA       -23.5430    6.5570    2.9860 C.3    89  ASN89       0.1688
     75  C        -22.4720    7.6140    2.7150 C.2    89  ASN89       0.2292
     76  O        -21.4150    7.6220    3.3510 O.2    89  ASN89      -0.2864
     77  CB       -24.5050    7.0280    4.0880 C.3    89  ASN89       0.1181
     78  CG       -25.6560    6.0670    4.2950 C.2    89  ASN89       0.2629
     79  OD1      -26.6260    6.0820    3.5440 O.2    89  ASN89      -0.2716
     80  ND2      -25.5610    5.2340    5.3210 N.am   89  ASN89      -0.0877
     81  N        -28.1050   10.3940    6.9440 N.3    95  PHE95      -0.1241
     82  CA       -27.7510    9.1700    7.6720 C.3    95  PHE95       0.1605
     83  C        -26.2800    9.1460    8.0870 C.2    95  PHE95       0.2264
     84  O        -25.9520    8.6780    9.1890 O.2    95  PHE95      -0.2867
     85  CB       -28.1000    7.9210    6.8540 C.3    95  PHE95       0.0534
     86  CG       -29.5730    7.5530    6.9060 C.ar   95  PHE95      -0.0203
     87  CD1      -30.4980    8.4310    7.4300 C.ar   95  PHE95      -0.0042
     88  CD2      -30.0120    6.3170    6.4670 C.ar   95  PHE95      -0.0042
     89  CE1      -31.8520    8.0950    7.4830 C.ar   95  PHE95      -0.0003
     90  CE2      -31.3530    5.9820    6.5160 C.ar   95  PHE95      -0.0003
     91  CZ       -32.2680    6.8660    7.0260 C.ar   95  PHE95      -0.0000
@<TRIPOS>BOND
     1    72    71    1
     2    38    37    1
     3    38    39    2
     4    30    29    2
     5    43    44    1
     6    37    36    1
     7    37    40    1
     8    29    36   am
     9    29    28    1
    10    71    69   ar
    11    71    70   ar
    12    69    67   ar
    13    41    40    1
    14    28    27    1
    15    28    31    1
    16    44    45    1
    17    44    47    1
    18    45    46    2
    19    40    42    1
    20    70    68   ar
    21    64    63    2
    22    67    66   ar
    23    32    31    1
    24    32    33    1
    25    47    48    1
    26    68    66   ar
    27    66    65    1
    28    63    62    1
    29    63    73   am
    30    75    74    1
    31    75    76    2
    32    74    73    1
    33    74    77    1
    34    62    65    1
    35    62    61    1
    36    33    34   ar
    37    33    35   ar
    38    48    49   ar
    39    48    50   ar
    40    79    78    2
    41    49    51   ar
    42    77    78    1
    43    78    80   am
    44    50    52   ar
    45    51    53   ar
    46    25    24    1
    47    52    53   ar
    48    53    54    1
    49    23    22    2
    50    22    21    1
    51    58    57    2
    52    24    26    1
    53    24    21    1
    54    88    90   ar
    55    88    86   ar
    56    90    91   ar
    57    85    86    1
    58    85    82    1
    59    86    87   ar
    60    81    82    1
    61    91    89   ar
    62    21    20    1
    63    87    89   ar
    64    57    56    1
    65    82    83    1
    66    83    84    2
    67    56    55    1
    68    56    59    1
    69    60    59    1
    70     7     5    1
    71     4     3    2
    72     6     8    1
    73     6     5    1
    74     5     2    1
    75     2     3    1
    76     2     1    1
    77    17    19   ar
    78    17    15   ar
    79     3     9   am
    80    19    18   ar
    81    15    14   ar
    82     9    10    1
    83    18    16   ar
    84    10    13    1
    85    10    11    1
    86    14    16   ar
    87    14    13    1
    88    11    12    2
