@<TRIPOS>MOLECULE
tmp/5pomB00.pdb
 97 94 0 0 0
SMALL
GASTEIGER

@<TRIPOS>ATOM
      1  N        -33.2530    5.1630   13.0890 N.3    33  ILE33      -0.1231
      2  CA       -32.4050    4.9100   11.9190 C.3    33  ILE33       0.1692
      3  C        -31.5260    3.6540   12.0960 C.2    33  ILE33       0.2592
      4  O        -31.2480    2.9370   11.1300 O.2    33  ILE33      -0.2718
      5  CB       -31.5210    6.1240   11.6320 C.3    33  ILE33       0.0266
      6  CG1      -32.3770    7.2730   11.0720 C.3    33  ILE33       0.0019
      7  CG2      -30.4370    5.8040   10.6160 C.3    33  ILE33       0.0020
      8  CD1      -31.6870    8.6000   11.0530 C.3    33  ILE33       0.0001
      9  N        -31.1300    3.3860   13.3390 N.am   34  PHE34      -0.1976
     10  CA       -30.2510    2.2580   13.6550 C.3    34  PHE34       0.1639
     11  C        -30.9800    1.1810   14.4680 C.2    34  PHE34       0.2290
     12  O        -30.3650    0.2520   15.0010 O.2    34  PHE34      -0.2864
     13  CB       -29.0090    2.7670   14.4150 C.3    34  PHE34       0.0560
     14  CG       -28.2750    3.8740   13.6910 C.ar   34  PHE34      -0.0200
     15  CD1      -27.5510    3.6070   12.5380 C.ar   34  PHE34      -0.0042
     16  CD2      -28.3320    5.1870   14.1460 C.ar   34  PHE34      -0.0042
     17  CE1      -26.8760    4.6260   11.8570 C.ar   34  PHE34      -0.0003
     18  CE2      -27.6880    6.2070   13.4700 C.ar   34  PHE34      -0.0003
     19  CZ       -26.9470    5.9290   12.3170 C.ar   34  PHE34      -0.0000
     20  N        -30.8420   -2.9190    8.2500 N.3    38  VAL38      -0.1231
     21  CA       -31.1270   -2.2070    7.0130 C.3    38  VAL38       0.1692
     22  C        -31.8900   -3.1560    6.0820 C.2    38  VAL38       0.2592
     23  O        -31.4690   -4.2920    5.8660 O.2    38  VAL38      -0.2718
     24  CB       -29.8340   -1.7010    6.3300 C.3    38  VAL38       0.0266
     25  CG1      -30.1310   -1.1580    4.9390 C.3    38  VAL38       0.0020
     26  CG2      -29.1440   -0.6380    7.1830 C.3    38  VAL38       0.0020
     27  N        -33.0170   -2.6930    5.5460 N.am   39  SER39      -0.1952
     28  CA       -33.8670   -3.5310    4.7000 C.3    39  SER39       0.1924
     29  C        -33.2790   -3.7590    3.3120 C.2    39  SER39       0.2314
     30  O        -32.9680   -2.8130    2.5990 O.2    39  SER39      -0.2863
     31  CB       -35.2560   -2.9100    4.5570 C.3    39  SER39       0.2116
     32  OG       -36.0000   -3.5930    3.5640 O.3    39  SER39      -0.2180
     33  N        -35.5170   -2.1360    0.6180 N.3    42  GLU42      -0.1231
     34  CA       -35.3120   -0.7180    0.3760 C.3    42  GLU42       0.1699
     35  C        -33.9100   -0.4340   -0.1400 C.2    42  GLU42       0.2592
     36  O        -33.6980    0.5320   -0.8720 O.2    42  GLU42      -0.2718
     37  CB       -35.5610    0.0940    1.6490 C.3    42  GLU42       0.0402
     38  CG       -36.8840   -0.1930    2.3380 C.3    42  GLU42       0.1161
     39  CD       -37.2120    0.8380    3.4030 C.2    42  GLU42       0.3649
     40  OE1      -36.6140    1.9360    3.3750 O.co2  42  GLU42      -0.2457
     41  OE2      -38.0650    0.5510    4.2690 O.co2  42  GLU42      -0.2457
     42  N        -32.9510   -1.2720    0.2570 N.am   43  VAL43      -0.1980
     43  CA       -31.5590   -1.0930   -0.1390 C.3    43  VAL43       0.1595
     44  C        -31.0030   -2.3910   -0.7260 C.2    43  VAL43       0.2287
     45  O        -30.2790   -3.1280   -0.0610 O.2    43  VAL43      -0.2864
     46  CB       -30.6820   -0.6440    1.0520 C.3    43  VAL43       0.0276
     47  CG1      -29.3360   -0.1670    0.5650 C.3    43  VAL43       0.0022
     48  CG2      -31.3730    0.4810    1.8190 C.3    43  VAL43       0.0022
     49  N        -27.2090   -3.3750   -0.4560 N.3    46  TYR46      -0.1241
     50  CA       -26.5240   -3.1450    0.8270 C.3    46  TYR46       0.1605
     51  C        -25.4120   -4.1550    1.0930 C.2    46  TYR46       0.2264
     52  O        -24.2890   -3.7750    1.4640 O.2    46  TYR46      -0.2867
     53  CB       -27.5140   -3.1610    1.9890 C.3    46  TYR46       0.0534
     54  CG       -26.9370   -2.5890    3.2790 C.ar   46  TYR46      -0.0201
     55  CD1      -26.6170   -1.2430    3.3840 C.ar   46  TYR46      -0.0009
     56  CD2      -26.6870   -3.4060    4.3710 C.ar   46  TYR46      -0.0009
     57  CE1      -26.0930   -0.7160    4.5530 C.ar   46  TYR46       0.0417
     58  CE2      -26.1730   -2.8940    5.5420 C.ar   46  TYR46       0.0417
     59  CZ       -25.8680   -1.5450    5.6320 C.ar   46  TYR46       0.1957
     60  OH       -25.3310   -1.0200    6.8020 O.3    46  TYR46      -0.2866
     61  N        -22.5510    2.5000    8.4320 N.3    85  CYS85      -0.1235
     62  CA       -23.3060    3.6600    7.9780 C.3    85  CYS85       0.1677
     63  C        -22.3910    4.6960    7.3260 C.2    85  CYS85       0.2270
     64  O        -22.7320    5.2660    6.2890 O.2    85  CYS85      -0.2867
     65  CB       -24.0770    4.2710    9.1480 C.3    85  CYS85       0.0956
     66  SG       -25.2930    5.5620    8.6370 S.3    85  CYS85      -0.0801
     67  N        -21.2830    3.0720    3.8940 N.3    88  TYR88      -0.1227
     68  CA       -22.3280    2.9140    2.8780 C.3    88  TYR88       0.1736
     69  C        -22.8730    4.2460    2.3510 C.2    88  TYR88       0.2595
     70  O        -23.1980    4.3610    1.1630 O.2    88  TYR88      -0.2718
     71  CB       -23.5090    2.0790    3.3870 C.3    88  TYR88       0.0548
     72  CG       -24.5040    1.8690    2.2580 C.ar   88  TYR88      -0.0200
     73  CD1      -24.2440    0.9480    1.2490 C.ar   88  TYR88      -0.0009
     74  CD2      -25.6510    2.6490    2.1520 C.ar   88  TYR88      -0.0009
     75  CE1      -25.1270    0.7800    0.1820 C.ar   88  TYR88       0.0417
     76  CE2      -26.5250    2.4890    1.0910 C.ar   88  TYR88       0.0417
     77  CZ       -26.2550    1.5520    0.1110 C.ar   88  TYR88       0.1957
     78  OH       -27.1230    1.3900   -0.9610 O.3    88  TYR88      -0.2866
     79  N        -22.9760    5.2420    3.2210 N.am   89  ASN89      -0.1974
     80  CA       -23.5610    6.5230    2.8150 C.3    89  ASN89       0.1688
     81  C        -22.5100    7.6110    2.5410 C.2    89  ASN89       0.2292
     82  O        -21.4230    7.6140    3.1360 O.2    89  ASN89      -0.2864
     83  CB       -24.5600    6.9890    3.8860 C.3    89  ASN89       0.1181
     84  CG       -25.6500    5.9630    4.1620 C.2    89  ASN89       0.2629
     85  OD1      -25.5880    5.2180    5.1460 O.2    89  ASN89      -0.2716
     86  ND2      -26.6530    5.9080    3.2890 N.am   89  ASN89      -0.0877
     87  N        -28.2370   10.2780    6.8210 N.3    95  PHE95      -0.1241
     88  CA       -27.8980    9.0670    7.5640 C.3    95  PHE95       0.1605
     89  C        -26.4090    9.0220    7.9560 C.2    95  PHE95       0.2264
     90  O        -26.0820    8.5290    9.0370 O.2    95  PHE95      -0.2867
     91  CB       -28.3040    7.8140    6.7740 C.3    95  PHE95       0.0534
     92  CG       -29.7730    7.4670    6.8930 C.ar   95  PHE95      -0.0203
     93  CD1      -30.6650    8.3460    7.4910 C.ar   95  PHE95      -0.0042
     94  CD2      -30.2560    6.2530    6.4240 C.ar   95  PHE95      -0.0042
     95  CE1      -32.0100    8.0280    7.6030 C.ar   95  PHE95      -0.0003
     96  CE2      -31.6020    5.9300    6.5360 C.ar   95  PHE95      -0.0003
     97  CZ       -32.4770    6.8170    7.1260 C.ar   95  PHE95      -0.0000
@<TRIPOS>BOND
     1    78    77    1
     2    36    35    2
     3    44    43    1
     4    44    45    2
     5    49    50    1
     6    35    42   am
     7    35    34    1
     8    43    42    1
     9    43    46    1
    10    77    75   ar
    11    77    76   ar
    12    75    73   ar
    13    34    33    1
    14    34    37    1
    15    47    46    1
    16    50    51    1
    17    50    53    1
    18    46    48    1
    19    76    74   ar
    20    51    52    2
    21    70    69    2
    22    73    72   ar
    23    37    38    1
    24    53    54    1
    25    74    72   ar
    26    72    71    1
    27    38    39    1
    28    69    68    1
    29    69    79   am
    30    81    80    1
    31    81    82    2
    32    30    29    2
    33    80    79    1
    34    80    83    1
    35    68    71    1
    36    68    67    1
    37    54    55   ar
    38    54    56   ar
    39    86    84   am
    40    29    28    1
    41    40    39   ar
    42    55    57   ar
    43    39    41   ar
    44    32    31    1
    45    83    84    1
    46    84    85    2
    47    56    58   ar
    48    57    59   ar
    49    31    28    1
    50    28    27    1
    51    25    24    1
    52    58    59   ar
    53    27    22   am
    54    59    60    1
    55    23    22    2
    56    22    21    1
    57    64    63    2
    58    24    21    1
    59    24    26    1
    60    94    96   ar
    61    94    92   ar
    62    96    97   ar
    63    91    92    1
    64    91    88    1
    65    87    88    1
    66    92    93   ar
    67    21    20    1
    68    97    95   ar
    69    63    62    1
    70    93    95   ar
    71    88    89    1
    72    89    90    2
    73    62    61    1
    74    62    65    1
    75    66    65    1
    76     7     5    1
    77     8     6    1
    78     6     5    1
    79     4     3    2
    80     5     2    1
    81    17    19   ar
    82    17    15   ar
    83     2     3    1
    84     2     1    1
    85     3     9   am
    86    19    18   ar
    87    15    14   ar
    88     9    10    1
    89    18    16   ar
    90    10    13    1
    91    10    11    1
    92    14    16   ar
    93    14    13    1
    94    11    12    2
