@<TRIPOS>MOLECULE
tmp/5ponB00.pdb
 91 88 0 0 0
SMALL
GASTEIGER

@<TRIPOS>ATOM
      1  N        -33.4970    5.3550   12.9060 N.3    33  ILE33      -0.1231
      2  CA       -32.6750    5.0460   11.7420 C.3    33  ILE33       0.1692
      3  C        -31.8910    3.7390   11.9460 C.2    33  ILE33       0.2592
      4  O        -31.6540    2.9820   10.9940 O.2    33  ILE33      -0.2718
      5  CB       -31.7150    6.2080   11.4530 C.3    33  ILE33       0.0266
      6  CG1      -32.5100    7.4070   10.9200 C.3    33  ILE33       0.0019
      7  CG2      -30.6690    5.8120   10.4280 C.3    33  ILE33       0.0020
      8  CD1      -31.7590    8.7090   10.9890 C.3    33  ILE33       0.0001
      9  N        -31.5400    3.4680   13.2030 N.am   34  PHE34      -0.1976
     10  CA       -30.6830    2.3340   13.5480 C.3    34  PHE34       0.1639
     11  C        -31.3890    1.2790   14.3840 C.2    34  PHE34       0.2290
     12  O        -30.7550    0.3670   14.9190 O.2    34  PHE34      -0.2864
     13  CB       -29.4510    2.8370   14.3010 C.3    34  PHE34       0.0560
     14  CG       -28.6880    3.8990   13.5510 C.ar   34  PHE34      -0.0200
     15  CD1      -27.9950    3.5810   12.3920 C.ar   34  PHE34      -0.0042
     16  CD2      -28.6810    5.2130   13.9940 C.ar   34  PHE34      -0.0042
     17  CE1      -27.2920    4.5550   11.6920 C.ar   34  PHE34      -0.0003
     18  CE2      -27.9810    6.1970   13.2850 C.ar   34  PHE34      -0.0003
     19  CZ       -27.2900    5.8610   12.1420 C.ar   34  PHE34      -0.0000
     20  N        -31.2120   -2.8000    8.1950 N.3    38  VAL38      -0.1245
     21  CA       -31.5120   -2.1500    6.9300 C.3    38  VAL38       0.1561
     22  C        -32.2640   -3.1580    6.0540 C.2    38  VAL38       0.2260
     23  O        -31.8580   -4.3110    5.9420 O.2    38  VAL38      -0.2867
     24  CB       -30.2270   -1.6540    6.2320 C.3    38  VAL38       0.0252
     25  CG1      -30.5120   -1.2060    4.8030 C.3    38  VAL38       0.0019
     26  CG2      -29.5930   -0.5310    7.0430 C.3    38  VAL38       0.0019
     27  N        -35.9380   -2.3250    0.6040 N.3    42  GLU42      -0.1231
     28  CA       -35.7230   -0.9030    0.3690 C.3    42  GLU42       0.1699
     29  C        -34.3620   -0.6020   -0.2460 C.2    42  GLU42       0.2592
     30  O        -34.2310    0.3290   -1.0400 O.2    42  GLU42      -0.2718
     31  CB       -35.8530   -0.1170    1.6710 C.3    42  GLU42       0.0402
     32  CG       -37.2630    0.2790    2.0360 C.3    42  GLU42       0.1161
     33  CD       -37.3040    1.1020    3.3060 C.2    42  GLU42       0.3649
     34  OE1      -36.2400    1.6240    3.7060 O.co2  42  GLU42      -0.2457
     35  OE2      -38.3930    1.2280    3.9050 O.co2  42  GLU42      -0.2457
     36  N        -33.3490   -1.3770    0.1490 N.am   43  VAL43      -0.1980
     37  CA       -31.9700   -1.1300   -0.2660 C.3    43  VAL43       0.1595
     38  C        -31.3550   -2.4150   -0.8270 C.2    43  VAL43       0.2287
     39  O        -30.5760   -3.0970   -0.1600 O.2    43  VAL43      -0.2864
     40  CB       -31.1000   -0.5990    0.9140 C.3    43  VAL43       0.0276
     41  CG1      -29.7720   -0.0640    0.3960 C.3    43  VAL43       0.0022
     42  CG2      -31.8540    0.4930    1.6880 C.3    43  VAL43       0.0022
     43  N        -27.5070   -3.3530   -0.4630 N.3    46  TYR46      -0.1241
     44  CA       -26.8560   -3.1200    0.8290 C.3    46  TYR46       0.1605
     45  C        -25.7880   -4.1670    1.1340 C.2    46  TYR46       0.2264
     46  O        -24.6630   -3.8210    1.5390 O.2    46  TYR46      -0.2867
     47  CB       -27.8850   -3.0820    1.9600 C.3    46  TYR46       0.0534
     48  CG       -27.3170   -2.5730    3.2720 C.ar   46  TYR46      -0.0201
     49  CD1      -26.9720   -1.2380    3.4240 C.ar   46  TYR46      -0.0009
     50  CD2      -27.1090   -3.4320    4.3490 C.ar   46  TYR46      -0.0009
     51  CE1      -26.4390   -0.7590    4.6170 C.ar   46  TYR46       0.0417
     52  CE2      -26.5840   -2.9610    5.5460 C.ar   46  TYR46       0.0417
     53  CZ       -26.2490   -1.6230    5.6740 C.ar   46  TYR46       0.1957
     54  OH       -25.7120   -1.1490    6.8540 O.3    46  TYR46      -0.2866
     55  N        -22.7690    2.4440    8.4530 N.3    85  CYS85      -0.1235
     56  CA       -23.5490    3.5820    7.9600 C.3    85  CYS85       0.1677
     57  C        -22.6180    4.5860    7.2760 C.2    85  CYS85       0.2270
     58  O        -22.9330    5.1230    6.2110 O.2    85  CYS85      -0.2867
     59  CB       -24.3170    4.2290    9.1100 C.3    85  CYS85       0.0956
     60  SG       -25.4760    5.5440    8.5860 S.3    85  CYS85      -0.0801
     61  N        -21.5400    2.9300    3.9020 N.3    88  TYR88      -0.1227
     62  CA       -22.5450    2.7820    2.8550 C.3    88  TYR88       0.1736
     63  C        -22.9740    4.1240    2.2590 C.2    88  TYR88       0.2595
     64  O        -23.1370    4.2470    1.0340 O.2    88  TYR88      -0.2718
     65  CB       -23.7950    2.0400    3.3700 C.3    88  TYR88       0.0548
     66  CG       -24.7720    1.8580    2.2310 C.ar   88  TYR88      -0.0200
     67  CD1      -24.5890    0.8390    1.2980 C.ar   88  TYR88      -0.0009
     68  CD2      -25.8280    2.7410    2.0510 C.ar   88  TYR88      -0.0009
     69  CE1      -25.4470    0.6940    0.2220 C.ar   88  TYR88       0.0417
     70  CE2      -26.6860    2.6030    0.9710 C.ar   88  TYR88       0.0417
     71  CZ       -26.4910    1.5800    0.0720 C.ar   88  TYR88       0.1957
     72  OH       -27.3590    1.4530   -1.0020 O.3    88  TYR88      -0.2866
     73  N        -23.1460    5.1160    3.1240 N.am   89  ASN89      -0.1974
     74  CA       -23.6930    6.4180    2.7240 C.3    89  ASN89       0.1688
     75  C        -22.6350    7.4790    2.4520 C.2    89  ASN89       0.2292
     76  O        -21.5680    7.4900    3.0690 O.2    89  ASN89      -0.2864
     77  CB       -24.6530    6.9380    3.8060 C.3    89  ASN89       0.1181
     78  CG       -25.8050    5.9880    4.0630 C.2    89  ASN89       0.2629
     79  OD1      -26.8060    6.0040    3.3470 O.2    89  ASN89      -0.2716
     80  ND2      -25.6710    5.1460    5.0890 N.am   89  ASN89      -0.0877
     81  N        -28.3640   10.2460    6.7460 N.3    95  PHE95      -0.1241
     82  CA       -27.9890    9.0150    7.4550 C.3    95  PHE95       0.1605
     83  C        -26.5510    9.0510    7.9410 C.2    95  PHE95       0.2264
     84  O        -26.2800    8.6690    9.0830 O.2    95  PHE95      -0.2867
     85  CB       -28.2220    7.7920    6.5710 C.3    95  PHE95       0.0534
     86  CG       -29.6160    7.7130    6.0540 C.ar   95  PHE95      -0.0203
     87  CD1      -30.6470    7.4290    6.9200 C.ar   95  PHE95      -0.0042
     88  CD2      -29.8980    7.9700    4.7220 C.ar   95  PHE95      -0.0042
     89  CE1      -31.9550    7.3770    6.4650 C.ar   95  PHE95      -0.0003
     90  CE2      -31.2000    7.9140    4.2590 C.ar   95  PHE95      -0.0003
     91  CZ       -32.2240    7.6210    5.1400 C.ar   95  PHE95      -0.0000
@<TRIPOS>BOND
     1    30    29    2
     2    72    71    1
     3    38    37    1
     4    38    39    2
     5    43    44    1
     6    37    36    1
     7    37    40    1
     8    29    36   am
     9    29    28    1
    10    71    69   ar
    11    71    70   ar
    12    69    67   ar
    13    28    27    1
    14    28    31    1
    15    41    40    1
    16    44    45    1
    17    44    47    1
    18    40    42    1
    19    70    68   ar
    20    64    63    2
    21    45    46    2
    22    67    66   ar
    23    31    32    1
    24    47    48    1
    25    32    33    1
    26    68    66   ar
    27    66    65    1
    28    63    62    1
    29    63    73   am
    30    75    74    1
    31    75    76    2
    32    74    73    1
    33    74    77    1
    34    62    65    1
    35    62    61    1
    36    48    49   ar
    37    48    50   ar
    38    33    34   ar
    39    33    35   ar
    40    79    78    2
    41    49    51   ar
    42    77    78    1
    43    78    80   am
    44    90    88   ar
    45    90    91   ar
    46    50    52   ar
    47    51    53   ar
    48    88    86   ar
    49    25    24    1
    50    91    89   ar
    51    52    53   ar
    52    53    54    1
    53    23    22    2
    54    86    85    1
    55    86    87   ar
    56    22    21    1
    57    58    57    2
    58    24    21    1
    59    24    26    1
    60    89    87   ar
    61    85    82    1
    62    81    82    1
    63    21    20    1
    64    57    56    1
    65    82    83    1
    66    83    84    2
    67    56    55    1
    68    56    59    1
    69    60    59    1
    70     7     5    1
    71     6     8    1
    72     6     5    1
    73     4     3    2
    74     5     2    1
    75    17    19   ar
    76    17    15   ar
    77     2     3    1
    78     2     1    1
    79     3     9   am
    80    19    18   ar
    81    15    14   ar
    82     9    10    1
    83    18    16   ar
    84    10    13    1
    85    10    11    1
    86    14    16   ar
    87    14    13    1
    88    11    12    2
