@<TRIPOS>MOLECULE
tmp/5pooA00.pdb
 91 88 0 0 0
SMALL
GASTEIGER

@<TRIPOS>ATOM
      1  N         -2.2150    7.5350   -3.5040 N.3    33  ILE33      -0.1231
      2  CA        -3.3270    8.1500   -2.7980 C.3    33  ILE33       0.1692
      3  C         -3.1320    8.0270   -1.2790 C.2    33  ILE33       0.2592
      4  O         -3.5580    8.9190   -0.5190 O.2    33  ILE33      -0.2718
      5  CB        -4.6340    7.5210   -3.3010 C.3    33  ILE33       0.0266
      6  CG1       -4.8730    7.9950   -4.7480 C.3    33  ILE33       0.0019
      7  CG2       -5.8240    7.8400   -2.3580 C.3    33  ILE33       0.0020
      8  CD1       -5.9350    7.1970   -5.5460 C.3    33  ILE33       0.0001
      9  N         -2.4340    6.9680   -0.8570 N.am   34  PHE34      -0.1976
     10  CA        -2.3140    6.6510    0.5750 C.3    34  PHE34       0.1639
     11  C         -0.8900    6.8470    1.1120 C.2    34  PHE34       0.2290
     12  O         -0.5400    6.4820    2.2370 O.2    34  PHE34      -0.2864
     13  CB        -2.8190    5.2140    0.8090 C.3    34  PHE34       0.0560
     14  CG        -4.1980    4.9830    0.2610 C.ar   34  PHE34      -0.0200
     15  CD1       -5.2840    5.6280    0.8260 C.ar   34  PHE34      -0.0042
     16  CD2       -4.4090    4.1800   -0.8490 C.ar   34  PHE34      -0.0042
     17  CE1       -6.5770    5.4570    0.3260 C.ar   34  PHE34      -0.0003
     18  CE2       -5.6860    4.0080   -1.3660 C.ar   34  PHE34      -0.0003
     19  CZ        -6.7740    4.6330   -0.7830 C.ar   34  PHE34      -0.0000
     20  N         -3.6410   12.6630    4.9690 N.3    38  VAL38      -0.1245
     21  CA        -4.6190   13.5900    4.3700 C.3    38  VAL38       0.1561
     22  C         -4.3280   14.9750    4.9180 C.2    38  VAL38       0.2260
     23  O         -4.1970   15.1600    6.1310 O.2    38  VAL38      -0.2867
     24  CB        -6.0860   13.2320    4.6830 C.3    38  VAL38       0.0252
     25  CG1       -7.0110   14.3400    4.1910 C.3    38  VAL38       0.0019
     26  CG2       -6.4810   11.8950    4.0440 C.3    38  VAL38       0.0019
     27  N         -5.7110   21.1160    3.0240 N.3    42  GLU42      -0.1231
     28  CA        -6.6250   20.8270    1.9100 C.3    42  GLU42       0.1699
     29  C         -7.9820   20.2650    2.3390 C.2    42  GLU42       0.2592
     30  O         -9.0070   20.5110    1.7030 O.2    42  GLU42      -0.2718
     31  CB        -5.9550   19.8480    0.9480 C.3    42  GLU42       0.0402
     32  CG        -4.5750   20.2890    0.4650 C.3    42  GLU42       0.1161
     33  CD        -3.8650   19.2240   -0.3600 C.2    42  GLU42       0.3649
     34  OE1       -4.2420   18.0330   -0.2810 O.co2  42  GLU42      -0.2457
     35  OE2       -2.9000   19.5640   -1.0680 O.co2  42  GLU42      -0.2457
     36  N         -8.0000   19.4840    3.4090 N.am   43  VAL43      -0.1980
     37  CA        -9.2520   18.9490    3.8900 C.3    43  VAL43       0.1595
     38  C         -9.4380   19.3690    5.3430 C.2    43  VAL43       0.2287
     39  O         -9.2690   18.5700    6.2600 O.2    43  VAL43      -0.2864
     40  CB        -9.2960   17.4070    3.7580 C.3    43  VAL43       0.0276
     41  CG1      -10.7080   16.9260    3.9980 C.3    43  VAL43       0.0022
     42  CG2       -8.8350   16.9810    2.3710 C.3    43  VAL43       0.0022
     43  N        -11.3300   17.1550    8.0330 N.3    46  TYR46      -0.1241
     44  CA       -11.0860   15.7060    7.9860 C.3    46  TYR46       0.1605
     45  C        -11.1840   15.0440    9.3660 C.2    46  TYR46       0.2264
     46  O        -11.7140   13.9430    9.4840 O.2    46  TYR46      -0.2867
     47  CB        -9.7290   15.4150    7.3450 C.3    46  TYR46       0.0534
     48  CG        -9.4760   13.9460    7.0960 C.ar   46  TYR46      -0.0201
     49  CD1      -10.1560   13.2830    6.0960 C.ar   46  TYR46      -0.0009
     50  CD2       -8.5150   13.2470    7.8310 C.ar   46  TYR46      -0.0009
     51  CE1       -9.9260   11.9130    5.8540 C.ar   46  TYR46       0.0417
     52  CE2       -8.2810   11.8890    7.5970 C.ar   46  TYR46       0.0417
     53  CZ        -8.9690   11.2420    6.5980 C.ar   46  TYR46       0.1957
     54  OH        -8.7480    9.8950    6.3670 O.3    46  TYR46      -0.2866
     55  N        -10.7030    5.7110    4.3130 N.3    85  CYS85      -0.1235
     56  CA       -10.9660    6.1560    2.9520 C.3    85  CYS85       0.1677
     57  C        -12.3530    5.7610    2.4850 C.2    85  CYS85       0.2270
     58  O        -13.0470    6.5360    1.7850 O.2    85  CYS85      -0.2867
     59  CB        -9.9100    5.5510    2.0200 C.3    85  CYS85       0.0956
     60  SG       -10.0290    6.1710    0.3370 S.3    85  CYS85      -0.0801
     61  N        -14.7590    8.2640    4.3270 N.3    88  TYR88      -0.1227
     62  CA       -14.7090    9.6880    3.9750 C.3    88  TYR88       0.1736
     63  C        -15.1830    9.9170    2.5440 C.2    88  TYR88       0.2595
     64  O        -15.8500   10.9130    2.2460 O.2    88  TYR88      -0.2718
     65  CB       -13.3110   10.2650    4.1850 C.3    88  TYR88       0.0548
     66  CG       -13.3270   11.7620    4.0300 C.ar   88  TYR88      -0.0200
     67  CD1      -13.7840   12.5730    5.0620 C.ar   88  TYR88      -0.0009
     68  CD2      -12.9560   12.3650    2.8380 C.ar   88  TYR88      -0.0009
     69  CE1      -13.8430   13.9530    4.9230 C.ar   88  TYR88       0.0417
     70  CE2      -13.0070   13.7560    2.7070 C.ar   88  TYR88       0.0417
     71  CZ       -13.4610   14.5250    3.7390 C.ar   88  TYR88       0.1957
     72  OH       -13.5180   15.9050    3.6010 O.3    88  TYR88      -0.2866
     73  N        -14.8520    8.9930    1.6490 N.am   89  ASN89      -0.1974
     74  CA       -15.1200    9.2150    0.2330 C.3    89  ASN89       0.1688
     75  C        -16.2540    8.3350   -0.2040 C.2    89  ASN89       0.2292
     76  O        -16.3290    7.1740    0.2390 O.2    89  ASN89      -0.2864
     77  CB       -13.8600    8.9230   -0.6000 C.3    89  ASN89       0.1181
     78  CG       -12.6650    9.6570   -0.1010 C.2    89  ASN89       0.2629
     79  OD1      -11.7990    9.0920    0.5880 O.2    89  ASN89      -0.2716
     80  ND2      -12.5800   10.9210   -0.4440 N.am   89  ASN89      -0.0877
     81  N        -10.9530    7.7210   -5.0760 N.3    95  PHE95      -0.1241
     82  CA       -10.3780    7.4280   -3.7720 C.3    95  PHE95       0.1605
     83  C        -10.9610    6.1510   -3.1870 C.2    95  PHE95       0.2264
     84  O        -10.2370    5.2630   -2.7740 O.2    95  PHE95      -0.2867
     85  CB       -10.6120    8.6100   -2.8260 C.3    95  PHE95       0.0534
     86  CG       -10.1820    9.9130   -3.3850 C.ar   95  PHE95      -0.0203
     87  CD1       -8.8470   10.1790   -3.5210 C.ar   95  PHE95      -0.0042
     88  CD2      -11.0930   10.8750   -3.7720 C.ar   95  PHE95      -0.0042
     89  CE1       -8.4120   11.3980   -4.0490 C.ar   95  PHE95      -0.0003
     90  CE2      -10.6600   12.1060   -4.3010 C.ar   95  PHE95      -0.0003
     91  CZ        -9.3160   12.3390   -4.4480 C.ar   95  PHE95      -0.0000
@<TRIPOS>BOND
     1     8     6    1
     2    81    82    1
     3     6     5    1
     4    91    90   ar
     5    91    89   ar
     6    90    88   ar
     7    89    87   ar
     8    88    86   ar
     9    82    83    1
    10    82    85    1
    11    87    86   ar
    12     1     2    1
    13    86    85    1
    14     5     2    1
    15     5     7    1
    16    83    84    2
    17     2     3    1
    18    18    16   ar
    19    18    19   ar
    20     3     9   am
    21     3     4    2
    22    35    33   ar
    23     9    10    1
    24    16    14   ar
    25    19    17   ar
    26    77    78    1
    27    77    74    1
    28    80    78   am
    29    33    34   ar
    30    33    32    1
    31    75    74    1
    32    75    76    2
    33    78    79    2
    34    74    73    1
    35    14    13    1
    36    14    15   ar
    37    17    15   ar
    38    60    59    1
    39    32    31    1
    40    10    13    1
    41    10    11    1
    42    31    28    1
    43    11    12    2
    44    73    63   am
    45    30    29    2
    46    58    57    2
    47    28    29    1
    48    28    27    1
    49    59    56    1
    50    64    63    2
    51    29    36   am
    52    42    40    1
    53    57    56    1
    54    63    62    1
    55    70    68   ar
    56    70    71   ar
    57    68    66   ar
    58    56    55    1
    59    36    37    1
    60    72    71    1
    61    71    69   ar
    62    40    37    1
    63    40    41    1
    64    37    38    1
    65    62    65    1
    66    62    61    1
    67    66    65    1
    68    66    67   ar
    69    26    24    1
    70    25    24    1
    71    21    24    1
    72    21    22    1
    73    21    20    1
    74    22    23    2
    75    69    67   ar
    76    38    39    2
    77    51    49   ar
    78    51    53   ar
    79    49    48   ar
    80    54    53    1
    81    53    52   ar
    82    48    47    1
    83    48    50   ar
    84    47    44    1
    85    52    50   ar
    86    44    43    1
    87    44    45    1
    88    45    46    2
