@<TRIPOS>MOLECULE
tmp/5popA00.pdb
 106 102 0 0 0
SMALL
GASTEIGER

@<TRIPOS>ATOM
      1  N         -2.1310    7.6930   -3.6160 N.3    33  ILE33      -0.1231
      2  CA        -3.2130    8.3120   -2.8710 C.3    33  ILE33       0.1692
      3  C         -2.9980    8.1820   -1.3490 C.2    33  ILE33       0.2592
      4  O         -3.3830    9.0560   -0.5640 O.2    33  ILE33      -0.2718
      5  CB        -4.5360    7.6840   -3.3270 C.3    33  ILE33       0.0266
      6  CG1       -4.7620    8.0560   -4.8030 C.3    33  ILE33       0.0019
      7  CG2       -5.7000    8.1140   -2.4400 C.3    33  ILE33       0.0020
      8  CD1       -5.7990    7.2380   -5.5260 C.3    33  ILE33       0.0001
      9  N         -2.3190    7.1150   -0.9450 N.am   34  PHE34      -0.1976
     10  CA        -2.1960    6.7970    0.4770 C.3    34  PHE34       0.1639
     11  C         -0.7870    7.0060    1.0510 C.2    34  PHE34       0.2290
     12  O         -0.5090    6.6330    2.1860 O.2    34  PHE34      -0.2864
     13  CB        -2.6800    5.3630    0.6910 C.3    34  PHE34       0.0560
     14  CG        -4.0550    5.1230    0.1430 C.ar   34  PHE34      -0.0200
     15  CD1       -5.1450    5.7030    0.7540 C.ar   34  PHE34      -0.0042
     16  CD2       -4.2600    4.3520   -0.9920 C.ar   34  PHE34      -0.0042
     17  CE1       -6.4120    5.5240    0.2640 C.ar   34  PHE34      -0.0003
     18  CE2       -5.5280    4.1560   -1.4870 C.ar   34  PHE34      -0.0003
     19  CZ        -6.6110    4.7380   -0.8640 C.ar   34  PHE34      -0.0000
     20  N          0.8190    9.7970    2.0120 N.3    36  GLN36      -0.1245
     21  CA         1.0100   10.8420    3.0150 C.3    36  GLN36       0.1566
     22  C         -0.2730   11.1030    3.8000 C.2    36  GLN36       0.2260
     23  O         -1.3570   10.7870    3.3120 O.2    36  GLN36      -0.2867
     24  CB         1.4640   12.1490    2.3450 C.3    36  GLN36       0.0367
     25  CG         2.7890   12.0610    1.6150 C.3    36  GLN36       0.0905
     26  CD         3.9640   11.8270    2.5460 C.2    36  GLN36       0.2608
     27  OE1        4.0150   12.3490    3.6590 O.2    36  GLN36      -0.2717
     28  NE2        4.9180   11.0270    2.0890 N.am   36  GLN36      -0.0878
     29  N         -3.5840   12.8130    5.0380 N.3    38  VAL38      -0.1231
     30  CA        -4.5410   13.7100    4.3910 C.3    38  VAL38       0.1692
     31  C         -4.3180   15.1110    4.9310 C.2    38  VAL38       0.2592
     32  O         -4.3100   15.3220    6.1440 O.2    38  VAL38      -0.2718
     33  CB        -5.9980   13.2930    4.6240 C.3    38  VAL38       0.0266
     34  CG1       -6.9370   14.3910    4.1510 C.3    38  VAL38       0.0020
     35  CG2       -6.3000   11.9810    3.9040 C.3    38  VAL38       0.0020
     36  N         -4.1090   16.0640    4.0280 N.am   39  SER39      -0.1952
     37  CA        -3.7320   17.4090    4.4300 C.3    39  SER39       0.1924
     38  C         -4.8840   18.2060    5.0380 C.2    39  SER39       0.2314
     39  O         -5.9490   18.3300    4.4410 O.2    39  SER39      -0.2863
     40  CB        -3.1700   18.1800    3.2400 C.3    39  SER39       0.2116
     41  OG        -2.9080   19.5150    3.6210 O.3    39  SER39      -0.2180
     42  N         -5.6190   20.9000    2.9840 N.3    42  GLU42      -0.1231
     43  CA        -6.4530   20.5500    1.8450 C.3    42  GLU42       0.1699
     44  C         -7.8190   20.0380    2.2920 C.2    42  GLU42       0.2592
     45  O         -8.8130   20.2150    1.5820 O.2    42  GLU42      -0.2718
     46  CB        -5.7460   19.5300    0.9560 C.3    42  GLU42       0.0402
     47  CG        -4.5800   20.1400    0.1830 C.3    42  GLU42       0.1161
     48  CD        -3.9080   19.1620   -0.7540 C.2    42  GLU42       0.3649
     49  OE1       -4.4020   18.0240   -0.8820 O.co2  42  GLU42      -0.2457
     50  OE2       -2.8870   19.5350   -1.3690 O.co2  42  GLU42      -0.2457
     51  N         -7.8770   19.4160    3.4680 N.am   43  VAL43      -0.1980
     52  CA        -9.1680   19.0130    4.0110 C.3    43  VAL43       0.1595
     53  C         -9.2970   19.4640    5.4700 C.2    43  VAL43       0.2287
     54  O         -9.0390   18.6940    6.3960 O.2    43  VAL43      -0.2864
     55  CB        -9.3720   17.4860    3.9360 C.3    43  VAL43       0.0276
     56  CG1      -10.8030   17.1440    4.3370 C.3    43  VAL43       0.0022
     57  CG2       -9.0740   16.9690    2.5330 C.3    43  VAL43       0.0022
     58  N        -11.1980   17.2570    8.0950 N.3    46  TYR46      -0.1241
     59  CA       -10.9900   15.8070    7.9920 C.3    46  TYR46       0.1605
     60  C        -11.1380   15.1010    9.3500 C.2    46  TYR46       0.2264
     61  O        -11.7590   14.0320    9.4420 O.2    46  TYR46      -0.2867
     62  CB        -9.6160   15.5000    7.3930 C.3    46  TYR46       0.0534
     63  CG        -9.3840   14.0340    7.0970 C.ar   46  TYR46      -0.0201
     64  CD1      -10.1080   13.3820    6.1110 C.ar   46  TYR46      -0.0009
     65  CD2       -8.4120   13.3190    7.7880 C.ar   46  TYR46      -0.0009
     66  CE1       -9.8840   12.0300    5.8320 C.ar   46  TYR46       0.0417
     67  CE2       -8.1780   11.9750    7.5180 C.ar   46  TYR46       0.0417
     68  CZ        -8.9110   11.3430    6.5430 C.ar   46  TYR46       0.1957
     69  OH        -8.6780   10.0100    6.2800 O.3    46  TYR46      -0.2866
     70  N        -10.6350    5.7750    4.2350 N.3    85  CYS85      -0.1235
     71  CA       -10.8860    6.2240    2.8770 C.3    85  CYS85       0.1677
     72  C        -12.2800    5.8400    2.3820 C.2    85  CYS85       0.2270
     73  O        -12.9410    6.6310    1.7070 O.2    85  CYS85      -0.2867
     74  CB        -9.8120    5.6550    1.9510 C.3    85  CYS85       0.0956
     75  SG        -9.9160    6.2870    0.2650 S.3    85  CYS85      -0.0801
     76  N        -14.7850    8.3280    4.3130 N.3    88  TYR88      -0.1227
     77  CA       -14.7160    9.7410    3.9510 C.3    88  TYR88       0.1736
     78  C        -15.1520    9.9790    2.5130 C.2    88  TYR88       0.2595
     79  O        -15.8030   10.9740    2.2070 O.2    88  TYR88      -0.2718
     80  CB       -13.3070   10.2930    4.1640 C.3    88  TYR88       0.0548
     81  CG       -13.2730   11.7820    3.9470 C.ar   88  TYR88      -0.0200
     82  CD1      -13.6840   12.6580    4.9440 C.ar   88  TYR88      -0.0009
     83  CD2      -12.8960   12.3140    2.7210 C.ar   88  TYR88      -0.0009
     84  CE1      -13.6880   14.0250    4.7360 C.ar   88  TYR88       0.0417
     85  CE2      -12.8960   13.6850    2.5030 C.ar   88  TYR88       0.0417
     86  CZ       -13.2930   14.5290    3.5100 C.ar   88  TYR88       0.1957
     87  OH       -13.2980   15.8840    3.2750 O.3    88  TYR88      -0.2866
     88  N        -14.8190    9.0480    1.6300 N.am   89  ASN89      -0.1974
     89  CA       -15.0730    9.2540    0.2140 C.3    89  ASN89       0.1688
     90  C        -16.2320    8.4040   -0.2590 C.2    89  ASN89       0.2292
     91  O        -16.4000    7.2750    0.1970 O.2    89  ASN89      -0.2864
     92  CB       -13.8010    8.9430   -0.5930 C.3    89  ASN89       0.1181
     93  CG       -12.6370    9.8140   -0.1960 C.2    89  ASN89       0.2629
     94  OD1      -12.5900   10.9930   -0.5550 O.2    89  ASN89      -0.2716
     95  ND2      -11.6790    9.2480    0.5460 N.am   89  ASN89      -0.0877
     96  N        -10.9170    7.8870   -5.1940 N.3    95  PHE95      -0.1241
     97  CA       -10.3460    7.5770   -3.8830 C.3    95  PHE95       0.1605
     98  C        -10.8860    6.2870   -3.2920 C.2    95  PHE95       0.2264
     99  O        -10.1020    5.4130   -2.8790 O.2    95  PHE95      -0.2867
    100  CB       -10.6010    8.7350   -2.9270 C.3    95  PHE95       0.0534
    101  CG       -10.1380   10.0460   -3.4590 C.ar   95  PHE95      -0.0203
    102  CD1       -8.7930   10.3030   -3.5830 C.ar   95  PHE95      -0.0042
    103  CD2      -11.0430   11.0170   -3.8660 C.ar   95  PHE95      -0.0042
    104  CE1       -8.3440   11.5160   -4.0820 C.ar   95  PHE95      -0.0003
    105  CE2      -10.5970   12.2340   -4.3720 C.ar   95  PHE95      -0.0003
    106  CZ        -9.2370   12.4740   -4.4850 C.ar   95  PHE95      -0.0000
@<TRIPOS>BOND
     1     8     6    1
     2    96    97    1
     3     6     5    1
     4   106   105   ar
     5   106   104   ar
     6   105   103   ar
     7   104   102   ar
     8    97    98    1
     9    97   100    1
    10   103   101   ar
    11     1     2    1
    12   102   101   ar
    13   101   100    1
    14     5     2    1
    15     5     7    1
    16    98    99    2
    17     2     3    1
    18    18    16   ar
    19    18    19   ar
    20    50    48   ar
    21     3     9   am
    22     3     4    2
    23    16    14   ar
    24     9    10    1
    25    49    48   ar
    26    19    17   ar
    27    48    47    1
    28    92    93    1
    29    92    89    1
    30    94    93    2
    31    90    91    2
    32    90    89    1
    33    93    95   am
    34    14    13    1
    35    14    15   ar
    36    47    46    1
    37    89    88    1
    38    17    15   ar
    39    75    74    1
    40    10    13    1
    41    10    11    1
    42    46    43    1
    43    11    12    2
    44    45    44    2
    45    25    24    1
    46    25    26    1
    47    88    78   am
    48    73    72    2
    49    43    44    1
    50    43    42    1
    51    74    71    1
    52    20    21    1
    53    28    26   am
    54    79    78    2
    55    44    51   am
    56    24    21    1
    57    72    71    1
    58    85    83   ar
    59    85    86   ar
    60    78    77    1
    61    57    55    1
    62    26    27    2
    63    83    81   ar
    64    71    70    1
    65    21    22    1
    66    40    41    1
    67    40    37    1
    68    87    86    1
    69    23    22    2
    70    51    52    1
    71    86    84   ar
    72    35    33    1
    73    55    52    1
    74    55    56    1
    75    81    80    1
    76    81    82   ar
    77    77    80    1
    78    77    76    1
    79    52    53    1
    80    36    37    1
    81    36    31   am
    82    34    33    1
    83    30    33    1
    84    30    31    1
    85    30    29    1
    86    37    38    1
    87    39    38    2
    88    84    82   ar
    89    31    32    2
    90    53    54    2
    91    66    64   ar
    92    66    68   ar
    93    64    63   ar
    94    69    68    1
    95    68    67   ar
    96    63    62    1
    97    63    65   ar
    98    62    59    1
    99    67    65   ar
   100    59    58    1
   101    59    60    1
   102    60    61    2
