@<TRIPOS>MOLECULE
tmp/5poqB00.pdb
 91 88 0 0 0
SMALL
GASTEIGER

@<TRIPOS>ATOM
      1  N        -33.5680    5.2330   12.9100 N.3    33  ILE33      -0.1231
      2  CA       -32.7520    4.9630   11.7220 C.3    33  ILE33       0.1692
      3  C        -31.9330    3.6580   11.9210 C.2    33  ILE33       0.2592
      4  O        -31.7460    2.8720   10.9970 O.2    33  ILE33      -0.2718
      5  CB       -31.8180    6.1650   11.4150 C.3    33  ILE33       0.0266
      6  CG1      -32.6280    7.3510   10.8610 C.3    33  ILE33       0.0019
      7  CG2      -30.7540    5.8010   10.4030 C.3    33  ILE33       0.0020
      8  CD1      -32.0030    8.7370   11.0200 C.3    33  ILE33       0.0001
      9  N        -31.5070    3.4150   13.1530 N.am   34  PHE34      -0.1976
     10  CA       -30.5890    2.3110   13.4770 C.3    34  PHE34       0.1639
     11  C        -31.2200    1.1660   14.2670 C.2    34  PHE34       0.2290
     12  O        -30.5220    0.2580   14.7380 O.2    34  PHE34      -0.2864
     13  CB       -29.4130    2.8770   14.2490 C.3    34  PHE34       0.0560
     14  CG       -28.6770    3.9410   13.4850 C.ar   34  PHE34      -0.0200
     15  CD1      -28.0210    3.6280   12.2990 C.ar   34  PHE34      -0.0042
     16  CD2      -28.6850    5.2540   13.9160 C.ar   34  PHE34      -0.0042
     17  CE1      -27.3490    4.6060   11.5680 C.ar   34  PHE34      -0.0003
     18  CE2      -28.0240    6.2410   13.1850 C.ar   34  PHE34      -0.0003
     19  CZ       -27.3480    5.9150   12.0070 C.ar   34  PHE34      -0.0000
     20  N        -31.0370   -2.9360    8.1100 N.3    38  VAL38      -0.1245
     21  CA       -31.3200   -2.2390    6.8660 C.3    38  VAL38       0.1561
     22  C        -32.1210   -3.2050    5.9780 C.2    38  VAL38       0.2260
     23  O        -31.7390   -4.3710    5.8400 O.2    38  VAL38      -0.2867
     24  CB       -30.0240   -1.7830    6.1570 C.3    38  VAL38       0.0252
     25  CG1      -30.3300   -1.2980    4.7560 C.3    38  VAL38       0.0019
     26  CG2      -29.2870   -0.7090    6.9840 C.3    38  VAL38       0.0019
     27  N        -35.7970   -2.4780    0.4680 N.3    42  GLU42      -0.1231
     28  CA       -35.6530   -1.0430    0.2790 C.3    42  GLU42       0.1699
     29  C        -34.2560   -0.7050   -0.2630 C.2    42  GLU42       0.2592
     30  O        -34.1120    0.1520   -1.1420 O.2    42  GLU42      -0.2718
     31  CB       -35.9480   -0.3130    1.5890 C.3    42  GLU42       0.0402
     32  CG       -37.3770   -0.5660    2.0690 C.3    42  GLU42       0.1161
     33  CD       -38.2740    0.5060    1.4850 C.2    42  GLU42       0.3649
     34  OE1      -37.8260    1.4140    0.7420 O.co2  42  GLU42      -0.2457
     35  OE2      -39.4840    0.4320    1.7230 O.co2  42  GLU42      -0.2457
     36  N        -33.2330   -1.4060    0.2260 N.am   43  VAL43      -0.1980
     37  CA       -31.8610   -1.1730   -0.2380 C.3    43  VAL43       0.1595
     38  C        -31.2340   -2.4470   -0.8000 C.2    43  VAL43       0.2287
     39  O        -30.3960   -3.0950   -0.1620 O.2    43  VAL43      -0.2864
     40  CB       -30.9730   -0.6170    0.8810 C.3    43  VAL43       0.0276
     41  CG1      -29.6350   -0.1830    0.3060 C.3    43  VAL43       0.0022
     42  CG2      -31.6640    0.5760    1.5150 C.3    43  VAL43       0.0022
     43  N        -27.3050   -3.3750   -0.5840 N.3    46  TYR46      -0.1241
     44  CA       -26.6170   -3.1030    0.7010 C.3    46  TYR46       0.1605
     45  C        -25.5160   -4.1070    1.0320 C.2    46  TYR46       0.2264
     46  O        -24.4020   -3.7160    1.4250 O.2    46  TYR46      -0.2867
     47  CB       -27.6450   -3.0440    1.8570 C.3    46  TYR46       0.0534
     48  CG       -27.0990   -2.5660    3.2210 C.ar   46  TYR46      -0.0201
     49  CD1      -26.6470   -1.2720    3.3800 C.ar   46  TYR46      -0.0009
     50  CD2      -27.0810   -3.4150    4.3530 C.ar   46  TYR46      -0.0009
     51  CE1      -26.1560   -0.8010    4.5990 C.ar   46  TYR46       0.0417
     52  CE2      -26.5980   -2.9490    5.6240 C.ar   46  TYR46       0.0417
     53  CZ       -26.1270   -1.6220    5.7200 C.ar   46  TYR46       0.1957
     54  OH       -25.6180   -1.0730    6.9010 O.3    46  TYR46      -0.2866
     55  N        -22.7750    2.5540    8.4480 N.3    85  CYS85      -0.1235
     56  CA       -23.5860    3.6600    7.9150 C.3    85  CYS85       0.1677
     57  C        -22.7290    4.7030    7.1870 C.2    85  CYS85       0.2270
     58  O        -23.0900    5.2030    6.1120 O.2    85  CYS85      -0.2867
     59  CB       -24.3540    4.3300    9.0350 C.3    85  CYS85       0.0956
     60  SG       -25.4280    5.7080    8.5240 S.3    85  CYS85      -0.0801
     61  N        -21.5750    3.1190    3.8740 N.3    88  TYR88      -0.1227
     62  CA       -22.5830    2.9600    2.8070 C.3    88  TYR88       0.1736
     63  C        -23.0410    4.2910    2.2020 C.2    88  TYR88       0.2595
     64  O        -23.2570    4.3940    0.9860 O.2    88  TYR88      -0.2718
     65  CB       -23.8140    2.2020    3.2980 C.3    88  TYR88       0.0548
     66  CG       -24.7790    2.0110    2.1550 C.ar   88  TYR88      -0.0200
     67  CD1      -24.5530    1.0230    1.2040 C.ar   88  TYR88      -0.0009
     68  CD2      -25.8740    2.8580    1.9780 C.ar   88  TYR88      -0.0009
     69  CE1      -25.3960    0.8530    0.1430 C.ar   88  TYR88       0.0417
     70  CE2      -26.7350    2.6940    0.8920 C.ar   88  TYR88       0.0417
     71  CZ       -26.4750    1.6930   -0.0260 C.ar   88  TYR88       0.1957
     72  OH       -27.2800    1.4990   -1.1140 O.3    88  TYR88      -0.2866
     73  N        -23.2320    5.2800    3.0640 N.am   89  ASN89      -0.1974
     74  CA       -23.7140    6.5990    2.6530 C.3    89  ASN89       0.1688
     75  C        -22.5900    7.6270    2.4040 C.2    89  ASN89       0.2292
     76  O        -21.5230    7.5980    3.0320 O.2    89  ASN89      -0.2864
     77  CB       -24.6840    7.1560    3.7050 C.3    89  ASN89       0.1181
     78  CG       -25.8150    6.1980    4.0260 C.2    89  ASN89       0.2629
     79  OD1      -25.7580    5.4690    5.0150 O.2    89  ASN89      -0.2716
     80  ND2      -26.8440    6.1840    3.1860 N.am   89  ASN89      -0.0877
     81  N        -28.3100   10.4730    6.6230 N.3    95  PHE95      -0.1241
     82  CA       -27.9610    9.2350    7.2970 C.3    95  PHE95       0.1605
     83  C        -26.5080    9.2670    7.8140 C.2    95  PHE95       0.2264
     84  O        -26.2470    8.9270    8.9630 O.2    95  PHE95      -0.2867
     85  CB       -28.1860    8.0480    6.3570 C.3    95  PHE95       0.0534
     86  CG       -29.5970    7.9470    5.8620 C.ar   95  PHE95      -0.0203
     87  CD1      -30.6020    7.5390    6.7130 C.ar   95  PHE95      -0.0042
     88  CD2      -29.9230    8.3010    4.5560 C.ar   95  PHE95      -0.0042
     89  CE1      -31.9270    7.4640    6.2740 C.ar   95  PHE95      -0.0003
     90  CE2      -31.2310    8.2130    4.1090 C.ar   95  PHE95      -0.0003
     91  CZ       -32.2370    7.7990    4.9800 C.ar   95  PHE95      -0.0000
@<TRIPOS>BOND
     1    30    29    2
     2    72    71    1
     3    38    37    1
     4    38    39    2
     5    43    44    1
     6    29    36   am
     7    29    28    1
     8    37    36    1
     9    37    40    1
    10    71    69   ar
    11    71    70   ar
    12    69    67   ar
    13    28    27    1
    14    28    31    1
    15    41    40    1
    16    44    45    1
    17    44    47    1
    18    34    33   ar
    19    40    42    1
    20    70    68   ar
    21    64    63    2
    22    45    46    2
    23    67    66   ar
    24    33    35   ar
    25    33    32    1
    26    31    32    1
    27    47    48    1
    28    68    66   ar
    29    66    65    1
    30    63    62    1
    31    63    73   am
    32    75    74    1
    33    75    76    2
    34    74    73    1
    35    74    77    1
    36    62    65    1
    37    62    61    1
    38    80    78   am
    39    48    49   ar
    40    48    50   ar
    41    49    51   ar
    42    77    78    1
    43    78    79    2
    44    90    88   ar
    45    90    91   ar
    46    50    52   ar
    47    88    86   ar
    48    51    53   ar
    49    25    24    1
    50    91    89   ar
    51    52    53   ar
    52    53    54    1
    53    23    22    2
    54    86    85    1
    55    86    87   ar
    56    22    21    1
    57    58    57    2
    58    24    21    1
    59    24    26    1
    60    89    87   ar
    61    85    82    1
    62    81    82    1
    63    21    20    1
    64    57    56    1
    65    82    83    1
    66    83    84    2
    67    56    55    1
    68    56    59    1
    69    60    59    1
    70     7     5    1
    71     6     8    1
    72     6     5    1
    73     4     3    2
    74     5     2    1
    75    17    19   ar
    76    17    15   ar
    77     2     3    1
    78     2     1    1
    79     3     9   am
    80    19    18   ar
    81    15    14   ar
    82     9    10    1
    83    18    16   ar
    84    10    13    1
    85    10    11    1
    86    14    16   ar
    87    14    13    1
    88    11    12    2
