@<TRIPOS>MOLECULE
tmp/5porA00.pdb
 106 102 0 0 0
SMALL
GASTEIGER

@<TRIPOS>ATOM
      1  N         -2.1130    7.3840   -3.6540 N.3    33  ILE33      -0.1231
      2  CA        -3.2260    8.0080   -2.9570 C.3    33  ILE33       0.1692
      3  C         -3.0550    7.8840   -1.4370 C.2    33  ILE33       0.2592
      4  O         -3.4900    8.7560   -0.6740 O.2    33  ILE33      -0.2718
      5  CB        -4.5490    7.3860   -3.4360 C.3    33  ILE33       0.0266
      6  CG1       -4.7910    7.8250   -4.8890 C.3    33  ILE33       0.0019
      7  CG2       -5.7040    7.7930   -2.5330 C.3    33  ILE33       0.0020
      8  CD1       -5.8880    7.0650   -5.6180 C.3    33  ILE33       0.0001
      9  N         -2.3630    6.8320   -1.0060 N.am   34  PHE34      -0.1976
     10  CA        -2.2320    6.5530    0.4290 C.3    34  PHE34       0.1639
     11  C         -0.8140    6.7690    0.9760 C.2    34  PHE34       0.2290
     12  O         -0.5040    6.4040    2.1130 O.2    34  PHE34      -0.2864
     13  CB        -2.7060    5.1270    0.6950 C.3    34  PHE34       0.0560
     14  CG        -4.0740    4.8620    0.1610 C.ar   34  PHE34      -0.0200
     15  CD1       -5.1820    5.4300    0.7710 C.ar   34  PHE34      -0.0042
     16  CD2       -4.2560    4.0890   -0.9760 C.ar   34  PHE34      -0.0042
     17  CE1       -6.4510    5.2120    0.2810 C.ar   34  PHE34      -0.0003
     18  CE2       -5.5250    3.8590   -1.4810 C.ar   34  PHE34      -0.0003
     19  CZ        -6.6290    4.4190   -0.8550 C.ar   34  PHE34      -0.0000
     20  N          0.8240    9.5580    1.8130 N.3    36  GLN36      -0.1245
     21  CA         1.0320   10.6300    2.7860 C.3    36  GLN36       0.1566
     22  C         -0.2380   10.9040    3.6020 C.2    36  GLN36       0.2260
     23  O         -1.3260   10.5740    3.1570 O.2    36  GLN36      -0.2867
     24  CB         1.4630   11.9110    2.0540 C.3    36  GLN36       0.0367
     25  CG         2.8000   11.8060    1.3230 C.3    36  GLN36       0.0905
     26  CD         3.9820   11.6410    2.2700 C.2    36  GLN36       0.2608
     27  OE1        3.9930   12.1760    3.3790 O.2    36  GLN36      -0.2717
     28  NE2        4.9920   10.9020    1.8230 N.am   36  GLN36      -0.0878
     29  N         -3.5480   12.5830    4.8500 N.3    38  VAL38      -0.1231
     30  CA        -4.5030   13.5210    4.2720 C.3    38  VAL38       0.1692
     31  C         -4.1960   14.9200    4.7950 C.2    38  VAL38       0.2592
     32  O         -4.0830   15.1300    6.0020 O.2    38  VAL38      -0.2718
     33  CB        -5.9460   13.1470    4.6100 C.3    38  VAL38       0.0266
     34  CG1       -6.8840   14.2490    4.1660 C.3    38  VAL38       0.0020
     35  CG2       -6.3040   11.8290    3.9590 C.3    38  VAL38       0.0020
     36  N         -4.0300   15.8630    3.8670 N.am   39  SER39      -0.1952
     37  CA        -3.6650   17.2360    4.1860 C.3    39  SER39       0.1924
     38  C         -4.7700   17.9890    4.9310 C.2    39  SER39       0.2314
     39  O         -5.8580   18.1770    4.4050 O.2    39  SER39      -0.2863
     40  CB        -3.3180   17.9900    2.9010 C.3    39  SER39       0.2116
     41  OG        -3.1590   19.3740    3.1560 O.3    39  SER39      -0.2180
     42  N         -5.7280   21.0360    2.9440 N.3    42  GLU42      -0.1231
     43  CA        -6.6100   20.8290    1.7960 C.3    42  GLU42       0.1699
     44  C         -7.9380   20.1570    2.1620 C.2    42  GLU42       0.2592
     45  O         -8.9220   20.2520    1.4220 O.2    42  GLU42      -0.2718
     46  CB        -5.8810   20.0100    0.7380 C.3    42  GLU42       0.0402
     47  CG        -4.6230   20.6970    0.2370 C.3    42  GLU42       0.1161
     48  CD        -3.7410   19.7810   -0.5740 C.2    42  GLU42       0.3649
     49  OE1       -4.1130   18.6030   -0.7470 O.co2  42  GLU42      -0.2457
     50  OE2       -2.6750   20.2400   -1.0350 O.co2  42  GLU42      -0.2457
     51  N         -7.9560   19.4680    3.2980 N.am   43  VAL43      -0.1980
     52  CA        -9.1900   18.9030    3.8320 C.3    43  VAL43       0.1595
     53  C         -9.3310   19.3240    5.2970 C.2    43  VAL43       0.2287
     54  O         -9.0840   18.5340    6.2140 O.2    43  VAL43      -0.2864
     55  CB        -9.2170   17.3680    3.7110 C.3    43  VAL43       0.0276
     56  CG1      -10.5940   16.8380    4.0730 C.3    43  VAL43       0.0022
     57  CG2       -8.8310   16.9290    2.2930 C.3    43  VAL43       0.0022
     58  N        -11.1860   17.2000    8.0770 N.3    46  TYR46      -0.1241
     59  CA       -10.9560   15.7470    8.0220 C.3    46  TYR46       0.1605
     60  C        -11.0700   15.0760    9.3940 C.2    46  TYR46       0.2264
     61  O        -11.6520   13.9920    9.5170 O.2    46  TYR46      -0.2867
     62  CB        -9.5880   15.4360    7.4070 C.3    46  TYR46       0.0534
     63  CG        -9.3650   13.9600    7.1030 C.ar   46  TYR46      -0.0201
     64  CD1      -10.1090   13.3140    6.1230 C.ar   46  TYR46      -0.0009
     65  CD2       -8.3830   13.2360    7.7650 C.ar   46  TYR46      -0.0009
     66  CE1       -9.8940   11.9670    5.8300 C.ar   46  TYR46       0.0417
     67  CE2       -8.1590   11.8840    7.4790 C.ar   46  TYR46       0.0417
     68  CZ        -8.9130   11.2650    6.5160 C.ar   46  TYR46       0.1957
     69  OH        -8.7020    9.9290    6.2300 O.3    46  TYR46      -0.2866
     70  N        -10.6250    5.7020    4.3130 N.3    85  CYS85      -0.1235
     71  CA       -10.8820    6.1480    2.9520 C.3    85  CYS85       0.1677
     72  C        -12.2860    5.7790    2.4790 C.2    85  CYS85       0.2270
     73  O        -12.9600    6.5750    1.8150 O.2    85  CYS85      -0.2867
     74  CB        -9.8280    5.5450    2.0220 C.3    85  CYS85       0.0956
     75  SG        -9.9610    6.1500    0.3220 S.3    85  CYS85      -0.0801
     76  N        -14.7760    8.2670    4.3260 N.3    88  TYR88      -0.1227
     77  CA       -14.7450    9.6790    3.9640 C.3    88  TYR88       0.1736
     78  C        -15.1710    9.9090    2.5340 C.2    88  TYR88       0.2595
     79  O        -15.8330   10.9030    2.2250 O.2    88  TYR88      -0.2718
     80  CB       -13.3540   10.2720    4.1840 C.3    88  TYR88       0.0548
     81  CG       -13.3570   11.7640    3.9980 C.ar   88  TYR88      -0.0200
     82  CD1      -13.7570   12.6130    5.0240 C.ar   88  TYR88      -0.0009
     83  CD2      -12.9970   12.3340    2.7790 C.ar   88  TYR88      -0.0009
     84  CE1      -13.7830   13.9920    4.8460 C.ar   88  TYR88       0.0417
     85  CE2      -13.0210   13.7080    2.5950 C.ar   88  TYR88       0.0417
     86  CZ       -13.4130   14.5280    3.6270 C.ar   88  TYR88       0.1957
     87  OH       -13.4430   15.8920    3.4340 O.3    88  TYR88      -0.2866
     88  N        -14.8080    8.9760    1.6650 N.am   89  ASN89      -0.1974
     89  CA       -15.0950    9.1380    0.2520 C.3    89  ASN89       0.1688
     90  C        -16.2580    8.2800   -0.2020 C.2    89  ASN89       0.2292
     91  O        -16.4380    7.1520    0.2750 O.2    89  ASN89      -0.2864
     92  CB       -13.8450    8.8060   -0.5530 C.3    89  ASN89       0.1181
     93  CG       -12.6920    9.6740   -0.1790 C.2    89  ASN89       0.2629
     94  OD1      -12.6610   10.8550   -0.5270 O.2    89  ASN89      -0.2716
     95  ND2      -11.7300    9.1120    0.5410 N.am   89  ASN89      -0.0877
     96  N        -10.8750    7.7160   -5.1040 N.3    95  PHE95      -0.1241
     97  CA       -10.3170    7.4100   -3.7920 C.3    95  PHE95       0.1605
     98  C        -10.8880    6.1210   -3.2080 C.2    95  PHE95       0.2264
     99  O        -10.1410    5.2420   -2.7480 O.2    95  PHE95      -0.2867
    100  CB       -10.5810    8.5690   -2.8360 C.3    95  PHE95       0.0534
    101  CG       -10.0810    9.8860   -3.3370 C.ar   95  PHE95      -0.0203
    102  CD1       -8.7270   10.1460   -3.3740 C.ar   95  PHE95      -0.0042
    103  CD2      -10.9640   10.8620   -3.7720 C.ar   95  PHE95      -0.0042
    104  CE1       -8.2530   11.3650   -3.8390 C.ar   95  PHE95      -0.0003
    105  CE2      -10.5010   12.0840   -4.2400 C.ar   95  PHE95      -0.0003
    106  CZ        -9.1430   12.3320   -4.2740 C.ar   95  PHE95      -0.0000
@<TRIPOS>BOND
     1     8     6    1
     2    96    97    1
     3     6     5    1
     4   106   105   ar
     5   106   104   ar
     6   105   103   ar
     7   104   102   ar
     8    97    98    1
     9    97   100    1
    10   103   101   ar
    11     1     2    1
    12     5     2    1
    13     5     7    1
    14   102   101   ar
    15   101   100    1
    16    98    99    2
    17     2     3    1
    18    18    16   ar
    19    18    19   ar
    20     3     9   am
    21     3     4    2
    22    50    48   ar
    23     9    10    1
    24    16    14   ar
    25    19    17   ar
    26    49    48   ar
    27    48    47    1
    28    92    93    1
    29    92    89    1
    30    94    93    2
    31    90    89    1
    32    90    91    2
    33    93    95   am
    34    14    13    1
    35    14    15   ar
    36    47    46    1
    37    89    88    1
    38    17    15   ar
    39    75    74    1
    40    10    13    1
    41    10    11    1
    42    46    43    1
    43    11    12    2
    44    25    24    1
    45    25    26    1
    46    45    44    2
    47    88    78   am
    48    43    44    1
    49    43    42    1
    50    20    21    1
    51    73    72    2
    52    28    26   am
    53    74    71    1
    54    24    21    1
    55    44    51   am
    56    79    78    2
    57    26    27    2
    58    57    55    1
    59    72    71    1
    60    78    77    1
    61    85    83   ar
    62    85    86   ar
    63    83    81   ar
    64    21    22    1
    65    40    41    1
    66    40    37    1
    67    71    70    1
    68    23    22    2
    69    51    52    1
    70    87    86    1
    71    86    84   ar
    72    55    52    1
    73    55    56    1
    74    52    53    1
    75    36    37    1
    76    36    31   am
    77    35    33    1
    78    77    80    1
    79    77    76    1
    80    81    80    1
    81    81    82   ar
    82    34    33    1
    83    37    38    1
    84    30    33    1
    85    30    31    1
    86    30    29    1
    87    39    38    2
    88    31    32    2
    89    84    82   ar
    90    53    54    2
    91    66    64   ar
    92    66    68   ar
    93    64    63   ar
    94    69    68    1
    95    68    67   ar
    96    63    62    1
    97    63    65   ar
    98    62    59    1
    99    67    65   ar
   100    59    58    1
   101    59    60    1
   102    60    61    2
