@<TRIPOS>MOLECULE
tmp/5posB00.pdb
 91 88 0 0 0
SMALL
GASTEIGER

@<TRIPOS>ATOM
      1  N        -32.9540    5.0780   12.9600 N.3    33  ILE33      -0.1231
      2  CA       -32.0690    4.8050   11.8260 C.3    33  ILE33       0.1692
      3  C        -31.2660    3.5280   12.0520 C.2    33  ILE33       0.2592
      4  O        -31.0120    2.7770   11.1050 O.2    33  ILE33      -0.2718
      5  CB       -31.1180    5.9900   11.5690 C.3    33  ILE33       0.0266
      6  CG1      -31.9280    7.1920   11.0680 C.3    33  ILE33       0.0019
      7  CG2      -30.0740    5.6450   10.5120 C.3    33  ILE33       0.0020
      8  CD1      -31.2300    8.5310   11.2080 C.3    33  ILE33       0.0001
      9  N        -30.8910    3.2770   13.3050 N.am   34  PHE34      -0.1976
     10  CA       -29.9910    2.1650   13.6300 C.3    34  PHE34       0.1639
     11  C        -30.6850    1.0760   14.4400 C.2    34  PHE34       0.2290
     12  O        -30.0440    0.1660   14.9610 O.2    34  PHE34      -0.2864
     13  CB       -28.7660    2.6880   14.3980 C.3    34  PHE34       0.0560
     14  CG       -28.0460    3.8010   13.6870 C.ar   34  PHE34      -0.0200
     15  CD1      -27.2840    3.5360   12.5560 C.ar   34  PHE34      -0.0042
     16  CD2      -28.1460    5.1190   14.1320 C.ar   34  PHE34      -0.0042
     17  CE1      -26.6170    4.5650   11.8860 C.ar   34  PHE34      -0.0003
     18  CE2      -27.4910    6.1560   13.4530 C.ar   34  PHE34      -0.0003
     19  CZ       -26.7190    5.8700   12.3310 C.ar   34  PHE34      -0.0000
     20  N        -30.5580   -3.0910    8.3430 N.3    38  VAL38      -0.1245
     21  CA       -30.8670   -2.4050    7.0970 C.3    38  VAL38       0.1561
     22  C        -31.6490   -3.3600    6.1920 C.2    38  VAL38       0.2260
     23  O        -31.2900   -4.5320    6.0550 O.2    38  VAL38      -0.2867
     24  CB       -29.5830   -1.9070    6.4060 C.3    38  VAL38       0.0252
     25  CG1      -29.8540   -1.4960    4.9710 C.3    38  VAL38       0.0019
     26  CG2      -28.9830   -0.7500    7.2020 C.3    38  VAL38       0.0019
     27  N        -35.3340   -2.1820    0.8930 N.3    42  GLU42      -0.1231
     28  CA       -35.0810   -0.7530    0.7780 C.3    42  GLU42       0.1699
     29  C        -33.7360   -0.4910    0.0910 C.2    42  GLU42       0.2592
     30  O        -33.6030    0.4520   -0.6870 O.2    42  GLU42      -0.2718
     31  CB       -35.1080   -0.0790    2.1600 C.3    42  GLU42       0.0402
     32  CG       -35.0830    1.4530    2.1070 C.3    42  GLU42       0.1161
     33  CD       -35.1000    2.1170    3.4840 C.2    42  GLU42       0.3649
     34  OE1      -34.7820    1.4440    4.4860 O.co2  42  GLU42      -0.2457
     35  OE2      -35.4430    3.3190    3.5660 O.co2  42  GLU42      -0.2457
     36  N        -32.7450   -1.3330    0.3860 N.am   43  VAL43      -0.1980
     37  CA       -31.3740   -1.1310   -0.0840 C.3    43  VAL43       0.1595
     38  C        -30.7820   -2.3920   -0.6990 C.2    43  VAL43       0.2287
     39  O        -30.0030   -3.0970   -0.0510 O.2    43  VAL43      -0.2864
     40  CB       -30.4450   -0.6950    1.0630 C.3    43  VAL43       0.0276
     41  CG1      -29.1630   -0.1320    0.5060 C.3    43  VAL43       0.0022
     42  CG2      -31.1240    0.3150    1.9260 C.3    43  VAL43       0.0022
     43  N        -26.8940   -3.2600   -0.4200 N.3    46  TYR46      -0.1241
     44  CA       -26.2240   -3.0180    0.8660 C.3    46  TYR46       0.1605
     45  C        -25.1330   -4.0390    1.1630 C.2    46  TYR46       0.2264
     46  O        -24.0110   -3.6750    1.5280 O.2    46  TYR46      -0.2867
     47  CB       -27.2390   -3.0140    2.0100 C.3    46  TYR46       0.0534
     48  CG       -26.6660   -2.5180    3.3270 C.ar   46  TYR46      -0.0201
     49  CD1      -26.3750   -1.1750    3.5150 C.ar   46  TYR46      -0.0009
     50  CD2      -26.4220   -3.3990    4.3780 C.ar   46  TYR46      -0.0009
     51  CE1      -25.8580   -0.7070    4.7230 C.ar   46  TYR46       0.0417
     52  CE2      -25.9060   -2.9480    5.5880 C.ar   46  TYR46       0.0417
     53  CZ       -25.6260   -1.5970    5.7560 C.ar   46  TYR46       0.1957
     54  OH       -25.1140   -1.1420    6.9490 O.3    46  TYR46      -0.2866
     55  N        -22.2940    2.5210    8.5670 N.3    85  CYS85      -0.1235
     56  CA       -23.0680    3.6630    8.1020 C.3    85  CYS85       0.1677
     57  C        -22.1640    4.6970    7.4200 C.2    85  CYS85       0.2270
     58  O        -22.5250    5.2470    6.3740 O.2    85  CYS85      -0.2867
     59  CB       -23.8290    4.2820    9.2670 C.3    85  CYS85       0.0956
     60  SG       -24.9910    5.5700    8.7420 S.3    85  CYS85      -0.0801
     61  N        -21.0590    3.1280    3.9920 N.3    88  TYR88      -0.1227
     62  CA       -22.0850    3.0010    2.9630 C.3    88  TYR88       0.1736
     63  C        -22.5650    4.3520    2.4350 C.2    88  TYR88       0.2595
     64  O        -22.8150    4.5020    1.2330 O.2    88  TYR88      -0.2718
     65  CB       -23.2990    2.2220    3.4710 C.3    88  TYR88       0.0548
     66  CG       -24.2990    2.0200    2.3620 C.ar   88  TYR88      -0.0200
     67  CD1      -24.0690    1.0780    1.3660 C.ar   88  TYR88      -0.0009
     68  CD2      -25.4560    2.8010    2.2800 C.ar   88  TYR88      -0.0009
     69  CE1      -24.9690    0.8990    0.3260 C.ar   88  TYR88       0.0417
     70  CE2      -26.3550    2.6340    1.2380 C.ar   88  TYR88       0.0417
     71  CZ       -26.1070    1.6760    0.2700 C.ar   88  TYR88       0.1957
     72  OH       -26.9870    1.4950   -0.7770 O.3    88  TYR88      -0.2866
     73  N        -22.7100    5.3250    3.3290 N.am   89  ASN89      -0.1974
     74  CA       -23.2600    6.6250    2.9590 C.3    89  ASN89       0.1688
     75  C        -22.1960    7.6820    2.6770 C.2    89  ASN89       0.2292
     76  O        -21.1450    7.6950    3.3060 O.2    89  ASN89      -0.2864
     77  CB       -24.2050    7.1180    4.0600 C.3    89  ASN89       0.1181
     78  CG       -25.3720    6.1830    4.2780 C.2    89  ASN89       0.2629
     79  OD1      -26.3320    6.1920    3.5100 O.2    89  ASN89      -0.2716
     80  ND2      -25.3090    5.3830    5.3350 N.am   89  ASN89      -0.0877
     81  N        -27.8430   10.5380    6.9230 N.3    95  PHE95      -0.1241
     82  CA       -27.5260    9.3110    7.6530 C.3    95  PHE95       0.1605
     83  C        -26.0620    9.2920    8.0940 C.2    95  PHE95       0.2264
     84  O        -25.7520    8.8340    9.1960 O.2    95  PHE95      -0.2867
     85  CB       -27.8380    8.0590    6.8280 C.3    95  PHE95       0.0534
     86  CG       -29.3050    7.6460    6.8520 C.ar   95  PHE95      -0.0203
     87  CD1      -30.2810    8.5020    7.3350 C.ar   95  PHE95      -0.0042
     88  CD2      -29.6880    6.3910    6.4000 C.ar   95  PHE95      -0.0042
     89  CE1      -31.6180    8.1260    7.3480 C.ar   95  PHE95      -0.0003
     90  CE2      -31.0240    6.0050    6.4140 C.ar   95  PHE95      -0.0003
     91  CZ       -31.9900    6.8780    6.8910 C.ar   95  PHE95      -0.0000
@<TRIPOS>BOND
     1    72    71    1
     2    38    37    1
     3    38    39    2
     4    30    29    2
     5    43    44    1
     6    37    36    1
     7    37    40    1
     8    29    36   am
     9    29    28    1
    10    71    69   ar
    11    71    70   ar
    12    69    67   ar
    13    41    40    1
    14    28    27    1
    15    28    31    1
    16    44    45    1
    17    44    47    1
    18    40    42    1
    19    45    46    2
    20    64    63    2
    21    70    68   ar
    22    67    66   ar
    23    47    48    1
    24    32    31    1
    25    32    33    1
    26    68    66   ar
    27    66    65    1
    28    63    62    1
    29    63    73   am
    30    75    74    1
    31    75    76    2
    32    74    73    1
    33    74    77    1
    34    62    65    1
    35    62    61    1
    36    48    49   ar
    37    48    50   ar
    38    33    35   ar
    39    33    34   ar
    40    79    78    2
    41    49    51   ar
    42    77    78    1
    43    78    80   am
    44    50    52   ar
    45    51    53   ar
    46    25    24    1
    47    52    53   ar
    48    53    54    1
    49    23    22    2
    50    22    21    1
    51    58    57    2
    52    88    90   ar
    53    88    86   ar
    54    24    21    1
    55    24    26    1
    56    90    91   ar
    57    85    86    1
    58    85    82    1
    59    86    87   ar
    60    91    89   ar
    61    81    82    1
    62    21    20    1
    63    87    89   ar
    64    57    56    1
    65    82    83    1
    66    83    84    2
    67    56    55    1
    68    56    59    1
    69    60    59    1
    70     7     5    1
    71     6     8    1
    72     6     5    1
    73     4     3    2
    74     5     2    1
    75     2     3    1
    76     2     1    1
    77    17    19   ar
    78    17    15   ar
    79     3     9   am
    80    19    18   ar
    81    15    14   ar
    82     9    10    1
    83    18    16   ar
    84    10    13    1
    85    10    11    1
    86    14    16   ar
    87    14    13    1
    88    11    12    2
