@<TRIPOS>MOLECULE
tmp/5potA00.pdb
 114 109 0 0 0
SMALL
GASTEIGER

@<TRIPOS>ATOM
      1  N         -2.1790    7.3540   -3.6780 N.3    33  ILE33      -0.1231
      2  CA        -3.2810    7.9630   -2.9540 C.3    33  ILE33       0.1692
      3  C         -3.0850    7.8410   -1.4370 C.2    33  ILE33       0.2592
      4  O         -3.4830    8.7370   -0.6730 O.2    33  ILE33      -0.2718
      5  CB        -4.6060    7.3180   -3.4110 C.3    33  ILE33       0.0266
      6  CG1       -4.9480    7.8430   -4.8150 C.3    33  ILE33       0.0019
      7  CG2       -5.7360    7.6040   -2.4330 C.3    33  ILE33       0.0020
      8  CD1       -6.0080    7.0290   -5.5460 C.3    33  ILE33       0.0001
      9  N         -2.4150    6.7710   -1.0080 N.am   34  PHE34      -0.1976
     10  CA        -2.2520    6.5010    0.4220 C.3    34  PHE34       0.1639
     11  C         -0.8240    6.7140    0.9200 C.2    34  PHE34       0.2290
     12  O         -0.4870    6.3280    2.0370 O.2    34  PHE34      -0.2864
     13  CB        -2.7030    5.0690    0.7300 C.3    34  PHE34       0.0560
     14  CG        -4.0670    4.7590    0.2020 C.ar   34  PHE34      -0.0200
     15  CD1       -5.1910    5.3140    0.7990 C.ar   34  PHE34      -0.0042
     16  CD2       -4.2280    3.9500   -0.9100 C.ar   34  PHE34      -0.0042
     17  CE1       -6.4530    5.0550    0.3120 C.ar   34  PHE34      -0.0003
     18  CE2       -5.5000    3.6820   -1.4170 C.ar   34  PHE34      -0.0003
     19  CZ        -6.6230    4.2380   -0.7970 C.ar   34  PHE34      -0.0000
     20  N          0.8780    9.4770    1.7190 N.3    36  GLN36      -0.1245
     21  CA         1.1150   10.5200    2.7110 C.3    36  GLN36       0.1566
     22  C         -0.1510   10.7970    3.5200 C.2    36  GLN36       0.2260
     23  O         -1.2470   10.4890    3.0670 O.2    36  GLN36      -0.2867
     24  CB         1.5710   11.8160    2.0280 C.3    36  GLN36       0.0367
     25  CG         2.8950   11.7130    1.2810 C.3    36  GLN36       0.0905
     26  CD         4.0830   11.5230    2.2090 C.2    36  GLN36       0.2608
     27  OE1        4.0830   11.9940    3.3470 O.2    36  GLN36      -0.2717
     28  NE2        5.1060   10.8410    1.7210 N.am   36  GLN36      -0.0878
     29  N         -3.4230   12.4810    4.7440 N.3    38  VAL38      -0.1231
     30  CA        -4.3610   13.4340    4.1670 C.3    38  VAL38       0.1692
     31  C         -4.0230   14.8180    4.7140 C.2    38  VAL38       0.2592
     32  O         -3.8830   14.9960    5.9270 O.2    38  VAL38      -0.2718
     33  CB        -5.8160   13.0600    4.4940 C.3    38  VAL38       0.0266
     34  CG1       -6.7340   14.1770    4.0670 C.3    38  VAL38       0.0020
     35  CG2       -6.1850   11.7410    3.8080 C.3    38  VAL38       0.0020
     36  N         -3.8470   15.7830    3.8150 N.am   39  SER39      -0.1952
     37  CA        -3.4730   17.1440    4.1880 C.3    39  SER39       0.1924
     38  C         -4.5840   17.9050    4.9100 C.2    39  SER39       0.2314
     39  O         -5.6550   18.1160    4.3530 O.2    39  SER39      -0.2863
     40  CB        -3.0680   17.9310    2.9430 C.3    39  SER39       0.2116
     41  OG        -2.9930   19.3180    3.2330 O.3    39  SER39      -0.2180
     42  N         -5.5690   20.9660    2.8880 N.3    42  GLU42      -0.1231
     43  CA        -6.4640   20.7250    1.7580 C.3    42  GLU42       0.1699
     44  C         -7.8200   20.1720    2.1910 C.2    42  GLU42       0.2592
     45  O         -8.8220   20.3650    1.5010 O.2    42  GLU42      -0.2718
     46  CB        -5.8180   19.7700    0.7640 C.3    42  GLU42       0.0402
     47  CG        -4.4280   20.1970    0.3410 C.3    42  GLU42       0.1161
     48  CD        -3.9130   19.3930   -0.8290 C.2    42  GLU42       0.3649
     49  OE1       -4.7180   18.6570   -1.4400 O.co2  42  GLU42      -0.2457
     50  OE2       -2.7070   19.5000   -1.1380 O.co2  42  GLU42      -0.2457
     51  N         -7.8370   19.4640    3.3180 N.am   43  VAL43      -0.1980
     52  CA        -9.0800   18.9550    3.8960 C.3    43  VAL43       0.1595
     53  C         -9.1740   19.3760    5.3580 C.2    43  VAL43       0.2287
     54  O         -8.9320   18.5760    6.2600 O.2    43  VAL43      -0.2864
     55  CB        -9.1730   17.4180    3.7920 C.3    43  VAL43       0.0276
     56  CG1      -10.5530   16.9530    4.2050 C.3    43  VAL43       0.0022
     57  CG2       -8.8750   16.9610    2.3860 C.3    43  VAL43       0.0022
     58  N        -11.0210   17.1740    7.9910 N.3    46  TYR46      -0.1241
     59  CA       -10.7800   15.7220    7.9460 C.3    46  TYR46       0.1605
     60  C        -10.9030   15.0570    9.3250 C.2    46  TYR46       0.2264
     61  O        -11.5050   13.9850    9.4560 O.2    46  TYR46      -0.2867
     62  CB        -9.4050   15.4210    7.3320 C.3    46  TYR46       0.0534
     63  CG        -9.1720   13.9430    7.0510 C.ar   46  TYR46      -0.0201
     64  CD1       -9.9050   13.2690    6.0710 C.ar   46  TYR46      -0.0009
     65  CD2       -8.2150   13.2320    7.7580 C.ar   46  TYR46      -0.0009
     66  CE1       -9.6870   11.9210    5.8110 C.ar   46  TYR46       0.0417
     67  CE2       -7.9990   11.8770    7.5140 C.ar   46  TYR46       0.0417
     68  CZ        -8.7300   11.2340    6.5460 C.ar   46  TYR46       0.1957
     69  OH        -8.5200    9.9040    6.3100 O.3    46  TYR46      -0.2866
     70  N         -5.9180    2.6220    6.9880 N.3    81  ILE81      -0.1245
     71  CA        -5.7500    3.3360    5.7280 C.3    81  ILE81       0.1561
     72  C         -6.9670    3.1010    4.8280 C.2    81  ILE81       0.2260
     73  O         -7.5580    4.0500    4.2880 O.2    81  ILE81      -0.2867
     74  CB        -4.4620    2.8980    4.9960 C.3    81  ILE81       0.0252
     75  CG1       -3.2120    3.3030    5.7950 C.3    81  ILE81       0.0019
     76  CG2       -4.4260    3.5020    3.5990 C.3    81  ILE81       0.0019
     77  CD1       -1.8900    2.8560    5.1590 C.3    81  ILE81       0.0001
     78  N        -10.5840    5.6350    4.3580 N.3    85  CYS85      -0.1235
     79  CA       -10.8400    6.0930    2.9960 C.3    85  CYS85       0.1677
     80  C        -12.2440    5.7190    2.5290 C.2    85  CYS85       0.2270
     81  O        -12.9290    6.5120    1.8480 O.2    85  CYS85      -0.2867
     82  CB        -9.7810    5.5010    2.0630 C.3    85  CYS85       0.0956
     83  SG        -9.9300    6.0700    0.3520 S.3    85  CYS85      -0.0801
     84  N        -14.6680    8.2650    4.3730 N.3    88  TYR88      -0.1227
     85  CA       -14.6100    9.6710    3.9940 C.3    88  TYR88       0.1736
     86  C        -15.0690    9.9100    2.5640 C.2    88  TYR88       0.2595
     87  O        -15.7360   10.9030    2.2730 O.2    88  TYR88      -0.2718
     88  CB       -13.1920   10.2270    4.1910 C.3    88  TYR88       0.0548
     89  CG       -13.1610   11.7090    3.9560 C.ar   88  TYR88      -0.0200
     90  CD1      -13.5840   12.5940    4.9410 C.ar   88  TYR88      -0.0009
     91  CD2      -12.7700   12.2310    2.7230 C.ar   88  TYR88      -0.0009
     92  CE1      -13.5990   13.9670    4.7120 C.ar   88  TYR88       0.0417
     93  CE2      -12.7850   13.6050    2.4880 C.ar   88  TYR88       0.0417
     94  CZ       -13.1940   14.4590    3.4810 C.ar   88  TYR88       0.1957
     95  OH       -13.2100   15.8180    3.2460 O.3    88  TYR88      -0.2866
     96  N        -14.7340    8.9790    1.6830 N.am   89  ASN89      -0.1974
     97  CA       -15.0210    9.1370    0.2570 C.3    89  ASN89       0.1688
     98  C        -16.1890    8.2880   -0.1940 C.2    89  ASN89       0.2292
     99  O        -16.3770    7.1650    0.2910 O.2    89  ASN89      -0.2864
    100  CB       -13.7730    8.7760   -0.5600 C.3    89  ASN89       0.1181
    101  CG       -12.5610    9.5470   -0.1180 C.2    89  ASN89       0.2629
    102  OD1      -11.6890    9.0230    0.5960 O.2    89  ASN89      -0.2716
    103  ND2      -12.4990   10.8090   -0.5110 N.am   89  ASN89      -0.0877
    104  N        -10.8880    7.5510   -5.0730 N.3    95  PHE95      -0.1241
    105  CA       -10.3170    7.2710   -3.7550 C.3    95  PHE95       0.1605
    106  C        -10.8990    6.0140   -3.1310 C.2    95  PHE95       0.2264
    107  O        -10.1580    5.1400   -2.6700 O.2    95  PHE95      -0.2867
    108  CB       -10.5310    8.4800   -2.8390 C.3    95  PHE95       0.0534
    109  CG       -10.0650    9.7570   -3.4490 C.ar   95  PHE95      -0.0203
    110  CD1       -8.7110   10.0550   -3.5040 C.ar   95  PHE95      -0.0042
    111  CD2      -10.9720   10.6440   -4.0090 C.ar   95  PHE95      -0.0042
    112  CE1       -8.2710   11.2310   -4.0910 C.ar   95  PHE95      -0.0003
    113  CE2      -10.5390   11.8180   -4.6100 C.ar   95  PHE95      -0.0003
    114  CZ        -9.1950   12.1090   -4.6540 C.ar   95  PHE95      -0.0000
@<TRIPOS>BOND
     1     8     6    1
     2   104   105    1
     3     6     5    1
     4   114   113   ar
     5   114   112   ar
     6   113   111   ar
     7   112   110   ar
     8   111   109   ar
     9   105   106    1
    10   105   108    1
    11     1     2    1
    12   110   109   ar
    13   109   108    1
    14     5     2    1
    15     5     7    1
    16   106   107    2
    17     2     3    1
    18    49    48   ar
    19     3     9   am
    20     3     4    2
    21    18    16   ar
    22    18    19   ar
    23    50    48   ar
    24     9    10    1
    25    16    14   ar
    26    48    47    1
    27    19    17   ar
    28   100   101    1
    29   100    97    1
    30   103   101   am
    31    98    97    1
    32    98    99    2
    33   101   102    2
    34    14    13    1
    35    14    15   ar
    36    97    96    1
    37    17    15   ar
    38    47    46    1
    39    83    82    1
    40    10    13    1
    41    10    11    1
    42    46    43    1
    43    11    12    2
    44    25    24    1
    45    25    26    1
    46    45    44    2
    47    96    86   am
    48    20    21    1
    49    28    26   am
    50    43    44    1
    51    43    42    1
    52    81    80    2
    53    24    21    1
    54    82    79    1
    55    44    51   am
    56    26    27    2
    57    87    86    2
    58    57    55    1
    59    93    91   ar
    60    93    94   ar
    61    80    79    1
    62    86    85    1
    63    21    22    1
    64    91    89   ar
    65    40    41    1
    66    40    37    1
    67    79    78    1
    68    23    22    2
    69    95    94    1
    70    51    52    1
    71    94    92   ar
    72    76    74    1
    73    55    52    1
    74    55    56    1
    75    35    33    1
    76    36    37    1
    77    36    31   am
    78    52    53    1
    79    89    88    1
    80    89    90   ar
    81    85    88    1
    82    85    84    1
    83    34    33    1
    84    30    33    1
    85    30    31    1
    86    30    29    1
    87    37    38    1
    88    73    72    2
    89    39    38    2
    90    92    90   ar
    91    31    32    2
    92    72    71    1
    93    74    71    1
    94    74    75    1
    95    77    75    1
    96    53    54    2
    97    71    70    1
    98    66    64   ar
    99    66    68   ar
   100    64    63   ar
   101    69    68    1
   102    68    67   ar
   103    63    62    1
   104    63    65   ar
   105    62    59    1
   106    67    65   ar
   107    59    58    1
   108    59    60    1
   109    60    61    2
