@<TRIPOS>MOLECULE
tmp/5pouB00.pdb
 114 112 0 0 0
SMALL
GASTEIGER

@<TRIPOS>ATOM
      1  N        -33.0330    5.0990   13.1010 N.3    33  ILE33      -0.1231
      2  CA       -32.1430    4.8350   11.9670 C.3    33  ILE33       0.1692
      3  C        -31.3200    3.5520   12.1800 C.2    33  ILE33       0.2592
      4  O        -31.0690    2.7900   11.2360 O.2    33  ILE33      -0.2718
      5  CB       -31.2160    6.0350   11.7400 C.3    33  ILE33       0.0266
      6  CG1      -32.0440    7.2230   11.2340 C.3    33  ILE33       0.0019
      7  CG2      -30.1230    5.7070   10.7360 C.3    33  ILE33       0.0020
      8  CD1      -31.3040    8.5470   11.2170 C.3    33  ILE33       0.0001
      9  N        -30.9400    3.3070   13.4330 N.am   34  PHE34      -0.1976
     10  CA       -30.0370    2.2050   13.7830 C.3    34  PHE34       0.1639
     11  C        -30.7470    1.1040   14.5620 C.2    34  PHE34       0.2290
     12  O        -30.1170    0.1740   15.0680 O.2    34  PHE34      -0.2864
     13  CB       -28.8470    2.7430   14.5930 C.3    34  PHE34       0.0560
     14  CG       -28.1090    3.8650   13.9020 C.ar   34  PHE34      -0.0200
     15  CD1      -27.3050    3.6020   12.8010 C.ar   34  PHE34      -0.0042
     16  CD2      -28.2190    5.1680   14.3530 C.ar   34  PHE34      -0.0042
     17  CE1      -26.6180    4.6230   12.1550 C.ar   34  PHE34      -0.0003
     18  CE2      -27.5390    6.2010   13.7140 C.ar   34  PHE34      -0.0003
     19  CZ       -26.7370    5.9210   12.6120 C.ar   34  PHE34      -0.0000
     20  N        -30.6940   -3.0140    8.3220 N.3    38  VAL38      -0.1245
     21  CA       -31.0270   -2.4100    7.0390 C.3    38  VAL38       0.1561
     22  C        -31.7450   -3.4520    6.1810 C.2    38  VAL38       0.2260
     23  O        -31.3090   -4.5950    6.0870 O.2    38  VAL38      -0.2867
     24  CB       -29.7620   -1.8950    6.3260 C.3    38  VAL38       0.0252
     25  CG1      -30.0850   -1.4530    4.9050 C.3    38  VAL38       0.0019
     26  CG2      -29.1340   -0.7470    7.1200 C.3    38  VAL38       0.0019
     27  N        -35.4040   -3.2880    0.5900 N.3    42  GLU42      -0.1231
     28  CA       -35.3250   -1.8730    0.2370 C.3    42  GLU42       0.1699
     29  C        -33.9800   -1.4820   -0.3730 C.2    42  GLU42       0.2592
     30  O        -33.9110   -0.6450   -1.2790 O.2    42  GLU42      -0.2718
     31  CB       -35.5940   -1.0140    1.4760 C.3    42  GLU42       0.0402
     32  CG       -35.3870    0.4830    1.2640 C.3    42  GLU42       0.1161
     33  CD       -35.4600    1.2860    2.5560 C.2    42  GLU42       0.3649
     34  OE1      -35.6240    0.6790    3.6360 O.co2  42  GLU42      -0.2457
     35  OE2      -35.3460    2.5300    2.4880 O.co2  42  GLU42      -0.2457
     36  N        -32.9130   -2.0870    0.1420 N.am   43  VAL43      -0.1966
     37  CA       -31.5500   -1.7610   -0.2470 C.3    43  VAL43       0.1712
     38  C        -30.8430   -3.0290   -0.7480 C.2    43  VAL43       0.2458
     39  O        -30.0210   -3.6060   -0.0390 O.2    43  VAL43      -0.2730
     40  CB       -30.7660   -1.1370    0.9450 C.3    43  VAL43       0.0289
     41  CG1      -29.4850   -0.5170    0.4590 C.3    43  VAL43       0.0023
     42  CG2      -31.6110   -0.0780    1.6380 C.3    43  VAL43       0.0023
     43  N        -31.1620   -3.4760   -1.9800 N.am   44  PRO44      -0.2716
     44  CA       -30.6720   -4.7990   -2.3850 C.3    44  PRO44       0.1536
     45  C        -29.1550   -4.8950   -2.5620 C.2    44  PRO44       0.2599
     46  O        -28.6430   -6.0160   -2.5930 O.2    44  PRO44      -0.2715
     47  CB       -31.3970   -5.0560   -3.7220 C.3    44  PRO44       0.0310
     48  CG       -31.8780   -3.7320   -4.1650 C.3    44  PRO44       0.0237
     49  CD       -32.1380   -2.9280   -2.9380 C.3    44  PRO44       0.0939
     50  N        -28.4510   -3.7660   -2.6620 N.am   45  ASP45      -0.1958
     51  CA       -26.9950   -3.8280   -2.8080 C.3    45  ASP45       0.1840
     52  C        -26.2470   -3.7170   -1.4710 C.2    45  ASP45       0.2622
     53  O        -25.0230   -3.6610   -1.4680 O.2    45  ASP45      -0.2715
     54  CB       -26.4900   -2.7520   -3.7940 C.3    45  ASP45       0.1450
     55  CG       -26.4740   -1.3400   -3.2130 C.2    45  ASP45       0.3671
     56  OD1      -26.9200   -1.1160   -2.0670 O.co2  45  ASP45      -0.2456
     57  OD2      -26.0380   -0.4260   -3.9550 O.co2  45  ASP45      -0.2456
     58  N        -26.9690   -3.7190   -0.3460 N.am   46  TYR46      -0.1974
     59  CA       -26.3190   -3.4290    0.9410 C.3    46  TYR46       0.1639
     60  C        -25.1690   -4.3940    1.2450 C.2    46  TYR46       0.2290
     61  O        -24.0790   -3.9570    1.6450 O.2    46  TYR46      -0.2864
     62  CB       -27.3330   -3.4410    2.0910 C.3    46  TYR46       0.0560
     63  CG       -26.7760   -2.8370    3.3760 C.ar   46  TYR46      -0.0198
     64  CD1      -26.4760   -1.4710    3.4660 C.ar   46  TYR46      -0.0009
     65  CD2      -26.5420   -3.6300    4.4900 C.ar   46  TYR46      -0.0009
     66  CE1      -25.9640   -0.9180    4.6410 C.ar   46  TYR46       0.0417
     67  CE2      -26.0340   -3.0930    5.6580 C.ar   46  TYR46       0.0417
     68  CZ       -25.7390   -1.7370    5.7320 C.ar   46  TYR46       0.1957
     69  OH       -25.2340   -1.1930    6.8910 O.3    46  TYR46      -0.2866
     70  N        -21.9510   -0.6670   13.8380 N.3    81  ILE81      -0.1245
     71  CA       -23.1230    0.1250   13.4480 C.3    81  ILE81       0.1561
     72  C        -22.6850    1.4590   12.8210 C.2    81  ILE81       0.2260
     73  O        -23.1400    1.8460   11.7310 O.2    81  ILE81      -0.2867
     74  CB       -24.0240    0.4010   14.6570 C.3    81  ILE81       0.0252
     75  CG1      -24.6650   -0.9070   15.1440 C.3    81  ILE81       0.0019
     76  CG2      -25.1010    1.4170   14.2970 C.3    81  ILE81       0.0019
     77  CD1      -25.5720   -0.7270   16.3660 C.3    81  ILE81       0.0001
     78  N        -22.4620    2.4900    8.5990 N.3    85  CYS85      -0.1235
     79  CA       -23.2400    3.6270    8.1260 C.3    85  CYS85       0.1677
     80  C        -22.3470    4.6660    7.4510 C.2    85  CYS85       0.2270
     81  O        -22.6940    5.2130    6.3930 O.2    85  CYS85      -0.2867
     82  CB       -24.0230    4.2340    9.2920 C.3    85  CYS85       0.0956
     83  SG       -25.1370    5.5680    8.8100 S.3    85  CYS85      -0.0801
     84  N        -21.2610    3.0750    4.0070 N.3    88  TYR88      -0.1227
     85  CA       -22.2810    2.9500    2.9730 C.3    88  TYR88       0.1736
     86  C        -22.7530    4.3050    2.4470 C.2    88  TYR88       0.2595
     87  O        -22.9710    4.4640    1.2380 O.2    88  TYR88      -0.2718
     88  CB       -23.4930    2.1570    3.4760 C.3    88  TYR88       0.0548
     89  CG       -24.4450    1.8840    2.3300 C.ar   88  TYR88      -0.0200
     90  CD1      -24.2820    0.7630    1.5280 C.ar   88  TYR88      -0.0009
     91  CD2      -25.4420    2.7960    1.9860 C.ar   88  TYR88      -0.0009
     92  CE1      -25.1070    0.5340    0.4420 C.ar   88  TYR88       0.0417
     93  CE2      -26.2710    2.5690    0.8990 C.ar   88  TYR88       0.0417
     94  CZ       -26.1000    1.4360    0.1470 C.ar   88  TYR88       0.1957
     95  OH       -26.9260    1.2160   -0.9400 O.3    88  TYR88      -0.2866
     96  N        -22.9110    5.2690    3.3430 N.am   89  ASN89      -0.1974
     97  CA       -23.5110    6.5540    2.9850 C.3    89  ASN89       0.1688
     98  C        -22.4710    7.6260    2.7010 C.2    89  ASN89       0.2292
     99  O        -21.4180    7.6640    3.3380 O.2    89  ASN89      -0.2864
    100  CB       -24.4440    7.0120    4.1060 C.3    89  ASN89       0.1181
    101  CG       -25.5850    6.0590    4.3260 C.2    89  ASN89       0.2629
    102  OD1      -26.5540    6.0660    3.5650 O.2    89  ASN89      -0.2716
    103  ND2      -25.4910    5.2210    5.3560 N.am   89  ASN89      -0.0877
    104  N        -28.0460   10.4950    7.0470 N.3    95  PHE95      -0.1241
    105  CA       -27.7310    9.2730    7.7840 C.3    95  PHE95       0.1605
    106  C        -26.2430    9.2270    8.1790 C.2    95  PHE95       0.2264
    107  O        -25.9330    8.8130    9.2920 O.2    95  PHE95      -0.2867
    108  CB       -28.1240    8.0170    6.9900 C.3    95  PHE95       0.0534
    109  CG       -29.5880    7.6200    7.1390 C.ar   95  PHE95      -0.0203
    110  CD1      -30.5690    8.5650    7.4110 C.ar   95  PHE95      -0.0042
    111  CD2      -29.9740    6.2950    7.0040 C.ar   95  PHE95      -0.0042
    112  CE1      -31.9030    8.1880    7.5410 C.ar   95  PHE95      -0.0003
    113  CE2      -31.3030    5.9190    7.1310 C.ar   95  PHE95      -0.0003
    114  CZ       -32.2650    6.8690    7.3990 C.ar   95  PHE95      -0.0000
@<TRIPOS>BOND
     1    48    47    1
     2    48    49    1
     3    57    55   ar
     4    54    55    1
     5    54    51    1
     6    47    44    1
     7    55    56   ar
     8    49    43    1
     9    51    50    1
    10    51    52    1
    11    50    45   am
    12    46    45    2
    13    45    44    1
    14    44    43    1
    15    43    38   am
    16    52    53    2
    17    52    58   am
    18    30    29    2
    19    95    94    1
    20    38    37    1
    21    38    39    2
    22    29    36   am
    23    29    28    1
    24    58    59    1
    25    37    36    1
    26    37    40    1
    27    94    92   ar
    28    94    93   ar
    29    28    27    1
    30    28    31    1
    31    92    90   ar
    32    41    40    1
    33    93    91   ar
    34    59    60    1
    35    59    62    1
    36    40    42    1
    37    87    86    2
    38    60    61    2
    39    32    31    1
    40    32    33    1
    41    90    89   ar
    42    91    89   ar
    43    62    63    1
    44    89    88    1
    45    86    85    1
    46    86    96   am
    47    35    33   ar
    48    33    34   ar
    49    98    97    1
    50    98    99    2
    51    85    88    1
    52    85    84    1
    53    97    96    1
    54    97   100    1
    55    63    64   ar
    56    63    65   ar
    57    64    66   ar
    58   102   101    2
    59   100   101    1
    60   101   103   am
    61    65    67   ar
    62    66    68   ar
    63    25    24    1
    64    67    68   ar
    65    68    69    1
    66    23    22    2
    67    22    21    1
    68    24    21    1
    69    24    26    1
    70    81    80    2
    71   108   109    1
    72   108   105    1
    73   111   113   ar
    74   111   109   ar
    75    21    20    1
    76   104   105    1
    77   113   114   ar
    78   109   110   ar
    79   114   112   ar
    80   110   112   ar
    81    80    79    1
    82   105   106    1
    83    79    78    1
    84    79    82    1
    85   106   107    2
    86    83    82    1
    87     7     5    1
    88     8     6    1
    89     6     5    1
    90     4     3    2
    91    73    72    2
    92     5     2    1
    93     2     3    1
    94     2     1    1
    95    17    19   ar
    96    17    15   ar
    97     3     9   am
    98    19    18   ar
    99    15    14   ar
   100    72    71    1
   101     9    10    1
   102    71    70    1
   103    71    74    1
   104    18    16   ar
   105    10    11    1
   106    10    13    1
   107    14    16   ar
   108    14    13    1
   109    76    74    1
   110    11    12    2
   111    74    75    1
   112    75    77    1
