@<TRIPOS>MOLECULE
tmp/5powB00.pdb
 91 88 0 0 0
SMALL
GASTEIGER

@<TRIPOS>ATOM
      1  N        -33.0390    5.1520   13.0340 N.3    33  ILE33      -0.1231
      2  CA       -32.1550    4.8730   11.9000 C.3    33  ILE33       0.1692
      3  C        -31.3610    3.5800   12.1130 C.2    33  ILE33       0.2592
      4  O        -31.1290    2.8120   11.1690 O.2    33  ILE33      -0.2718
      5  CB       -31.1860    6.0440   11.6630 C.3    33  ILE33       0.0266
      6  CG1      -31.9740    7.2690   11.1830 C.3    33  ILE33       0.0019
      7  CG2      -30.1380    5.7010   10.6000 C.3    33  ILE33       0.0020
      8  CD1      -31.2390    8.5730   11.3350 C.3    33  ILE33       0.0001
      9  N        -30.9580    3.3490   13.3560 N.am   34  PHE34      -0.1976
     10  CA       -30.0750    2.2260   13.6860 C.3    34  PHE34       0.1639
     11  C        -30.7970    1.1460   14.4870 C.2    34  PHE34       0.2290
     12  O        -30.1700    0.2250   15.0070 O.2    34  PHE34      -0.2864
     13  CB       -28.8540    2.7320   14.4600 C.3    34  PHE34       0.0560
     14  CG       -28.1160    3.8450   13.7570 C.ar   34  PHE34      -0.0200
     15  CD1      -27.3790    3.5860   12.6150 C.ar   34  PHE34      -0.0042
     16  CD2      -28.1670    5.1530   14.2340 C.ar   34  PHE34      -0.0042
     17  CE1      -26.6940    4.6070   11.9550 C.ar   34  PHE34      -0.0003
     18  CE2      -27.4900    6.1830   13.5720 C.ar   34  PHE34      -0.0003
     19  CZ       -26.7460    5.8990   12.4280 C.ar   34  PHE34      -0.0000
     20  N        -30.7660   -3.1270    8.3440 N.3    38  VAL38      -0.1245
     21  CA       -31.1010   -2.4570    7.0960 C.3    38  VAL38       0.1561
     22  C        -31.8680   -3.4410    6.2130 C.2    38  VAL38       0.2260
     23  O        -31.4720   -4.6010    6.0870 O.2    38  VAL38      -0.2867
     24  CB       -29.8340   -1.9510    6.3820 C.3    38  VAL38       0.0252
     25  CG1      -30.1180   -1.5970    4.9390 C.3    38  VAL38       0.0019
     26  CG2      -29.2500   -0.7590    7.1400 C.3    38  VAL38       0.0019
     27  N        -35.6180   -2.4710    0.9210 N.3    42  GLU42      -0.1231
     28  CA       -35.4610   -1.0280    0.7670 C.3    42  GLU42       0.1699
     29  C        -34.1010   -0.6730    0.1540 C.2    42  GLU42       0.2592
     30  O        -33.9900    0.2920   -0.5980 O.2    42  GLU42      -0.2718
     31  CB       -35.6290   -0.3130    2.1150 C.3    42  GLU42       0.0402
     32  CG       -35.5070    1.2160    2.0280 C.3    42  GLU42       0.1161
     33  CD       -35.7320    1.9210    3.3630 C.2    42  GLU42       0.3649
     34  OE1      -36.3940    1.3370    4.2480 O.co2  42  GLU42      -0.2457
     35  OE2      -35.2530    3.0670    3.5260 O.co2  42  GLU42      -0.2457
     36  N        -33.0690   -1.4500    0.4830 N.am   43  VAL43      -0.1980
     37  CA       -31.7060   -1.1540    0.0350 C.3    43  VAL43       0.1595
     38  C        -31.0450   -2.4000   -0.5570 C.2    43  VAL43       0.2287
     39  O        -30.2420   -3.0650    0.1030 O.2    43  VAL43      -0.2864
     40  CB       -30.8340   -0.6100    1.1930 C.3    43  VAL43       0.0276
     41  CG1      -29.5070   -0.0890    0.6630 C.3    43  VAL43       0.0022
     42  CG2      -31.5740    0.4930    1.9460 C.3    43  VAL43       0.0022
     43  N        -27.1050   -3.2550   -0.3420 N.3    46  TYR46      -0.1241
     44  CA       -26.4200   -3.0190    0.9370 C.3    46  TYR46       0.1605
     45  C        -25.3040   -4.0250    1.2070 C.2    46  TYR46       0.2264
     46  O        -24.1850   -3.6430    1.5650 O.2    46  TYR46      -0.2867
     47  CB       -27.4050   -3.0480    2.1020 C.3    46  TYR46       0.0534
     48  CG       -26.8190   -2.5090    3.3960 C.ar   46  TYR46      -0.0201
     49  CD1      -26.5140   -1.1610    3.5360 C.ar   46  TYR46      -0.0009
     50  CD2      -26.5580   -3.3540    4.4700 C.ar   46  TYR46      -0.0009
     51  CE1      -25.9750   -0.6560    4.7260 C.ar   46  TYR46       0.0417
     52  CE2      -26.0210   -2.8650    5.6570 C.ar   46  TYR46       0.0417
     53  CZ       -25.7390   -1.5130    5.7820 C.ar   46  TYR46       0.1957
     54  OH       -25.2050   -1.0280    6.9560 O.3    46  TYR46      -0.2866
     55  N        -22.4150    2.5560    8.6080 N.3    85  CYS85      -0.1235
     56  CA       -23.1830    3.7110    8.1480 C.3    85  CYS85       0.1677
     57  C        -22.2750    4.7490    7.4790 C.2    85  CYS85       0.2270
     58  O        -22.6330    5.3060    6.4380 O.2    85  CYS85      -0.2867
     59  CB       -23.9650    4.3170    9.3170 C.3    85  CYS85       0.0956
     60  SG       -25.1180    5.6400    8.8090 S.3    85  CYS85      -0.0801
     61  N        -21.2320    3.1320    4.0540 N.3    88  TYR88      -0.1227
     62  CA       -22.2740    3.0330    3.0400 C.3    88  TYR88       0.1736
     63  C        -22.7610    4.3930    2.5230 C.2    88  TYR88       0.2595
     64  O        -23.0770    4.5330    1.3390 O.2    88  TYR88      -0.2718
     65  CB       -23.4840    2.2570    3.5560 C.3    88  TYR88       0.0548
     66  CG       -24.4740    2.0510    2.4350 C.ar   88  TYR88      -0.0200
     67  CD1      -24.2280    1.1200    1.4420 C.ar   88  TYR88      -0.0009
     68  CD2      -25.6360    2.8200    2.3440 C.ar   88  TYR88      -0.0009
     69  CE1      -25.1120    0.9400    0.3890 C.ar   88  TYR88       0.0417
     70  CE2      -26.5230    2.6500    1.2870 C.ar   88  TYR88       0.0417
     71  CZ       -26.2520    1.7060    0.3160 C.ar   88  TYR88       0.1957
     72  OH       -27.1270    1.5210   -0.7440 O.3    88  TYR88      -0.2866
     73  N        -22.8420    5.3820    3.4070 N.am   89  ASN89      -0.1974
     74  CA       -23.3940    6.6800    3.0290 C.3    89  ASN89       0.1688
     75  C        -22.3260    7.7370    2.7460 C.2    89  ASN89       0.2292
     76  O        -21.2710    7.7630    3.3870 O.2    89  ASN89      -0.2864
     77  CB       -24.3540    7.1760    4.1220 C.3    89  ASN89       0.1181
     78  CG       -25.4770    6.2030    4.3830 C.2    89  ASN89       0.2629
     79  OD1      -25.4200    5.3960    5.3130 O.2    89  ASN89      -0.2716
     80  ND2      -26.4960    6.2480    3.5390 N.am   89  ASN89      -0.0877
     81  N        -28.0050   10.5500    6.9820 N.3    95  PHE95      -0.1241
     82  CA       -27.6770    9.3290    7.7180 C.3    95  PHE95       0.1605
     83  C        -26.2040    9.3140    8.1450 C.2    95  PHE95       0.2264
     84  O        -25.8910    8.8700    9.2500 O.2    95  PHE95      -0.2867
     85  CB       -28.0190    8.0740    6.9020 C.3    95  PHE95       0.0534
     86  CG       -29.4850    7.6780    6.9650 C.ar   95  PHE95      -0.0203
     87  CD1      -30.4370    8.5520    7.4580 C.ar   95  PHE95      -0.0042
     88  CD2      -29.8930    6.4180    6.5480 C.ar   95  PHE95      -0.0042
     89  CE1      -31.7860    8.1770    7.5180 C.ar   95  PHE95      -0.0003
     90  CE2      -31.2220    6.0400    6.6010 C.ar   95  PHE95      -0.0003
     91  CZ       -32.1720    6.9190    7.0840 C.ar   95  PHE95      -0.0000
@<TRIPOS>BOND
     1    72    71    1
     2    30    29    2
     3    38    37    1
     4    38    39    2
     5    43    44    1
     6    37    36    1
     7    37    40    1
     8    29    36   am
     9    29    28    1
    10    71    69   ar
    11    71    70   ar
    12    69    67   ar
    13    41    40    1
    14    28    27    1
    15    28    31    1
    16    44    45    1
    17    44    47    1
    18    40    42    1
    19    45    46    2
    20    70    68   ar
    21    64    63    2
    22    67    66   ar
    23    32    31    1
    24    32    33    1
    25    47    48    1
    26    68    66   ar
    27    66    65    1
    28    63    62    1
    29    63    73   am
    30    75    74    1
    31    75    76    2
    32    74    73    1
    33    74    77    1
    34    62    65    1
    35    62    61    1
    36    33    35   ar
    37    33    34   ar
    38    48    49   ar
    39    48    50   ar
    40    49    51   ar
    41    80    78   am
    42    77    78    1
    43    78    79    2
    44    50    52   ar
    45    51    53   ar
    46    25    24    1
    47    52    53   ar
    48    53    54    1
    49    23    22    2
    50    22    21    1
    51    24    21    1
    52    24    26    1
    53    58    57    2
    54    88    90   ar
    55    88    86   ar
    56    90    91   ar
    57    85    86    1
    58    85    82    1
    59    86    87   ar
    60    81    82    1
    61    91    89   ar
    62    21    20    1
    63    87    89   ar
    64    57    56    1
    65    82    83    1
    66    83    84    2
    67    56    55    1
    68    56    59    1
    69    60    59    1
    70     7     5    1
    71     4     3    2
    72     6     8    1
    73     6     5    1
    74     5     2    1
    75     2     3    1
    76     2     1    1
    77    17    19   ar
    78    17    15   ar
    79     3     9   am
    80    19    18   ar
    81    15    14   ar
    82     9    10    1
    83    18    16   ar
    84    10    13    1
    85    10    11    1
    86    14    16   ar
    87    14    13    1
    88    11    12    2
