@<TRIPOS>MOLECULE
tmp/5poxA00.pdb
 118 113 0 0 0
SMALL
GASTEIGER

@<TRIPOS>ATOM
      1  N         -0.2780    6.3120   -5.6150 N.3    32  ARG32      -0.1231
      2  CA         0.2060    6.9250   -4.3720 C.3    32  ARG32       0.1694
      3  C         -0.8730    7.7240   -3.6320 C.2    32  ARG32       0.2592
      4  O         -0.5980    8.7250   -2.9580 O.2    32  ARG32      -0.2718
      5  CB         1.4360    7.7950   -4.6540 C.3    32  ARG32       0.0321
      6  CG         2.6390    6.9410   -5.1190 C.3    32  ARG32       0.0489
      7  CD         3.9710    7.6770   -5.0910 C.3    32  ARG32       0.2205
      8  NE         4.4890    7.8880   -3.7450 N.pl3  32  ARG32      -0.0865
      9  CZ         5.1670    6.9860   -3.0400 C.cat  32  ARG32       0.5346
     10  NH1        5.6010    7.2840   -1.8230 N.pl3  32  ARG32       0.1354
     11  NH2        5.4050    5.7890   -3.5460 N.pl3  32  ARG32       0.1354
     12  N         -2.1050    7.2400   -3.7340 N.am   33  ILE33      -0.1966
     13  CA        -3.2280    7.8520   -3.0450 C.3    33  ILE33       0.1727
     14  C         -3.0530    7.7390   -1.5210 C.2    33  ILE33       0.2616
     15  O         -3.4330    8.6440   -0.7620 O.2    33  ILE33      -0.2715
     16  CB        -4.5380    7.2100   -3.5260 C.3    33  ILE33       0.0290
     17  CG1       -4.7740    7.6230   -4.9890 C.3    33  ILE33       0.0022
     18  CG2       -5.7270    7.5900   -2.6240 C.3    33  ILE33       0.0023
     19  CD1       -5.9170    6.9070   -5.6800 C.3    33  ILE33       0.0001
     20  N         -2.4160    6.6620   -1.0810 N.am   34  PHE34      -0.1974
     21  CA        -2.3030    6.3850    0.3560 C.3    34  PHE34       0.1639
     22  C         -0.8950    6.6080    0.9270 C.2    34  PHE34       0.2290
     23  O         -0.6100    6.2540    2.0710 O.2    34  PHE34      -0.2864
     24  CB        -2.7790    4.9570    0.6140 C.3    34  PHE34       0.0560
     25  CG        -4.1480    4.7000    0.0790 C.ar   34  PHE34      -0.0200
     26  CD1       -5.2620    5.2550    0.7010 C.ar   34  PHE34      -0.0042
     27  CD2       -4.3210    3.9620   -1.0820 C.ar   34  PHE34      -0.0042
     28  CE1       -6.5380    5.0400    0.1910 C.ar   34  PHE34      -0.0003
     29  CE2       -5.5840    3.7380   -1.6050 C.ar   34  PHE34      -0.0003
     30  CZ        -6.7020    4.2730   -0.9730 C.ar   34  PHE34      -0.0000
     31  N          0.8200    9.4080    1.7660 N.3    36  GLN36      -0.1245
     32  CA         1.0300   10.4550    2.7630 C.3    36  GLN36       0.1566
     33  C         -0.2450   10.7330    3.5620 C.2    36  GLN36       0.2260
     34  O         -1.3360   10.4080    3.0940 O.2    36  GLN36      -0.2867
     35  CB         1.4930   11.7400    2.0690 C.3    36  GLN36       0.0367
     36  CG         2.8100   11.6010    1.3110 C.3    36  GLN36       0.0905
     37  CD         4.0080   11.4280    2.2300 C.2    36  GLN36       0.2608
     38  OE1        4.0440   11.9610    3.3380 O.2    36  GLN36      -0.2717
     39  NE2        4.9990   10.6850    1.7640 N.am   36  GLN36      -0.0878
     40  N         -3.5170   12.4580    4.8560 N.3    38  VAL38      -0.1245
     41  CA        -4.4650   13.3940    4.2860 C.3    38  VAL38       0.1561
     42  C         -4.1080   14.7890    4.7970 C.2    38  VAL38       0.2260
     43  O         -3.9430   14.9910    5.9990 O.2    38  VAL38      -0.2867
     44  CB        -5.9080   13.0240    4.6580 C.3    38  VAL38       0.0252
     45  CG1       -6.8730   14.1100    4.1970 C.3    38  VAL38       0.0019
     46  CG2       -6.2640   11.6810    4.0330 C.3    38  VAL38       0.0019
     47  N         -7.7670   19.5600    3.5820 N.3    43  VAL43      -0.1245
     48  CA        -9.0180   19.0200    4.1230 C.3    43  VAL43       0.1561
     49  C         -9.1260   19.4010    5.6000 C.2    43  VAL43       0.2260
     50  O         -8.8930   18.5740    6.4840 O.2    43  VAL43      -0.2867
     51  CB        -9.1050   17.4860    3.9780 C.3    43  VAL43       0.0252
     52  CG1      -10.5230   17.0130    4.3090 C.3    43  VAL43       0.0019
     53  CG2       -8.7000   17.0460    2.5710 C.3    43  VAL43       0.0019
     54  N        -11.0820   17.2600    8.2820 N.3    46  TYR46      -0.1241
     55  CA       -10.9250   15.8020    8.1860 C.3    46  TYR46       0.1605
     56  C        -11.0840   15.1120    9.5390 C.2    46  TYR46       0.2264
     57  O        -11.6870   14.0390    9.6320 O.2    46  TYR46      -0.2867
     58  CB        -9.5590   15.4440    7.5800 C.3    46  TYR46       0.0534
     59  CG        -9.3670   13.9630    7.2610 C.ar   46  TYR46      -0.0201
     60  CD1      -10.1840   13.3250    6.3460 C.ar   46  TYR46      -0.0009
     61  CD2       -8.3360   13.2320    7.8390 C.ar   46  TYR46      -0.0009
     62  CE1      -10.0050   11.9790    6.0320 C.ar   46  TYR46       0.0417
     63  CE2       -8.1530   11.8740    7.5390 C.ar   46  TYR46       0.0417
     64  CZ        -8.9860   11.2650    6.6270 C.ar   46  TYR46       0.1957
     65  OH        -8.8270    9.9370    6.3030 O.3    46  TYR46      -0.2866
     66  N         -6.0920    2.6590    6.9800 N.3    81  ILE81      -0.1245
     67  CA        -5.9240    3.3840    5.7250 C.3    81  ILE81       0.1561
     68  C         -7.1310    3.1600    4.8230 C.2    81  ILE81       0.2260
     69  O         -7.7090    4.1060    4.2780 O.2    81  ILE81      -0.2867
     70  CB        -4.6520    2.9550    4.9820 C.3    81  ILE81       0.0252
     71  CG1       -3.4090    3.3790    5.7770 C.3    81  ILE81       0.0019
     72  CG2       -4.6380    3.5680    3.5880 C.3    81  ILE81       0.0019
     73  CD1       -2.0850    2.9440    5.1660 C.3    81  ILE81       0.0001
     74  N        -10.7560    4.2440    6.6180 N.3    84  ASN84      -0.1225
     75  CA       -10.9160    5.7020    6.6790 C.3    84  ASN84       0.1785
     76  C        -11.3170    6.2320    5.3110 C.2    84  ASN84       0.2597
     77  O        -12.2160    7.0560    5.1740 O.2    84  ASN84      -0.2718
     78  CB        -9.6250    6.4000    7.1060 C.3    84  ASN84       0.1169
     79  CG        -9.2640    6.1760    8.5790 C.2    84  ASN84       0.2627
     80  OD1      -10.0800    5.7240    9.3870 O.2    84  ASN84      -0.2716
     81  ND2       -8.0210    6.5070    8.9250 N.am   84  ASN84      -0.0877
     82  N        -10.5980    5.7670    4.2960 N.am   85  CYS85      -0.1970
     83  CA       -10.8580    6.1870    2.9200 C.3    85  CYS85       0.1712
     84  C        -12.2650    5.8170    2.4570 C.2    85  CYS85       0.2296
     85  O        -12.9320    6.5900    1.7570 O.2    85  CYS85      -0.2864
     86  CB        -9.8210    5.5570    1.9890 C.3    85  CYS85       0.0983
     87  SG        -9.9680    6.1370    0.2970 S.3    85  CYS85      -0.0798
     88  N        -14.7840    8.3390    4.3060 N.3    88  TYR88      -0.1227
     89  CA       -14.7290    9.7530    3.9380 C.3    88  TYR88       0.1736
     90  C        -15.1570    9.9640    2.4970 C.2    88  TYR88       0.2595
     91  O        -15.8420   10.9410    2.1710 O.2    88  TYR88      -0.2718
     92  CB       -13.3240   10.3190    4.1720 C.3    88  TYR88       0.0548
     93  CG       -13.2660   11.8160    3.9660 C.ar   88  TYR88      -0.0200
     94  CD1      -13.5420   12.6960    5.0110 C.ar   88  TYR88      -0.0009
     95  CD2      -12.9660   12.3540    2.7190 C.ar   88  TYR88      -0.0009
     96  CE1      -13.5250   14.0720    4.8150 C.ar   88  TYR88       0.0417
     97  CE2      -12.9400   13.7320    2.5170 C.ar   88  TYR88       0.0417
     98  CZ       -13.2210   14.5780    3.5600 C.ar   88  TYR88       0.1957
     99  OH       -13.1900   15.9370    3.3280 O.3    88  TYR88      -0.2866
    100  N        -14.7740    9.0390    1.6320 N.am   89  ASN89      -0.1974
    101  CA       -15.0720    9.1960    0.2100 C.3    89  ASN89       0.1688
    102  C        -16.2480    8.3630   -0.2450 C.2    89  ASN89       0.2292
    103  O        -16.4100    7.2190    0.1800 O.2    89  ASN89      -0.2864
    104  CB       -13.8300    8.8550   -0.6050 C.3    89  ASN89       0.1181
    105  CG       -12.6800    9.7410   -0.2470 C.2    89  ASN89       0.2629
    106  OD1      -12.7030   10.9360   -0.5570 O.2    89  ASN89      -0.2716
    107  ND2      -11.6750    9.1920    0.4470 N.am   89  ASN89      -0.0877
    108  N        -11.0150    7.6060   -5.1740 N.3    95  PHE95      -0.1241
    109  CA       -10.3880    7.3220   -3.8830 C.3    95  PHE95       0.1605
    110  C        -10.9520    6.0490   -3.2500 C.2    95  PHE95       0.2264
    111  O        -10.2160    5.1880   -2.7520 O.2    95  PHE95      -0.2867
    112  CB       -10.5980    8.4990   -2.9280 C.3    95  PHE95       0.0534
    113  CG       -10.1540    9.8290   -3.4830 C.ar   95  PHE95      -0.0203
    114  CD1       -8.8120   10.1100   -3.6500 C.ar   95  PHE95      -0.0042
    115  CD2      -11.0820   10.8070   -3.7940 C.ar   95  PHE95      -0.0042
    116  CE1       -8.4090   11.3350   -4.1410 C.ar   95  PHE95      -0.0003
    117  CE2      -10.6900   12.0420   -4.2860 C.ar   95  PHE95      -0.0003
    118  CZ        -9.3490   12.3060   -4.4600 C.ar   95  PHE95      -0.0000
@<TRIPOS>BOND
     1    19    17    1
     2     1     2    1
     3   108   109    1
     4     6     7    1
     5     6     5    1
     6     7     8    1
     7    17    16    1
     8     5     2    1
     9   118   117   ar
    10   118   116   ar
    11     2     3    1
    12   117   115   ar
    13   116   114   ar
    14   109   110    1
    15   109   112    1
    16   115   113   ar
    17     8     9    2
    18    12     3   am
    19    12    13    1
    20   114   113   ar
    21     3     4    2
    22    11     9    1
    23    16    13    1
    24    16    18    1
    25   113   112    1
    26   110   111    2
    27    13    14    1
    28     9    10    1
    29    29    27   ar
    30    29    30   ar
    31    14    20   am
    32    14    15    2
    33    27    25   ar
    34    20    21    1
    35    30    28   ar
    36   104   105    1
    37   104   101    1
    38   106   105    2
    39   105   107   am
    40   102   103    2
    41   102   101    1
    42    25    24    1
    43    25    26   ar
    44    28    26   ar
    45   101   100    1
    46    87    86    1
    47    21    24    1
    48    21    22    1
    49    22    23    2
    50    36    35    1
    51    36    37    1
    52   100    90   am
    53    85    84    2
    54    39    37   am
    55    31    32    1
    56    86    83    1
    57    35    32    1
    58    91    90    2
    59    37    38    2
    60    84    83    1
    61    90    89    1
    62    97    95   ar
    63    97    98   ar
    64    53    51    1
    65    95    93   ar
    66    32    33    1
    67    83    82    1
    68    34    33    2
    69    99    98    1
    70    98    96   ar
    71    47    48    1
    72    72    70    1
    73    89    92    1
    74    89    88    1
    75    93    92    1
    76    93    94   ar
    77    51    48    1
    78    51    52    1
    79    46    44    1
    80    48    49    1
    81    45    44    1
    82    69    68    2
    83    41    44    1
    84    41    42    1
    85    41    40    1
    86    82    76   am
    87    42    43    2
    88    96    94   ar
    89    68    67    1
    90    70    67    1
    91    70    71    1
    92    73    71    1
    93    77    76    2
    94    76    75    1
    95    49    50    2
    96    67    66    1
    97    62    60   ar
    98    62    64   ar
    99    65    64    1
   100    60    59   ar
   101    74    75    1
   102    64    63   ar
   103    75    78    1
   104    78    79    1
   105    59    58    1
   106    59    61   ar
   107    63    61   ar
   108    58    55    1
   109    55    54    1
   110    55    56    1
   111    79    81   am
   112    79    80    2
   113    56    57    2
