@<TRIPOS>MOLECULE
tmp/5pozA00.pdb
 120 118 0 0 0
SMALL
GASTEIGER

@<TRIPOS>ATOM
      1  N         -1.0200    4.8330   -7.7870 N.3    31  ALA31      -0.1231
      2  CA        -1.4210    6.2370   -7.8290 C.3    31  ALA31       0.1694
      3  C         -0.8610    7.0710   -6.6590 C.2    31  ALA31       0.2592
      4  O         -0.9300    8.2970   -6.6850 O.2    31  ALA31      -0.2718
      5  CB        -2.9400    6.3410   -7.8600 C.3    31  ALA31       0.0304
      6  N         -0.3020    6.3980   -5.6500 N.am   32  ARG32      -0.1966
      7  CA         0.2360    7.0310   -4.4320 C.3    32  ARG32       0.1729
      8  C         -0.8110    7.8370   -3.6570 C.2    32  ARG32       0.2616
      9  O         -0.5020    8.8100   -2.9690 O.2    32  ARG32      -0.2715
     10  CB         1.4530    7.9070   -4.7610 C.3    32  ARG32       0.0348
     11  CG         2.6580    7.0830   -5.2570 C.3    32  ARG32       0.0492
     12  CD         3.9590    7.8810   -5.2770 C.3    32  ARG32       0.2205
     13  NE         4.4810    8.1250   -3.9370 N.pl3  32  ARG32      -0.0865
     14  CZ         5.2030    7.2490   -3.2440 C.cat  32  ARG32       0.5346
     15  NH1        5.6450    7.5590   -2.0310 N.pl3  32  ARG32       0.1354
     16  NH2        5.4860    6.0630   -3.7680 N.pl3  32  ARG32       0.1354
     17  N         -2.0610    7.3950   -3.7500 N.am   33  ILE33      -0.1963
     18  CA        -3.1430    8.0250   -3.0170 C.3    33  ILE33       0.1727
     19  C         -2.9270    7.9080   -1.5060 C.2    33  ILE33       0.2616
     20  O         -3.2670    8.8290   -0.7560 O.2    33  ILE33      -0.2715
     21  CB        -4.4890    7.4100   -3.4560 C.3    33  ILE33       0.0290
     22  CG1       -4.7440    7.8150   -4.9210 C.3    33  ILE33       0.0022
     23  CG2       -5.6390    7.8600   -2.5380 C.3    33  ILE33       0.0023
     24  CD1       -5.9050    7.0850   -5.6060 C.3    33  ILE33       0.0001
     25  N         -2.3040    6.8130   -1.0700 N.am   34  PHE34      -0.1974
     26  CA        -2.1760    6.5310    0.3660 C.3    34  PHE34       0.1639
     27  C         -0.7510    6.7070    0.8970 C.2    34  PHE34       0.2290
     28  O         -0.4370    6.2960    2.0140 O.2    34  PHE34      -0.2864
     29  CB        -2.6890    5.1140    0.6440 C.3    34  PHE34       0.0560
     30  CG        -4.0700    4.8900    0.1330 C.ar   34  PHE34      -0.0200
     31  CD1       -5.1400    5.5550    0.7160 C.ar   34  PHE34      -0.0042
     32  CD2       -4.2990    4.0780   -0.9690 C.ar   34  PHE34      -0.0042
     33  CE1       -6.4320    5.3830    0.2420 C.ar   34  PHE34      -0.0003
     34  CE2       -5.5960    3.9000   -1.4600 C.ar   34  PHE34      -0.0003
     35  CZ        -6.6580    4.5490   -0.8580 C.ar   34  PHE34      -0.0000
     36  N          0.9440    9.4390    1.7710 N.3    36  GLN36      -0.1231
     37  CA         1.1640   10.4840    2.7690 C.3    36  GLN36       0.1683
     38  C         -0.0970   10.7580    3.5800 C.2    36  GLN36       0.2434
     39  O         -1.1850   10.4360    3.1240 O.2    36  GLN36      -0.2733
     40  CB         1.6010   11.7800    2.0790 C.3    36  GLN36       0.0380
     41  CG         2.9100   11.6680    1.3130 C.3    36  GLN36       0.0905
     42  CD         4.1120   11.4660    2.2250 C.2    36  GLN36       0.2608
     43  OE1        4.1250   11.9290    3.3710 O.2    36  GLN36      -0.2717
     44  NE2        5.1350   10.7860    1.7150 N.am   36  GLN36      -0.0878
     45  N          0.0360   11.3820    4.7660 N.am   37  PRO37      -0.2718
     46  CA        -1.1680   11.7670    5.5100 C.3    37  PRO37       0.1535
     47  C         -2.0830   12.6350    4.6660 C.2    37  PRO37       0.2598
     48  O         -1.5800   13.4310    3.8570 O.2    37  PRO37      -0.2715
     49  CB        -0.6230   12.5700    6.6980 C.3    37  PRO37       0.0310
     50  CG         0.7900   12.2060    6.8170 C.3    37  PRO37       0.0237
     51  CD         1.2750   11.6980    5.5020 C.3    37  PRO37       0.0939
     52  N         -3.3930   12.4740    4.8230 N.am   38  VAL38      -0.1964
     53  CA        -4.3410   13.4240    4.2580 C.3    38  VAL38       0.1727
     54  C         -3.9930   14.8110    4.7930 C.2    38  VAL38       0.2616
     55  O         -3.8210   14.9900    6.0010 O.2    38  VAL38      -0.2715
     56  CB        -5.7990   13.0760    4.6120 C.3    38  VAL38       0.0290
     57  CG1       -6.7120   14.1820    4.1550 C.3    38  VAL38       0.0023
     58  CG2       -6.2020   11.7510    3.9670 C.3    38  VAL38       0.0023
     59  N         -3.8530   15.7790    3.8910 N.am   39  SER39      -0.1950
     60  CA        -3.4580   17.1390    4.2570 C.3    39  SER39       0.1924
     61  C         -4.5450   17.8630    5.0500 C.2    39  SER39       0.2314
     62  O         -5.6380   18.1170    4.5400 O.2    39  SER39      -0.2863
     63  CB        -3.1210   17.9520    3.0040 C.3    39  SER39       0.2116
     64  OG        -2.9170   19.3260    3.3330 O.3    39  SER39      -0.2180
     65  N         -7.6470   19.7060    3.6420 N.3    43  VAL43      -0.1245
     66  CA        -8.9110   19.0960    4.0530 C.3    43  VAL43       0.1561
     67  C         -9.1300   19.4010    5.5330 C.2    43  VAL43       0.2260
     68  O         -8.9920   18.5160    6.3880 O.2    43  VAL43      -0.2867
     69  CB        -8.9080   17.5710    3.8160 C.3    43  VAL43       0.0252
     70  CG1      -10.3020   16.9970    3.9860 C.3    43  VAL43       0.0019
     71  CG2       -8.3710   17.2580    2.4240 C.3    43  VAL43       0.0019
     72  N        -11.0880   17.1030    8.0770 N.3    46  TYR46      -0.1241
     73  CA       -10.8300   15.6580    8.0300 C.3    46  TYR46       0.1605
     74  C        -10.9380   15.0020    9.4170 C.2    46  TYR46       0.2264
     75  O        -11.5250   13.9230    9.5560 O.2    46  TYR46      -0.2867
     76  CB        -9.4540   15.3660    7.4030 C.3    46  TYR46       0.0534
     77  CG        -9.2320   13.8880    7.0830 C.ar   46  TYR46      -0.0201
     78  CD1       -9.9610   13.2590    6.0760 C.ar   46  TYR46      -0.0009
     79  CD2       -8.2950   13.1390    7.7760 C.ar   46  TYR46      -0.0009
     80  CE1       -9.7620   11.9210    5.7760 C.ar   46  TYR46       0.0417
     81  CE2       -8.0960   11.7890    7.4880 C.ar   46  TYR46       0.0417
     82  CZ        -8.8290   11.1930    6.4880 C.ar   46  TYR46       0.1957
     83  OH        -8.6430    9.8570    6.2010 O.3    46  TYR46      -0.2866
     84  N        -10.6200    5.7280    4.2850 N.3    85  CYS85      -0.1235
     85  CA       -10.9050    6.1740    2.9250 C.3    85  CYS85       0.1677
     86  C        -12.3180    5.8150    2.4740 C.2    85  CYS85       0.2270
     87  O        -12.9880    6.6190    1.8210 O.2    85  CYS85      -0.2867
     88  CB        -9.8670    5.5600    1.9890 C.3    85  CYS85       0.0956
     89  SG        -9.9560    6.1810    0.2930 S.3    85  CYS85      -0.0801
     90  N        -14.7590    8.3070    4.3360 N.3    88  TYR88      -0.1227
     91  CA       -14.7350    9.7210    3.9460 C.3    88  TYR88       0.1736
     92  C        -15.2210    9.9350    2.5190 C.2    88  TYR88       0.2595
     93  O        -15.9340   10.9070    2.2300 O.2    88  TYR88      -0.2718
     94  CB       -13.3310   10.3100    4.1030 C.3    88  TYR88       0.0548
     95  CG       -13.3340   11.8160    4.0320 C.ar   88  TYR88      -0.0200
     96  CD1      -13.5690   12.5840    5.1710 C.ar   88  TYR88      -0.0009
     97  CD2      -13.1490   12.4790    2.8200 C.ar   88  TYR88      -0.0009
     98  CE1      -13.5990   13.9640    5.1120 C.ar   88  TYR88       0.0417
     99  CE2      -13.1770   13.8680    2.7530 C.ar   88  TYR88       0.0417
    100  CZ       -13.4090   14.6000    3.9030 C.ar   88  TYR88       0.1957
    101  OH       -13.4420   15.9840    3.8440 O.3    88  TYR88      -0.2866
    102  N        -14.8740    8.9960    1.6450 N.am   89  ASN89      -0.1974
    103  CA       -15.1580    9.1270    0.2210 C.3    89  ASN89       0.1688
    104  C        -16.3120    8.2460   -0.2240 C.2    89  ASN89       0.2292
    105  O        -16.4580    7.1240    0.2560 O.2    89  ASN89      -0.2864
    106  CB       -13.8990    8.7850   -0.5760 C.3    89  ASN89       0.1181
    107  CG       -12.7190    9.5980   -0.1370 C.2    89  ASN89       0.2629
    108  OD1      -11.7690    9.0940    0.4900 O.2    89  ASN89      -0.2716
    109  ND2      -12.7630   10.8780   -0.4510 N.am   89  ASN89      -0.0877
    110  N        -10.8690    7.6890   -5.1310 N.3    95  PHE95      -0.1241
    111  CA       -10.3030    7.3880   -3.8200 C.3    95  PHE95       0.1605
    112  C        -10.8730    6.1010   -3.2250 C.2    95  PHE95       0.2264
    113  O        -10.1240    5.2110   -2.7960 O.2    95  PHE95      -0.2867
    114  CB       -10.5590    8.5640   -2.8700 C.3    95  PHE95       0.0534
    115  CG       -10.1170    9.8880   -3.4210 C.ar   95  PHE95      -0.0203
    116  CD1       -8.7720   10.2170   -3.4500 C.ar   95  PHE95      -0.0042
    117  CD2      -11.0390   10.7960   -3.9130 C.ar   95  PHE95      -0.0042
    118  CE1       -8.3550   11.4500   -3.9700 C.ar   95  PHE95      -0.0003
    119  CE2      -10.6320   12.0240   -4.4260 C.ar   95  PHE95      -0.0003
    120  CZ        -9.2950   12.3470   -4.4550 C.ar   95  PHE95      -0.0000
@<TRIPOS>BOND
     1     5     2    1
     2     2     1    1
     3     2     3    1
     4     4     3    2
     5     3     6   am
     6     6     7    1
     7    24    22    1
     8    12    11    1
     9    12    13    1
    10    11    10    1
    11   110   111    1
    12    22    21    1
    13    10     7    1
    14   120   119   ar
    15   120   118   ar
    16     7     8    1
    17   119   117   ar
    18   118   116   ar
    19    13    14    2
    20   117   115   ar
    21   111   112    1
    22   111   114    1
    23    16    14    1
    24    17     8   am
    25    17    18    1
    26     8     9    2
    27    21    18    1
    28    21    23    1
    29   116   115   ar
    30   115   114    1
    31    14    15    1
    32   112   113    2
    33    18    19    1
    34    19    25   am
    35    19    20    2
    36    34    32   ar
    37    34    35   ar
    38    25    26    1
    39    32    30   ar
    40    35    33   ar
    41   106   107    1
    42   106   103    1
    43   109   107   am
    44   104   103    1
    45   104   105    2
    46   107   108    2
    47    30    29    1
    48    30    31   ar
    49   103   102    1
    50    33    31   ar
    51    89    88    1
    52    26    29    1
    53    26    27    1
    54    27    28    2
    55    41    40    1
    56    41    42    1
    57   102    92   am
    58    44    42   am
    59    36    37    1
    60    87    86    2
    61    88    85    1
    62    40    37    1
    63    42    43    2
    64    93    92    2
    65    71    69    1
    66    86    85    1
    67    92    91    1
    68    99    97   ar
    69    99   100   ar
    70    37    38    1
    71    97    95   ar
    72    85    84    1
    73    63    64    1
    74    63    60    1
    75    39    38    2
    76    38    45   am
    77    65    66    1
    78    69    70    1
    79    69    66    1
    80   101   100    1
    81    48    47    2
    82    59    60    1
    83    59    54   am
    84   100    98   ar
    85    91    94    1
    86    91    90    1
    87    58    56    1
    88    95    94    1
    89    95    96   ar
    90    66    67    1
    91    57    56    1
    92    60    61    1
    93    53    56    1
    94    53    54    1
    95    53    52    1
    96    62    61    2
    97    47    52   am
    98    47    46    1
    99    45    51    1
   100    45    46    1
   101    54    55    2
   102    98    96   ar
   103    51    50    1
   104    46    49    1
   105    67    68    2
   106    80    78   ar
   107    80    82   ar
   108    78    77   ar
   109    83    82    1
   110    82    81   ar
   111    49    50    1
   112    77    76    1
   113    77    79   ar
   114    76    73    1
   115    81    79   ar
   116    73    72    1
   117    73    74    1
   118    74    75    2
