@<TRIPOS>MOLECULE
tmp/5pp0B00.pdb
 97 94 0 0 0
SMALL
GASTEIGER

@<TRIPOS>ATOM
      1  N        -33.1880    5.1550   13.1170 N.3    33  ILE33      -0.1231
      2  CA       -32.3190    4.8870   11.9700 C.3    33  ILE33       0.1692
      3  C        -31.4910    3.6050   12.1600 C.2    33  ILE33       0.2592
      4  O        -31.2470    2.8550   11.2000 O.2    33  ILE33      -0.2718
      5  CB       -31.3830    6.0850   11.7360 C.3    33  ILE33       0.0266
      6  CG1      -32.1970    7.2970   11.2630 C.3    33  ILE33       0.0019
      7  CG2      -30.3020    5.7860   10.6940 C.3    33  ILE33       0.0020
      8  CD1      -31.4110    8.5830   11.2390 C.3    33  ILE33       0.0001
      9  N        -31.0780    3.3620   13.4000 N.am   34  PHE34      -0.1976
     10  CA       -30.1990    2.2350   13.7150 C.3    34  PHE34       0.1639
     11  C        -30.9030    1.1500   14.5340 C.2    34  PHE34       0.2290
     12  O        -30.2700    0.2280   15.0530 O.2    34  PHE34      -0.2864
     13  CB       -28.9530    2.7410   14.4640 C.3    34  PHE34       0.0560
     14  CG       -28.2380    3.8600   13.7480 C.ar   34  PHE34      -0.0200
     15  CD1      -27.5090    3.6050   12.5940 C.ar   34  PHE34      -0.0042
     16  CD2      -28.3080    5.1670   14.2190 C.ar   34  PHE34      -0.0042
     17  CE1      -26.8480    4.6290   11.9160 C.ar   34  PHE34      -0.0003
     18  CE2      -27.6560    6.2020   13.5430 C.ar   34  PHE34      -0.0003
     19  CZ       -26.9170    5.9250   12.3850 C.ar   34  PHE34      -0.0000
     20  N        -30.8940   -2.9960    8.3510 N.3    38  VAL38      -0.1231
     21  CA       -31.2170   -2.3360    7.0860 C.3    38  VAL38       0.1692
     22  C        -31.9730   -3.3320    6.2040 C.2    38  VAL38       0.2592
     23  O        -31.5600   -4.4840    6.0730 O.2    38  VAL38      -0.2718
     24  CB       -29.9350   -1.8280    6.3710 C.3    38  VAL38       0.0266
     25  CG1      -30.2300   -1.4010    4.9400 C.3    38  VAL38       0.0020
     26  CG2      -29.2990   -0.6890    7.1660 C.3    38  VAL38       0.0020
     27  N        -33.0850   -2.8960    5.6190 N.am   39  SER39      -0.1952
     28  CA       -33.9170   -3.7700    4.7850 C.3    39  SER39       0.1924
     29  C        -33.3450   -3.9990    3.3920 C.2    39  SER39       0.2314
     30  O        -33.1000   -3.0470    2.6530 O.2    39  SER39      -0.2863
     31  CB       -35.3270   -3.1910    4.6480 C.3    39  SER39       0.2116
     32  OG       -36.0810   -3.9530    3.7220 O.3    39  SER39      -0.2180
     33  N        -35.6670   -2.5890    0.8460 N.3    42  GLU42      -0.1231
     34  CA       -35.5260   -1.1440    0.6770 C.3    42  GLU42       0.1699
     35  C        -34.1680   -0.7800    0.0720 C.2    42  GLU42       0.2592
     36  O        -34.0630    0.1640   -0.7100 O.2    42  GLU42      -0.2718
     37  CB       -35.7160   -0.4260    2.0190 C.3    42  GLU42       0.0402
     38  CG       -35.6820    1.1050    1.9350 C.3    42  GLU42       0.1161
     39  CD       -35.7220    1.7810    3.3030 C.2    42  GLU42       0.3649
     40  OE1      -35.9380    1.0810    4.3150 O.co2  42  GLU42      -0.2457
     41  OE2      -35.5410    3.0180    3.3670 O.co2  42  GLU42      -0.2457
     42  N        -33.1300   -1.5320    0.4380 N.am   43  VAL43      -0.1980
     43  CA       -31.7680   -1.2460   -0.0020 C.3    43  VAL43       0.1595
     44  C        -31.1190   -2.4970   -0.5900 C.2    43  VAL43       0.2287
     45  O        -30.3170   -3.1600    0.0710 O.2    43  VAL43      -0.2864
     46  CB       -30.9030   -0.7200    1.1660 C.3    43  VAL43       0.0276
     47  CG1      -29.5950   -0.1550    0.6530 C.3    43  VAL43       0.0022
     48  CG2      -31.6610    0.3430    1.9440 C.3    43  VAL43       0.0022
     49  N        -27.2220   -3.3110   -0.3710 N.3    46  TYR46      -0.1241
     50  CA       -26.5360   -3.0580    0.9090 C.3    46  TYR46       0.1605
     51  C        -25.4180   -4.0580    1.1930 C.2    46  TYR46       0.2264
     52  O        -24.2970   -3.6630    1.5540 O.2    46  TYR46      -0.2867
     53  CB       -27.5290   -3.0620    2.0720 C.3    46  TYR46       0.0534
     54  CG       -26.9530   -2.5060    3.3680 C.ar   46  TYR46      -0.0201
     55  CD1      -26.6200   -1.1580    3.4880 C.ar   46  TYR46      -0.0009
     56  CD2      -26.7310   -3.3350    4.4590 C.ar   46  TYR46      -0.0009
     57  CE1      -26.0940   -0.6470    4.6700 C.ar   46  TYR46       0.0417
     58  CE2      -26.2110   -2.8390    5.6450 C.ar   46  TYR46       0.0417
     59  CZ       -25.8880   -1.4910    5.7430 C.ar   46  TYR46       0.1957
     60  OH       -25.3640   -0.9950    6.9180 O.3    46  TYR46      -0.2866
     61  N        -22.5600    2.5610    8.5560 N.3    85  CYS85      -0.1235
     62  CA       -23.3480    3.7040    8.0950 C.3    85  CYS85       0.1677
     63  C        -22.4760    4.7610    7.4120 C.2    85  CYS85       0.2270
     64  O        -22.8650    5.3340    6.3890 O.2    85  CYS85      -0.2867
     65  CB       -24.1050    4.3160    9.2740 C.3    85  CYS85       0.0956
     66  SG       -25.2960    5.6200    8.7510 S.3    85  CYS85      -0.0801
     67  N        -21.3740    3.1600    3.9780 N.3    88  TYR88      -0.1227
     68  CA       -22.4010    3.0350    2.9520 C.3    88  TYR88       0.1736
     69  C        -22.8930    4.3900    2.4350 C.2    88  TYR88       0.2595
     70  O        -23.1830    4.5330    1.2430 O.2    88  TYR88      -0.2718
     71  CB       -23.6060    2.2360    3.4560 C.3    88  TYR88       0.0548
     72  CG       -24.5900    2.0010    2.3430 C.ar   88  TYR88      -0.0200
     73  CD1      -24.3670    1.0040    1.3970 C.ar   88  TYR88      -0.0009
     74  CD2      -25.7110    2.8090    2.2010 C.ar   88  TYR88      -0.0009
     75  CE1      -25.2530    0.8100    0.3440 C.ar   88  TYR88       0.0417
     76  CE2      -26.5950    2.6240    1.1530 C.ar   88  TYR88       0.0417
     77  CZ       -26.3620    1.6220    0.2340 C.ar   88  TYR88       0.1957
     78  OH       -27.2490    1.4410   -0.8160 O.3    88  TYR88      -0.2866
     79  N        -22.9840    5.3760    3.3220 N.am   89  ASN89      -0.1974
     80  CA       -23.5630    6.6680    2.9490 C.3    89  ASN89       0.1688
     81  C        -22.5090    7.7440    2.6570 C.2    89  ASN89       0.2292
     82  O        -21.4250    7.7550    3.2590 O.2    89  ASN89      -0.2864
     83  CB       -24.5190    7.1510    4.0530 C.3    89  ASN89       0.1181
     84  CG       -25.6440    6.1780    4.3190 C.2    89  ASN89       0.2629
     85  OD1      -25.5790    5.3670    5.2460 O.2    89  ASN89      -0.2716
     86  ND2      -26.6900    6.2490    3.5020 N.am   89  ASN89      -0.0877
     87  N        -28.1420   10.5150    6.9670 N.3    95  PHE95      -0.1241
     88  CA       -27.7900    9.2880    7.6840 C.3    95  PHE95       0.1605
     89  C        -26.3180    9.2780    8.0940 C.2    95  PHE95       0.2264
     90  O        -25.9990    8.8370    9.1990 O.2    95  PHE95      -0.2867
     91  CB       -28.1320    8.0450    6.8630 C.3    95  PHE95       0.0534
     92  CG       -29.5970    7.6500    6.9470 C.ar   95  PHE95      -0.0203
     93  CD1      -30.5380    8.5130    7.4940 C.ar   95  PHE95      -0.0042
     94  CD2      -30.0200    6.4050    6.5160 C.ar   95  PHE95      -0.0042
     95  CE1      -31.8740    8.1460    7.5740 C.ar   95  PHE95      -0.0003
     96  CE2      -31.3500    6.0380    6.5910 C.ar   95  PHE95      -0.0003
     97  CZ       -32.2790    6.9090    7.1190 C.ar   95  PHE95      -0.0000
@<TRIPOS>BOND
     1    78    77    1
     2    36    35    2
     3    44    43    1
     4    44    45    2
     5    49    50    1
     6    43    42    1
     7    43    46    1
     8    35    42   am
     9    35    34    1
    10    77    75   ar
    11    77    76   ar
    12    75    73   ar
    13    47    46    1
    14    34    33    1
    15    34    37    1
    16    50    51    1
    17    50    53    1
    18    76    74   ar
    19    46    48    1
    20    51    52    2
    21    70    69    2
    22    73    72   ar
    23    38    37    1
    24    38    39    1
    25    53    54    1
    26    74    72   ar
    27    72    71    1
    28    69    68    1
    29    69    79   am
    30    30    29    2
    31    81    80    1
    32    81    82    2
    33    80    79    1
    34    80    83    1
    35    68    71    1
    36    68    67    1
    37    39    41   ar
    38    39    40   ar
    39    54    55   ar
    40    54    56   ar
    41    29    28    1
    42    55    57   ar
    43    86    84   am
    44    32    31    1
    45    83    84    1
    46    84    85    2
    47    56    58   ar
    48    31    28    1
    49    57    59   ar
    50    28    27    1
    51    25    24    1
    52    27    22   am
    53    58    59   ar
    54    59    60    1
    55    23    22    2
    56    22    21    1
    57    24    21    1
    58    24    26    1
    59    64    63    2
    60    94    96   ar
    61    94    92   ar
    62    96    97   ar
    63    91    92    1
    64    91    88    1
    65    92    93   ar
    66    87    88    1
    67    21    20    1
    68    97    95   ar
    69    63    62    1
    70    93    95   ar
    71    88    89    1
    72    89    90    2
    73    62    61    1
    74    62    65    1
    75    66    65    1
    76     7     5    1
    77     4     3    2
    78     8     6    1
    79     6     5    1
    80     5     2    1
    81    17    19   ar
    82    17    15   ar
    83     2     3    1
    84     2     1    1
    85     3     9   am
    86    19    18   ar
    87    15    14   ar
    88     9    10    1
    89    18    16   ar
    90    10    13    1
    91    10    11    1
    92    14    16   ar
    93    14    13    1
    94    11    12    2
