@<TRIPOS>MOLECULE
tmp/5prcB07.pdb
 130 123 0 0 0
SMALL
GASTEIGER

@<TRIPOS>ATOM
      1  N        126.4810   64.9430    6.2920 N.3   185  MET185     -0.1230
      2  CA       127.7710   64.7160    5.6440 C.3   185  MET185      0.1702
      3  C        128.2270   65.9090    4.7980 C.2   185  MET185      0.2592
      4  O        129.3600   66.3450    4.8920 O.2   185  MET185     -0.2718
      5  CB       127.6960   63.4860    4.7590 C.3   185  MET185      0.0401
      6  CG       128.8280   63.4140    3.7710 C.3   185  MET185      0.0596
      7  SD       128.4530   62.2760    2.4810 S.3   185  MET185     -0.1393
      8  CE       129.8040   62.5830    1.3520 C.3   185  MET185      0.0692
      9  N        127.3480   66.4290    3.9560 N.am  186  ALA186     -0.1980
     10  CA       127.6970   67.5410    3.0760 C.3   186  ALA186      0.1597
     11  C        128.0520   68.8160    3.8260 C.2   186  ALA186      0.2287
     12  O        128.8570   69.6080    3.3420 O.2   186  ALA186     -0.2864
     13  CB       126.5680   67.8210    2.1180 C.3   186  ALA186      0.0319
     14  N        131.4690   68.2340    4.8550 N.3   189  LEU189     -0.1231
     15  CA       132.4090   68.3920    3.7570 C.3   189  LEU189      0.1693
     16  C        132.5690   69.8520    3.3800 C.2   189  LEU189      0.2592
     17  O        133.6910   70.2790    3.1650 O.2   189  LEU189     -0.2718
     18  CB       131.9560   67.6310    2.5160 C.3   189  LEU189      0.0284
     19  CG       131.9930   66.1110    2.4630 C.3   189  LEU189      0.0019
     20  CD1      131.3890   65.6690    1.1500 C.3   189  LEU189      0.0001
     21  CD2      133.4020   65.6000    2.6030 C.3   189  LEU189      0.0001
     22  N        131.4610   70.5860    3.1770 N.am  190  HIS190     -0.1976
     23  CA       131.5390   72.0180    2.8110 C.3   190  HIS190      0.1656
     24  C        132.2690   72.8720    3.8580 C.2   190  HIS190      0.2291
     25  O        133.0250   73.7910    3.5000 O.2   190  HIS190     -0.2864
     26  CB       130.1650   72.6400    2.5800 C.3   190  HIS190      0.0771
     27  CG       130.2270   74.1070    2.2710 C.ar  190  HIS190      0.0820
     28  ND1      131.0400   74.6470    1.3000 N.ar  190  HIS190     -0.2267
     29  CD2      129.6640   75.1730    2.9050 C.ar  190  HIS190      0.1154
     30  CE1      130.9500   75.9860    1.3710 C.ar  190  HIS190      0.1986
     31  NE2      130.1270   76.3630    2.3410 N.ar  190  HIS190     -0.2212
     32  N        136.0630   71.8250    3.9230 N.3   193  LEU193     -0.1245
     33  CA       136.7810   72.2860    2.7560 C.3   193  LEU193      0.1561
     34  C        137.1140   73.7550    2.8760 C.2   193  LEU193      0.2260
     35  O        138.2760   74.1240    2.7440 O.2   193  LEU193     -0.2867
     36  CB       135.9870   72.0480    1.4750 C.3   193  LEU193      0.0270
     37  CG       136.6780   72.6290    0.2400 C.3   193  LEU193      0.0019
     38  CD1      137.7030   71.6470   -0.3270 C.3   193  LEU193      0.0001
     39  CD2      135.6190   72.9800   -0.7750 C.3   193  LEU193      0.0001
     40  N        140.0720   79.2490   -5.1280 N.3   209  ALA209     -0.1245
     41  CA       138.9170   78.6110   -5.7690 C.3   209  ALA209      0.1562
     42  C        139.3040   77.3780   -6.5860 C.2   209  ALA209      0.2260
     43  O        138.6160   76.3600   -6.5320 O.2   209  ALA209     -0.2867
     44  CB       138.1910   79.6180   -6.6610 C.3   209  ALA209      0.0290
     45  N        139.8220   74.1360   -4.4290 N.3   212  GLU212     -0.1231
     46  CA       138.5800   73.5500   -3.9280 C.3   212  GLU212      0.1699
     47  C        138.0600   72.5650   -4.9640 C.2   212  GLU212      0.2592
     48  O        137.8210   71.3900   -4.6550 O.2   212  GLU212     -0.2718
     49  CB       137.5230   74.6380   -3.7040 C.3   212  GLU212      0.0402
     50  CG       137.7580   75.6230   -2.5400 C.3   212  GLU212      0.1161
     51  CD       136.5840   76.6020   -2.3770 C.2   212  GLU212      0.3649
     52  OE1      135.4150   76.1570   -2.4010 O.co2 212  GLU212     -0.2457
     53  OE2      136.8110   77.8210   -2.2420 O.co2 212  GLU212     -0.2457
     54  N        137.9840   73.0410   -6.2100 N.am  213  ASN213     -0.1974
     55  CA       137.5440   72.2420   -7.3550 C.3   213  ASN213      0.1688
     56  C        138.4690   71.0540   -7.5510 C.2   213  ASN213      0.2292
     57  O        138.0140   69.9140   -7.6380 O.2   213  ASN213     -0.2864
     58  CB       137.5370   73.0950   -8.6250 C.3   213  ASN213      0.1181
     59  CG       136.2610   73.9130   -8.7850 C.2   213  ASN213      0.2629
     60  OD1      135.2170   73.5900   -8.2180 O.2   213  ASN213     -0.2716
     61  ND2      136.3260   74.9430   -9.6100 N.am  213  ASN213     -0.0877
     62  N        138.0810   67.9240   -4.8470 N.3   216  PHE216     -0.1241
     63  CA       136.9760   66.9810   -5.0320 C.3   216  PHE216      0.1605
     64  C        136.9790   66.2440   -6.3640 C.2   216  PHE216      0.2264
     65  O        136.6030   65.0710   -6.4190 O.2   216  PHE216     -0.2867
     66  CB       135.6230   67.6670   -4.8050 C.3   216  PHE216      0.0534
     67  CG       135.2130   67.6830   -3.3660 C.ar  216  PHE216     -0.0203
     68  CD1      135.2250   66.5020   -2.6280 C.ar  216  PHE216     -0.0042
     69  CD2      134.9980   68.8850   -2.7020 C.ar  216  PHE216     -0.0042
     70  CE1      135.0430   66.5150   -1.2610 C.ar  216  PHE216     -0.0003
     71  CE2      134.8040   68.9060   -1.3360 C.ar  216  PHE216     -0.0003
     72  CZ       134.8280   67.7140   -0.6110 C.ar  216  PHE216     -0.0000
     73  N        136.6970   62.3670   -5.7040 N.3   220  VAL220     -0.1245
     74  CA       135.4720   61.7050   -6.1550 C.3   220  VAL220      0.1561
     75  C        135.1950   61.9010   -7.6610 C.2   220  VAL220      0.2260
     76  O        134.3470   61.2310   -8.2360 O.2   220  VAL220     -0.2867
     77  CB       134.2130   62.1710   -5.3060 C.3   220  VAL220      0.0252
     78  CG1      134.5040   62.0440   -3.8320 C.3   220  VAL220      0.0019
     79  CG2      133.8070   63.6080   -5.6200 C.3   220  VAL220      0.0019
     80  N        134.2840   64.6790   -9.1110 N.3   222  TYR222     -0.1227
     81  CA       133.3880   65.7970   -9.3960 C.3   222  TYR222      0.1736
     82  C        133.3920   66.8660   -8.2910 C.2   222  TYR222      0.2596
     83  O        133.5070   66.5560   -7.1020 O.2   222  TYR222     -0.2718
     84  CB       131.9740   65.2620   -9.6280 C.3   222  TYR222      0.0548
     85  CG       130.9840   66.3160  -10.0600 C.ar  222  TYR222     -0.0200
     86  CD1      131.1990   67.0910  -11.2030 C.ar  222  TYR222     -0.0009
     87  CD2      129.8990   66.6290   -9.2630 C.ar  222  TYR222     -0.0009
     88  CE1      130.3580   68.1690  -11.5220 C.ar  222  TYR222      0.0417
     89  CE2      129.0660   67.6990   -9.5680 C.ar  222  TYR222      0.0417
     90  CZ       129.2990   68.4680  -10.6850 C.ar  222  TYR222      0.1957
     91  OH       128.4900   69.5730  -10.9040 O.3   222  TYR222     -0.2866
     92  N        133.3600   68.1300   -8.6940 N.am  223  SER223     -0.1938
     93  CA       133.1820   69.2140   -7.7460 C.3   223  SER223      0.2055
     94  C        132.0080   70.0840   -8.1800 C.2   223  SER223      0.2643
     95  O        131.9430   70.5510   -9.3240 O.2   223  SER223     -0.2714
     96  CB       134.4530   70.0540   -7.6450 C.3   223  SER223      0.2130
     97  OG       134.1410   71.3670   -7.2180 O.3   223  SER223     -0.2179
     98  N        131.0660   70.2750   -7.2660 N.am  224  ILE224     -0.1963
     99  CA       129.7950   70.8980   -7.6040 C.3   224  ILE224      0.1727
    100  C        129.9690   72.4100   -7.7300 C.2   224  ILE224      0.2617
    101  O        129.1630   73.0960   -8.3800 O.2   224  ILE224     -0.2715
    102  CB       128.6840   70.4890   -6.5540 C.3   224  ILE224      0.0290
    103  CG1      127.4350   71.3580   -6.6900 C.3   224  ILE224      0.0022
    104  CG2      129.2220   70.5590   -5.1550 C.3   224  ILE224      0.0023
    105  CD1      126.3100   70.6890   -7.4710 C.3   224  ILE224      0.0001
    106  N        131.1330   72.8860   -7.3060 N.am  225  GLY225     -0.1940
    107  CA       131.4120   74.3040   -7.4120 C.3   225  GLY225      0.2014
    108  C        130.8120   75.1250   -6.2850 C.2   225  GLY225      0.2638
    109  O        129.7910   74.7530   -5.6960 O.2   225  GLY225     -0.2714
    110  N        131.3390   76.3310   -6.1300 N.am  226  ALA226     -0.1977
    111  CA       131.1600   77.0980   -4.9300 C.3   226  ALA226      0.1597
    112  C        129.7450   77.6010   -4.7570 C.2   226  ALA226      0.2287
    113  O        129.1730   77.3870   -3.6960 O.2   226  ALA226     -0.2864
    114  CB       132.1460   78.2450   -4.8880 C.3   226  ALA226      0.0319
    115  N        127.2410   74.3120   -4.2570 N.3   229  ILE229     -0.1245
    116  CA       127.1680   73.6050   -2.9860 C.3   229  ILE229      0.1561
    117  C        126.2570   74.2920   -1.9510 C.2   229  ILE229      0.2260
    118  O        125.5980   73.6270   -1.1750 O.2   229  ILE229     -0.2867
    119  CB       128.5620   73.3700   -2.3790 C.3   229  ILE229      0.0252
    120  CG1      128.4600   72.3070   -1.3010 C.3   229  ILE229      0.0019
    121  CG2      129.1110   74.6490   -1.7660 C.3   229  ILE229      0.0019
    122  CD1      127.6800   71.1010   -1.7290 C.3   229  ILE229      0.0001
    123  N        122.8350   73.3220   -3.2370 N.3   232  LEU232     -0.1245
    124  CA       122.6210   71.9350   -2.8510 C.3   232  LEU232      0.1561
    125  C        122.2530   71.7990   -1.3570 C.2   232  LEU232      0.2260
    126  O        121.2600   71.1690   -0.9990 O.2   232  LEU232     -0.2867
    127  CB       123.8560   71.1100   -3.1620 C.3   232  LEU232      0.0270
    128  CG       123.5980   69.6060   -3.0630 C.3   232  LEU232      0.0019
    129  CD1      122.7260   69.1290   -4.2200 C.3   232  LEU232      0.0001
    130  CD2      124.9140   68.8560   -3.0590 C.3   232  LEU232      0.0001
@<TRIPOS>BOND
     1    88    86   ar
     2    88    90   ar
     3    86    85   ar
     4    91    90    1
     5    90    89   ar
     6    85    84    1
     7    85    87   ar
     8    84    81    1
     9    61    59   am
    10    89    87   ar
    11    81    80    1
    12    81    82    1
    13    95    94    2
    14    59    58    1
    15    59    60    2
    16    92    82   am
    17    92    93    1
    18    58    55    1
    19   101   100    2
    20    82    83    2
    21    76    75    2
    22    94    93    1
    23    94    98   am
    24    93    96    1
    25   100    99    1
    26   100   106   am
    27    75    74    1
    28    96    97    1
    29    57    56    2
    30    99    98    1
    31    99   102    1
    32    56    55    1
    33   105   103    1
    34   107   106    1
    35   107   108    1
    36    55    54    1
    37   103   102    1
    38    44    41    1
    39    42    43    2
    40    42    41    1
    41   102   104    1
    42    65    64    2
    43    64    63    1
    44   108   110   am
    45   108   109    2
    46    54    47   am
    47    74    73    1
    48    74    77    1
    49   110   111    1
    50    41    40    1
    51    79    77    1
    52    77    78    1
    53    63    62    1
    54    63    66    1
    55    47    48    2
    56    47    46    1
    57   111   114    1
    58   111   112    1
    59    66    67    1
    60   112   113    2
    61    45    46    1
    62   115   116    1
    63   129   128    1
    64    46    49    1
    65    49    50    1
    66    67    69   ar
    67    67    68   ar
    68   123   124    1
    69   127   128    1
    70   127   124    1
    71   128   130    1
    72   116   119    1
    73   116   117    1
    74   124   125    1
    75    69    71   ar
    76    68    70   ar
    77    50    51    1
    78    52    51   ar
    79   119   121    1
    80   119   120    1
    81    51    53   ar
    82   117   118    2
    83   122   120    1
    84   125   126    2
    85    71    72   ar
    86    70    72   ar
    87    39    37    1
    88    38    37    1
    89    37    36    1
    90    20    19    1
    91    28    30   ar
    92    28    27   ar
    93     8     7    1
    94    30    31   ar
    95    36    33    1
    96    13    10    1
    97    27    26    1
    98    27    29   ar
    99    31    29   ar
   100    19    18    1
   101    19    21    1
   102     7     6    1
   103    18    15    1
   104    26    23    1
   105    35    34    2
   106    33    34    1
   107    33    32    1
   108    23    22    1
   109    23    24    1
   110    10    11    1
   111    10     9    1
   112    17    16    2
   113    22    16   am
   114    12    11    2
   115    16    15    1
   116    25    24    2
   117    15    14    1
   118     6     5    1
   119     9     3   am
   120     5     2    1
   121     3     4    2
   122     3     2    1
   123     2     1    1
