@<TRIPOS>MOLECULE
tmp/5prcC09.pdb
 202 197 0 0 0
SMALL
GASTEIGER

@<TRIPOS>ATOM
      1  N        132.0370   43.4410   -0.7910 N.3    66  ILE66      -0.1245
      2  CA       130.8030   43.3180   -1.5260 C.3    66  ILE66       0.1561
      3  C        130.6140   41.9190   -2.1120 C.2    66  ILE66       0.2260
      4  O        129.5480   41.3250   -1.9440 O.2    66  ILE66      -0.2867
      5  CB       130.7300   44.3880   -2.6020 C.3    66  ILE66       0.0252
      6  CG1      130.5320   45.7420   -1.9300 C.3    66  ILE66       0.0019
      7  CG2      129.5970   44.1080   -3.5650 C.3    66  ILE66       0.0019
      8  CD1      130.9540   46.9020   -2.7890 C.3    66  ILE66       0.0001
      9  N        129.2540   39.6100    0.6350 N.3    69  ILE69      -0.1231
     10  CA       127.8620   39.8920    0.9750 C.3    69  ILE69       0.1692
     11  C        126.9370   39.3890   -0.1370 C.2    69  ILE69       0.2591
     12  O        126.0280   38.5990    0.1160 O.2    69  ILE69      -0.2718
     13  CB       127.6280   41.3980    1.2010 C.3    69  ILE69       0.0266
     14  CG1      128.4610   41.8910    2.3770 C.3    69  ILE69       0.0019
     15  CG2      126.1850   41.6640    1.4990 C.3    69  ILE69       0.0020
     16  CD1      128.7640   43.3450    2.2660 C.3    69  ILE69       0.0001
     17  N        127.2440   39.7460   -1.3780 N.am   70  LEU70      -0.1980
     18  CA       126.4070   39.3630   -2.4960 C.3    70  LEU70       0.1596
     19  C        126.3540   37.8540   -2.6840 C.2    70  LEU70       0.2287
     20  O        125.2890   37.2990   -2.9080 O.2    70  LEU70      -0.2864
     21  CB       126.9010   40.0290   -3.7660 C.3    70  LEU70       0.0297
     22  CG       126.5820   41.5150   -3.8130 C.3    70  LEU70       0.0022
     23  CD1      126.8620   42.0700   -5.1970 C.3    70  LEU70       0.0001
     24  CD2      125.1210   41.7230   -3.4350 C.3    70  LEU70       0.0001
     25  N        124.1760   36.5200    0.1010 N.3    73  MET73      -0.1245
     26  CA       122.8330   36.9640   -0.2040 C.3    73  MET73       0.1570
     27  C        122.2910   36.0600   -1.2920 C.2    73  MET73       0.2261
     28  O        121.2650   35.4370   -1.0940 O.2    73  MET73      -0.2867
     29  CB       122.8330   38.4120   -0.6720 C.3    73  MET73       0.0387
     30  CG       122.9280   39.4330    0.4460 C.3    73  MET73       0.0595
     31  SD       123.0060   41.1020   -0.2380 S.3    73  MET73      -0.1393
     32  CE       121.4500   41.1640   -1.1030 C.3    73  MET73       0.0692
     33  N        115.7650   41.2390   -2.9770 N.3    88  PHE88      -0.1241
     34  CA       117.0750   41.7900   -2.6710 C.3    88  PHE88       0.1605
     35  C        117.1050   42.4680   -1.3060 C.2    88  PHE88       0.2264
     36  O        117.8410   42.0440   -0.4160 O.2    88  PHE88      -0.2867
     37  CB       117.5110   42.7710   -3.7550 C.3    88  PHE88       0.0534
     38  CG       118.9410   43.1900   -3.6360 C.ar   88  PHE88      -0.0203
     39  CD1      119.9660   42.3130   -3.9740 C.ar   88  PHE88      -0.0042
     40  CD2      119.2730   44.4560   -3.1600 C.ar   88  PHE88      -0.0042
     41  CE1      121.3070   42.6970   -3.8440 C.ar   88  PHE88      -0.0003
     42  CE2      120.6060   44.8480   -3.0210 C.ar   88  PHE88      -0.0003
     43  CZ       121.6250   43.9660   -3.3650 C.ar   88  PHE88      -0.0000
     44  N        135.4920   33.1730   17.3610 N.3   104  ILE104     -0.1245
     45  CA       135.3090   33.2880   15.9180 C.3   104  ILE104      0.1561
     46  C        134.1790   32.3520   15.5050 C.2   104  ILE104      0.2260
     47  O        134.2020   31.1610   15.8350 O.2   104  ILE104     -0.2867
     48  CB       136.6030   32.9230   15.1450 C.3   104  ILE104      0.0252
     49  CG1      137.6940   33.9590   15.4340 C.3   104  ILE104      0.0019
     50  CG2      136.3230   32.8720   13.6520 C.3   104  ILE104      0.0019
     51  CD1      139.0160   33.6740   14.7540 C.3   104  ILE104      0.0001
     52  N        130.3800   37.0850    8.0320 N.3   113  TRP113     -0.1227
     53  CA       129.9890   38.4510    8.3700 C.3   113  TRP113      0.1737
     54  C        131.2220   39.1900    8.8630 C.2   113  TRP113      0.2595
     55  O        131.5460   40.2710    8.3620 O.2   113  TRP113     -0.2718
     56  CB       128.8900   38.4500    9.4430 C.3   113  TRP113      0.0564
     57  CG       128.5690   39.8090   10.0070 C.ar  113  TRP113      0.0003
     58  CD1      127.8340   40.7920    9.4100 C.ar  113  TRP113      0.0946
     59  CD2      129.1080   40.3810   11.1980 C.ar  113  TRP113      0.0152
     60  NE1      127.9130   41.9530   10.1370 N.ar  113  TRP113     -0.2442
     61  CE2      128.6970   41.7310   11.2370 C.ar  113  TRP113      0.0810
     62  CE3      129.9130   39.8870   12.2350 C.ar  113  TRP113      0.0012
     63  CZ2      129.0710   42.5960   12.2610 C.ar  113  TRP113      0.0191
     64  CZ3      130.2780   40.7470   13.2620 C.ar  113  TRP113      0.0001
     65  CH2      129.8600   42.0890   13.2640 C.ar  113  TRP113      0.0015
     66  N        131.9750   38.5310    9.7380 N.am  114  LEU114     -0.1966
     67  CA       133.2580   39.0450   10.2060 C.3   114  LEU114      0.1728
     68  C        134.1920   39.4160    9.0560 C.2   114  LEU114      0.2616
     69  O        134.8670   40.4490    9.0850 O.2   114  LEU114     -0.2715
     70  CB       133.9290   37.9880   11.0620 C.3   114  LEU114      0.0311
     71  CG       134.6030   38.4400   12.3470 C.3   114  LEU114      0.0022
     72  CD1      134.0180   39.7430   12.8480 C.3   114  LEU114      0.0001
     73  CD2      134.4040   37.3410   13.3790 C.3   114  LEU114      0.0001
     74  N        134.2710   38.5160    8.0850 N.am  115  MET115     -0.1977
     75  CA       135.1360   38.6570    6.9240 C.3   115  MET115      0.1605
     76  C        134.8670   39.9710    6.2550 C.2   115  MET115      0.2287
     77  O        135.7700   40.7740    6.0230 O.2   115  MET115     -0.2864
     78  CB       134.8170   37.5580    5.9220 C.3   115  MET115      0.0413
     79  CG       135.3520   36.2190    6.2780 C.3   115  MET115      0.0598
     80  SD       136.9770   36.1700    5.6230 S.3   115  MET115     -0.1393
     81  CE       137.9170   36.8180    7.0130 C.3   115  MET115      0.0692
     82  N        133.1980   42.2990    7.3690 N.3   117  GLY117     -0.1210
     83  CA       133.4330   43.3620    8.3190 C.3   117  GLY117      0.1956
     84  C        134.8620   43.8470    8.2330 C.2   117  GLY117      0.2611
     85  O        135.1000   45.0540    8.1230 O.2   117  GLY117     -0.2717
     86  N        135.7960   42.8970    8.1380 N.am  118  LEU118     -0.1979
     87  CA       137.2260   43.1830    8.0000 C.3   118  LEU118      0.1596
     88  C        137.5540   43.9840    6.7600 C.2   118  LEU118      0.2287
     89  O        138.3410   44.9250    6.8060 O.2   118  LEU118     -0.2864
     90  CB       138.0110   41.8870    7.9310 C.3   118  LEU118      0.0297
     91  CG       139.5130   41.9300    8.2000 C.3   118  LEU118      0.0022
     92  CD1      140.0550   43.3410    8.4930 C.3   118  LEU118      0.0001
     93  CD2      139.7490   41.0210    9.3970 C.3   118  LEU118      0.0001
     94  N        135.6710   45.6820    4.8110 N.3   120  MET120     -0.1230
     95  CA       135.0270   46.9870    4.8200 C.3   120  MET120      0.1702
     96  C        135.8680   47.9570    5.6420 C.2   120  MET120      0.2593
     97  O        136.0650   49.1000    5.2360 O.2   120  MET120     -0.2718
     98  CB       133.6280   46.8850    5.4190 C.3   120  MET120      0.0401
     99  CG       132.8760   48.1850    5.4040 C.3   120  MET120      0.0596
    100  SD       131.6090   48.2630    6.6550 S.3   120  MET120     -0.1393
    101  CE       130.3760   49.1110    5.6880 C.3   120  MET120      0.0692
    102  N        136.4120   47.4780    6.7590 N.am  121  THR121     -0.1953
    103  CA       137.2460   48.3020    7.6340 C.3   121  THR121      0.1897
    104  C        138.4900   48.8170    6.8700 C.2   121  THR121      0.2313
    105  O        138.7970   50.0220    6.8800 O.2   121  THR121     -0.2863
    106  CB       137.7010   47.4870    8.8780 C.3   121  THR121      0.1794
    107  OG1      136.5620   46.9530    9.5640 O.3   121  THR121     -0.2208
    108  CG2      138.4640   48.3650    9.8300 C.3   121  THR121      0.0378
    109  N        131.1050   53.7790   12.9240 N.3   155  VAL155     -0.1231
    110  CA       130.9130   52.4890   12.2610 C.3   155  VAL155      0.1692
    111  C        131.6840   51.4320   13.0370 C.2   155  VAL155      0.2591
    112  O        131.2320   50.3040   13.2050 O.2   155  VAL155     -0.2718
    113  CB       131.4730   52.5360   10.7970 C.3   155  VAL155      0.0266
    114  CG1      131.4960   51.1520   10.1780 C.3   155  VAL155      0.0020
    115  CG2      130.6640   53.4960    9.9230 C.3   155  VAL155      0.0020
    116  N        132.9170   51.7590   13.3780 N.am  156  LEU156     -0.1980
    117  CA       133.7460   50.8650   14.1570 C.3   156  LEU156      0.1596
    118  C        133.0060   50.5380   15.4410 C.2   156  LEU156      0.2287
    119  O        133.0530   49.4050   15.9060 O.2   156  LEU156     -0.2864
    120  CB       135.0570   51.5580   14.4940 C.3   156  LEU156      0.0297
    121  CG       136.2810   51.3750   13.6070 C.3   156  LEU156      0.0022
    122  CD1      137.0480   50.2260   14.1840 C.3   156  LEU156      0.0001
    123  CD2      135.9300   51.1160   12.1600 C.3   156  LEU156      0.0001
    124  N        129.6870   50.5510   16.3390 N.3   158  ILE158     -0.1231
    125  CA       128.5330   49.6630   16.1830 C.3   158  ILE158      0.1692
    126  C        128.8670   48.3300   15.4990 C.2   158  ILE158      0.2593
    127  O        128.1910   47.3320   15.7430 O.2   158  ILE158     -0.2718
    128  CB       127.3440   50.3430   15.4080 C.3   158  ILE158      0.0266
    129  CG1      127.7560   50.6850   13.9720 C.3   158  ILE158      0.0019
    130  CG2      126.8410   51.5700   16.1730 C.3   158  ILE158      0.0020
    131  CD1      126.6600   51.3220   13.1650 C.3   158  ILE158      0.0001
    132  N        129.9240   48.3070   14.6870 N.am  159  GLY159     -0.1942
    133  CA       130.3230   47.0850   14.0030 C.3   159  GLY159      0.2014
    134  C        131.2460   46.1720   14.8010 C.2   159  GLY159      0.2639
    135  O        131.0700   44.9610   14.7840 O.2   159  GLY159     -0.2714
    136  N        132.1910   46.7550   15.5360 N.am  160  CYS160     -0.1967
    137  CA       133.2460   46.0050   16.2210 C.3   160  CYS160      0.1712
    138  C        133.2510   46.2600   17.6980 C.2   160  CYS160      0.2296
    139  O        133.2630   45.3360   18.5010 O.2   160  CYS160     -0.2864
    140  CB       134.6300   46.4110   15.7120 C.3   160  CYS160      0.0983
    141  SG       135.2240   45.5120   14.2720 S.3   160  CYS160     -0.0798
    142  N        129.8390   38.8130   19.4440 N.3   169  TRP169     -0.1241
    143  CA       129.7700   39.1870   18.0470 C.3   169  TRP169      0.1605
    144  C        128.3480   39.2380   17.5720 C.2   169  TRP169      0.2264
    145  O        128.0770   39.8390   16.5450 O.2   169  TRP169     -0.2867
    146  CB       130.5360   38.1930   17.1980 C.3   169  TRP169      0.0550
    147  CG       131.9730   38.3760   17.3080 C.ar  169  TRP169      0.0003
    148  CD1      132.8740   37.4670   17.7440 C.ar  169  TRP169      0.0946
    149  CD2      132.7130   39.5420   16.9280 C.ar  169  TRP169      0.0152
    150  NE1      134.1400   37.9850   17.6500 N.ar  169  TRP169     -0.2442
    151  CE2      134.0710   39.2580   17.1480 C.ar  169  TRP169      0.0810
    152  CE3      132.3590   40.7920   16.4040 C.ar  169  TRP169      0.0012
    153  CZ2      135.0870   40.1780   16.8600 C.ar  169  TRP169      0.0191
    154  CZ3      133.3720   41.7080   16.1110 C.ar  169  TRP169      0.0001
    155  CH2      134.7190   41.3930   16.3380 C.ar  169  TRP169      0.0015
    156  N        126.1080   44.7050   13.2700 N.3   173  VAL173     -0.1231
    157  CA       125.1100   45.1590   12.3250 C.3   173  VAL173      0.1678
    158  C        125.1980   44.2630   11.0970 C.2   173  VAL173      0.2434
    159  O        126.2460   44.1710   10.4750 O.2   173  VAL173     -0.2733
    160  CB       125.3830   46.6190   11.9020 C.3   173  VAL173      0.0265
    161  CG1      124.2530   47.1410   11.0750 C.3   173  VAL173      0.0020
    162  CG2      125.5610   47.4930   13.1130 C.3   173  VAL173      0.0020
    163  N        124.1060   43.5730   10.7540 N.am  174  PRO174     -0.2718
    164  CA       124.0310   42.7300    9.5510 C.3   174  PRO174      0.1535
    165  C        124.2700   43.5690    8.3140 C.2   174  PRO174      0.2599
    166  O        124.0580   44.7740    8.3610 O.2   174  PRO174     -0.2715
    167  CB       122.5920   42.1950    9.5650 C.3   174  PRO174      0.0310
    168  CG       122.0430   42.5230   10.9150 C.3   174  PRO174      0.0237
    169  CD       122.7810   43.7520   11.3640 C.3   174  PRO174      0.0939
    170  N        124.7160   42.9500    7.2190 N.am  175  PHE175     -0.1960
    171  CA       124.7430   43.6320    5.9150 C.3   175  PHE175      0.1771
    172  C        123.4740   43.2890    5.1570 C.2   175  PHE175      0.2620
    173  O        123.0940   42.1250    5.0940 O.2   175  PHE175     -0.2715
    174  CB       125.9300   43.1760    5.0630 C.3   175  PHE175      0.0574
    175  CG       127.2740   43.5200    5.6390 C.ar  175  PHE175     -0.0200
    176  CD1      127.8880   42.6780    6.5620 C.ar  175  PHE175     -0.0042
    177  CD2      127.9180   44.6960    5.2730 C.ar  175  PHE175     -0.0042
    178  CE1      129.1180   43.0130    7.1260 C.ar  175  PHE175     -0.0003
    179  CE2      129.1420   45.0290    5.8270 C.ar  175  PHE175     -0.0003
    180  CZ       129.7430   44.1860    6.7610 C.ar  175  PHE175     -0.0000
    181  N        122.8370   44.2890    4.5650 N.am  176  GLY176     -0.1940
    182  CA       121.6390   44.0470    3.7810 C.3   176  GLY176      0.2014
    183  C        120.6980   45.1980    4.0250 C.2   176  GLY176      0.2638
    184  O        120.7110   45.7720    5.1080 O.2   176  GLY176     -0.2714
    185  N        119.8530   45.5130    3.0510 N.am  177  ILE177     -0.1977
    186  CA       119.0310   46.7040    3.1240 C.3   177  ILE177      0.1596
    187  C        118.0230   46.7160    4.2770 C.2   177  ILE177      0.2287
    188  O        118.1430   47.5530    5.1600 O.2   177  ILE177     -0.2864
    189  CB       118.3250   46.9510    1.8120 C.3   177  ILE177      0.0276
    190  CG1      119.3270   46.8090    0.6680 C.3   177  ILE177      0.0022
    191  CG2      117.7100   48.3420    1.8050 C.3   177  ILE177      0.0022
    192  CD1      120.1250   48.0460    0.3990 C.3   177  ILE177      0.0001
    193  N        119.9870   45.5580    7.9880 N.3   180  HIS180     -0.1241
    194  CA       120.6670   46.5920    8.7690 C.3   180  HIS180      0.1621
    195  C        119.6650   47.5080    9.4880 C.2   180  HIS180      0.2264
    196  O        119.9210   47.9240   10.6210 O.2   180  HIS180     -0.2867
    197  CB       121.6850   47.3570    7.8720 C.3   180  HIS180      0.0745
    198  CG       121.2440   48.7150    7.3910 C.ar  180  HIS180      0.0817
    199  ND1      120.3610   48.9190    6.3470 N.ar  180  HIS180     -0.2268
    200  CD2      121.8090   49.9310    7.6180 C.ar  180  HIS180      0.1154
    201  CE1      120.4340   50.2160    5.9880 C.ar  180  HIS180      0.1986
    202  NE2      121.3120   50.8700    6.7320 N.ar  180  HIS180     -0.2212
@<TRIPOS>BOND
     1    23    22    1
     2    39    41   ar
     3    39    38   ar
     4    41    43   ar
     5    22    21    1
     6    22    24    1
     7    21    18    1
     8    37    38    1
     9    37    34    1
    10    38    40   ar
    11     7     5    1
    12    43    42   ar
    13    40    42   ar
    14    33    34    1
    15    20    19    2
    16     8     6    1
    17    19    18    1
    18    34    35    1
    19     5     6    1
    20     5     2    1
    21    18    17    1
    22     3     4    2
    23     3     2    1
    24     2     1    1
    25    17    11   am
    26    35    36    2
    27    27    28    2
    28    27    26    1
    29    32    31    1
    30    29    26    1
    31    29    30    1
    32    31    30    1
    33    26    25    1
    34    11    12    2
    35    11    10    1
    36   192   190    1
    37     9    10    1
    38   190   189    1
    39    10    13    1
    40    13    15    1
    41    13    14    1
    42   191   189    1
    43   189   186    1
    44    16    14    1
    45   185   186    1
    46   185   183   am
    47   186   187    1
    48   182   183    1
    49   182   181    1
    50   183   184    2
    51   187   188    2
    52   181   172   am
    53    94    95    1
    54    95    98    1
    55    95    96    1
    56   174   175    1
    57   174   171    1
    58   173   172    2
    59   172   171    1
    60    97    96    2
    61   177   175   ar
    62   177   179   ar
    63    99    98    1
    64    99   100    1
    65    80    79    1
    66    80    81    1
    67   175   176   ar
    68    96   102   am
    69   101   100    1
    70   179   180   ar
    71   171   170    1
    72    78    79    1
    73    78    75    1
    74   201   199   ar
    75   201   202   ar
    76    77    76    2
    77    76    75    1
    78   199   198   ar
    79   176   178   ar
    80   202   200   ar
    81   102   103    1
    82    88    89    2
    83    88    87    1
    84   180   178   ar
    85   104   105    2
    86   104   103    1
    87    75    74    1
    88   170   165   am
    89    82    83    1
    90   198   200   ar
    91   198   197    1
    92   103   106    1
    93   197   194    1
    94    90    87    1
    95    90    91    1
    96   193   194    1
    97    87    86    1
    98    52    53    1
    99    74    68   am
   100    85    84    2
   101    86    84   am
   102    91    92    1
   103    91    93    1
   104    84    83    1
   105   165   166    2
   106   165   164    1
   107    55    54    2
   108    53    54    1
   109    53    56    1
   110   194   195    1
   111    54    66   am
   112   106   107    1
   113   106   108    1
   114    68    69    2
   115    68    67    1
   116    58    57   ar
   117    58    60   ar
   118    56    57    1
   119   195   196    2
   120   164   167    1
   121   164   163    1
   122   167   168    1
   123    66    67    1
   124   115   113    1
   125    57    59   ar
   126    60    61   ar
   127   114   113    1
   128    67    70    1
   129   159   158    2
   130   163   158   am
   131   163   169    1
   132   113   110    1
   133   168   169    1
   134    70    71    1
   135   161   160    1
   136   158   157    1
   137    59    61   ar
   138    59    62   ar
   139    61    63   ar
   140   160   157    1
   141   160   162    1
   142   123   121    1
   143    62    64   ar
   144    63    65   ar
   145   110   109    1
   146   110   111    1
   147   157   156    1
   148    71    72    1
   149    71    73    1
   150   111   112    2
   151   111   116   am
   152   131   129    1
   153    64    65   ar
   154   116   117    1
   155   121   122    1
   156   121   120    1
   157    50    48    1
   158   129   128    1
   159   133   132    1
   160   133   134    1
   161   117   120    1
   162   117   118    1
   163   141   140    1
   164   132   126   am
   165    51    49    1
   166   135   134    2
   167   134   136   am
   168    48    49    1
   169    48    45    1
   170   128   130    1
   171   128   125    1
   172   118   119    2
   173   126   127    2
   174   126   125    1
   175    46    47    2
   176    46    45    1
   177   136   137    1
   178   140   137    1
   179    45    44    1
   180   154   155   ar
   181   154   152   ar
   182   125   124    1
   183   137   138    1
   184   155   153   ar
   185   152   149   ar
   186   145   144    2
   187   153   151   ar
   188   149   151   ar
   189   149   147   ar
   190   151   150   ar
   191   146   147    1
   192   146   143    1
   193   147   148   ar
   194   144   143    1
   195   150   148   ar
   196   138   139    2
   197   143   142    1
