@<TRIPOS>MOLECULE
tmp/5prnA02.pdb
 97 90 0 0 0
SMALL
GASTEIGER

@<TRIPOS>ATOM
      1  N        -16.9070   39.6670   36.9480 N.3    12  LEU12      -0.1245
      2  CA       -17.3910   39.2620   38.2670 C.3    12  LEU12       0.1561
      3  C        -16.3520   38.3680   38.9050 C.2    12  LEU12       0.2260
      4  O        -15.7850   37.5030   38.2170 O.2    12  LEU12      -0.2867
      5  CB       -18.7150   38.4700   38.1230 C.3    12  LEU12       0.0270
      6  CG       -19.9000   39.3150   37.6250 C.3    12  LEU12       0.0019
      7  CD1      -21.0930   38.4240   37.2760 C.3    12  LEU12       0.0001
      8  CD2      -20.2530   40.3310   38.6970 C.3    12  LEU12       0.0001
      9  N        -15.8100   35.9070   42.2150 N.3    14  TYR14      -0.1241
     10  CA       -16.5030   35.2120   43.3040 C.3    14  TYR14       0.1605
     11  C        -15.5140   34.4120   44.1490 C.2    14  TYR14       0.2264
     12  O        -14.6840   33.6460   43.6380 O.2    14  TYR14      -0.2867
     13  CB       -17.5750   34.2730   42.7390 C.3    14  TYR14       0.0534
     14  CG       -18.1990   33.2980   43.7300 C.ar   14  TYR14      -0.0201
     15  CD1      -19.1760   33.6950   44.6390 C.ar   14  TYR14      -0.0009
     16  CD2      -17.7650   31.9820   43.7700 C.ar   14  TYR14      -0.0009
     17  CE1      -19.7570   32.7930   45.5520 C.ar   14  TYR14       0.0417
     18  CE2      -18.3140   31.0620   44.6650 C.ar   14  TYR14       0.0417
     19  CZ       -19.3200   31.4790   45.5330 C.ar   14  TYR14       0.1957
     20  OH       -19.8370   30.5400   46.4090 O.3    14  TYR14      -0.2866
     21  N        -15.9650   32.0100   47.4720 N.3    16  GLU16      -0.1245
     22  CA       -16.9680   31.3890   48.3690 C.3    16  GLU16       0.1567
     23  C        -16.6710   31.7260   49.8300 C.2    16  GLU16       0.2260
     24  O        -15.5440   31.5180   50.2880 O.2    16  GLU16      -0.2867
     25  CB       -16.9690   29.8680   48.1930 C.3    16  GLU16       0.0388
     26  CG       -18.1430   29.2170   48.9370 C.3    16  GLU16       0.1160
     27  CD       -18.2750   27.7250   48.7650 C.2    16  GLU16       0.3649
     28  OE1      -17.4600   27.0220   48.1430 O.co2  16  GLU16      -0.2457
     29  OE2      -19.2990   27.2170   49.2960 O.co2  16  GLU16      -0.2457
     30  N        -19.4220   37.9620   45.9780 N.3    25  THR25      -0.1218
     31  CA       -19.2480   38.3730   44.5860 C.3    25  THR25       0.1862
     32  C        -19.0700   39.8730   44.4400 C.2    25  THR25       0.2287
     33  O        -19.8780   40.6670   44.9720 O.2    25  THR25      -0.2866
     34  CB       -20.4260   37.8950   43.7100 C.3    25  THR25       0.1770
     35  OG1      -20.4450   36.4560   43.7460 O.3    25  THR25      -0.2211
     36  CG2      -20.2060   38.2740   42.2230 C.3    25  THR25       0.0375
     37  N        -10.6410   24.7130   36.0040 N.3   255  ILE255     -0.1231
     38  CA       -11.1670   24.5060   34.6670 C.3   255  ILE255      0.1692
     39  C        -11.6650   25.8670   34.1710 C.2   255  ILE255      0.2593
     40  O        -12.3130   26.6340   34.9060 O.2   255  ILE255     -0.2718
     41  CB       -12.3240   23.4890   34.6370 C.3   255  ILE255      0.0266
     42  CG1      -13.0170   23.4610   33.2740 C.3   255  ILE255      0.0019
     43  CG2      -13.3240   23.8780   35.7390 C.3   255  ILE255      0.0020
     44  CD1      -14.4320   22.9070   33.2680 C.3   255  ILE255      0.0001
     45  N        -11.3080   26.2230   32.9490 N.am  256  GLY256     -0.1942
     46  CA       -11.8150   27.5030   32.4270 C.3   256  GLY256      0.2014
     47  C        -11.8280   27.5000   30.9130 C.2   256  GLY256      0.2638
     48  O        -11.3720   26.5780   30.2080 O.2   256  GLY256     -0.2714
     49  N        -12.2900   28.6510   30.4120 N.am  257  ALA257     -0.1977
     50  CA       -12.3520   28.8290   28.9570 C.3   257  ALA257      0.1597
     51  C        -12.0970   30.2910   28.5920 C.2   257  ALA257      0.2287
     52  O        -12.4220   31.2290   29.3550 O.2   257  ALA257     -0.2864
     53  CB       -13.7440   28.4280   28.4760 C.3   257  ALA257      0.0319
     54  N        -13.4180   32.9730   31.6570 N.3   269  GLY269     -0.1210
     55  CA       -14.0390   32.5650   32.9210 C.3   269  GLY269      0.1956
     56  C        -13.3250   31.3100   33.4690 C.2   269  GLY269      0.2613
     57  O        -12.6230   30.5830   32.7560 O.2   269  GLY269     -0.2717
     58  N        -13.4980   31.0780   34.7840 N.am  270  SER270     -0.1938
     59  CA       -12.8880   29.9120   35.3650 C.3   270  SER270      0.2055
     60  C        -13.5900   29.5660   36.6650 C.2   270  SER270      0.2642
     61  O        -14.3080   30.3810   37.2110 O.2   270  SER270     -0.2714
     62  CB       -11.3760   30.0350   35.5690 C.3   270  SER270      0.2130
     63  OG       -11.0600   30.8450   36.6920 O.3   270  SER270     -0.2179
     64  N        -13.3910   28.3290   37.1020 N.am  271  VAL271     -0.1977
     65  CA       -13.8910   27.8310   38.3900 C.3   271  VAL271      0.1596
     66  C        -12.6460   27.1200   38.9540 C.2   271  VAL271      0.2287
     67  O        -12.0550   26.2660   38.2640 O.2   271  VAL271     -0.2864
     68  CB       -15.1240   26.9410   38.3600 C.3   271  VAL271      0.0276
     69  CG1      -14.8510   25.6390   37.6460 C.3   271  VAL271      0.0022
     70  CG2      -15.6630   26.6860   39.7710 C.3   271  VAL271      0.0022
     71  N        -12.9040   28.0520   47.1940 N.3   279  THR279     -0.1218
     72  CA       -13.6290   27.9610   45.9680 C.3   279  THR279      0.1862
     73  C        -13.7100   29.3810   45.3430 C.2   279  THR279      0.2287
     74  O        -14.1470   30.3500   45.9510 O.2   279  THR279     -0.2866
     75  CB       -15.0440   27.3870   46.1170 C.3   279  THR279      0.1770
     76  OG1      -14.9030   26.0580   46.6270 O.3   279  THR279     -0.2211
     77  CG2      -15.6680   27.2950   44.7130 C.3   279  THR279      0.0375
     78  N        -14.3600   31.7200   41.5470 N.3   281  ALA281     -0.1231
     79  CA       -14.8410   31.6850   40.1740 C.3   281  ALA281      0.1694
     80  C        -14.8260   33.1070   39.5760 C.2   281  ALA281      0.2592
     81  O        -14.8760   34.1320   40.2960 O.2   281  ALA281     -0.2718
     82  CB       -16.2480   31.0830   40.0450 C.3   281  ALA281      0.0304
     83  N        -14.6620   33.1680   38.2580 N.am  282  ASP282     -0.1960
     84  CA       -14.6680   34.5180   37.6510 C.3   282  ASP282      0.1840
     85  C        -15.2590   34.4440   36.2550 C.2   282  ASP282      0.2621
     86  O        -15.2960   33.3420   35.6430 O.2   282  ASP282     -0.2715
     87  CB       -13.2240   35.0650   37.6080 C.3   282  ASP282      0.1450
     88  CG       -12.3350   34.2590   36.6890 C.2   282  ASP282      0.3671
     89  OD1      -12.4540   34.4210   35.4740 O.co2 282  ASP282     -0.2456
     90  OD2      -11.5000   33.4240   37.1140 O.co2 282  ASP282     -0.2456
     91  N        -15.7680   35.5620   35.7800 N.am  283  VAL283     -0.1977
     92  CA       -16.1880   35.6860   34.3840 C.3   283  VAL283      0.1596
     93  C        -16.0190   37.1770   34.0020 C.2   283  VAL283      0.2287
     94  O        -16.5000   38.0610   34.7300 O.2   283  VAL283     -0.2864
     95  CB       -17.6020   35.1880   34.0830 C.3   283  VAL283      0.0276
     96  CG1      -18.6990   36.0270   34.7050 C.3   283  VAL283      0.0022
     97  CG2      -17.8380   35.1690   32.5570 C.3   283  VAL283      0.0022
@<TRIPOS>BOND
     1    53    50    1
     2    51    50    1
     3    51    52    2
     4    50    49    1
     5    48    47    2
     6    49    47   am
     7    47    46    1
     8    54    55    1
     9    46    45    1
    10    97    95    1
    11    57    56    2
    12    55    56    1
    13    45    39   am
    14    44    42    1
    15    42    41    1
    16    56    58   am
    17    93    92    1
    18    93    94    2
    19    95    92    1
    20    95    96    1
    21    39    38    1
    22    39    40    2
    23    92    91    1
    24    41    38    1
    25    41    43    1
    26    38    37    1
    27    58    59    1
    28    59    62    1
    29    59    60    1
    30    89    88   ar
    31    62    63    1
    32    86    85    2
    33    91    85   am
    34    85    84    1
    35    60    64   am
    36    60    61    2
    37    88    90   ar
    38    88    87    1
    39     1     2    1
    40    64    65    1
    41     7     6    1
    42    87    84    1
    43     6     5    1
    44     6     8    1
    45    69    68    1
    46    84    83    1
    47     5     2    1
    48     4     3    2
    49    83    80   am
    50    67    66    2
    51     2     3    1
    52    68    65    1
    53    68    70    1
    54    65    66    1
    55    80    79    1
    56    80    81    2
    57    82    79    1
    58    79    78    1
    59     9    10    1
    60    36    34    1
    61    13    10    1
    62    13    14    1
    63    10    11    1
    64    12    11    2
    65    34    35    1
    66    34    31    1
    67    14    16   ar
    68    14    15   ar
    69    16    18   ar
    70    32    31    1
    71    32    33    2
    72    31    30    1
    73    15    17   ar
    74    18    19   ar
    75    77    75    1
    76    73    74    2
    77    73    72    1
    78    19    17   ar
    79    19    20    1
    80    72    75    1
    81    72    71    1
    82    75    76    1
    83    21    22    1
    84    28    27   ar
    85    25    22    1
    86    25    26    1
    87    22    23    1
    88    27    26    1
    89    27    29   ar
    90    23    24    2
