@<TRIPOS>MOLECULE
tmp/5pwdB00.pdb
 83 81 0 0 0
SMALL
GASTEIGER

@<TRIPOS>ATOM
      1  N         -8.6660   30.7510   30.5120 N.3     7  GLU7       -0.1231
      2  CA        -8.3410   31.4190   29.2490 C.3     7  GLU7        0.1699
      3  C         -8.7470   30.5740   28.0370 C.2     7  GLU7        0.2592
      4  O         -9.1310   31.1250   27.0390 O.2     7  GLU7       -0.2718
      5  CB        -6.8350   31.7090   29.1690 C.3     7  GLU7        0.0402
      6  CG        -6.3950   32.6660   28.0300 C.3     7  GLU7        0.1161
      7  CD        -6.6630   34.1380   28.3110 C.2     7  GLU7        0.3649
      8  OE1       -7.3180   34.4530   29.3380 O.co2   7  GLU7       -0.2457
      9  OE2       -6.1820   34.9750   27.5180 O.co2   7  GLU7       -0.2457
     10  N         -8.6640   29.2600   28.1660 N.am    8  VAL8       -0.1966
     11  CA        -8.8320   28.3750   27.0070 C.3     8  VAL8        0.1727
     12  C        -10.3070   28.0110   26.7640 C.2     8  VAL8        0.2616
     13  O        -10.8240   28.1740   25.6450 O.2     8  VAL8       -0.2715
     14  CB        -7.9810   27.0910   27.1910 C.3     8  VAL8        0.0290
     15  CG1       -8.1130   26.1190   25.9620 C.3     8  VAL8        0.0023
     16  CG2       -6.4920   27.4770   27.4420 C.3     8  VAL8        0.0023
     17  N        -10.9950   27.5260   27.7960 N.am    9  CYS9       -0.1954
     18  CA       -12.3610   27.0620   27.6200 C.3     9  CYS9        0.1843
     19  C        -13.4150   28.0020   28.1980 C.2     9  CYS9        0.2625
     20  O        -14.6010   27.7330   27.9980 O.2     9  CYS9       -0.2714
     21  CB       -12.5510   25.6800   28.2260 C.3     9  CYS9        0.0997
     22  SG       -12.5430   25.6540   30.1040 S.3     9  CYS9       -0.0797
     23  N        -12.9880   29.0520   28.9010 N.am   10  ASN10      -0.1958
     24  CA       -13.8850   30.1070   29.3970 C.3    10  ASN10       0.1819
     25  C        -14.8380   29.6240   30.4850 C.2    10  ASN10       0.2621
     26  O        -15.8590   30.2780   30.7710 O.2    10  ASN10      -0.2715
     27  CB       -14.6840   30.7170   28.2380 C.3    10  ASN10       0.1195
     28  CG       -13.7830   31.2310   27.1140 C.2    10  ASN10       0.2630
     29  OD1      -13.6210   30.5690   26.0860 O.2    10  ASN10      -0.2716
     30  ND2      -13.1750   32.4030   27.3160 N.am   10  ASN10      -0.0877
     31  N        -14.5220   28.4950   31.1050 N.am   11  LYS11      -0.1977
     32  CA       -15.3390   28.0010   32.2050 C.3    11  LYS11       0.1596
     33  C        -14.6650   28.3510   33.5510 C.2    11  LYS11       0.2287
     34  O        -13.4600   28.6030   33.6220 O.2    11  LYS11      -0.2864
     35  CB       -15.5520   26.5030   32.0990 C.3    11  LYS11       0.0298
     36  CG       -16.3250   26.0950   30.8280 C.3    11  LYS11       0.0038
     37  CD       -17.6800   26.7280   30.7970 C.3    11  LYS11       0.0206
     38  CE       -18.4980   26.2730   29.5820 C.3    11  LYS11       0.1093
     39  NZ       -19.9110   26.8270   29.6300 N.3    11  LYS11      -0.1314
     40  N         -7.1680   25.0990   20.6900 N.3    83  TYR83      -0.1227
     41  CA        -8.1430   24.7530   21.7240 C.3    83  TYR83       0.1736
     42  C         -8.9120   25.9880   22.2820 C.2    83  TYR83       0.2596
     43  O        -10.0220   25.8120   22.8210 O.2    83  TYR83      -0.2718
     44  CB        -7.3960   24.0250   22.8820 C.3    83  TYR83       0.0548
     45  CG        -7.1840   22.5380   22.7530 C.ar   83  TYR83      -0.0200
     46  CD1       -8.1930   21.6200   23.0070 C.ar   83  TYR83      -0.0009
     47  CD2       -5.9130   22.0320   22.4540 C.ar   83  TYR83      -0.0009
     48  CE1       -7.9470   20.1920   22.9170 C.ar   83  TYR83       0.0417
     49  CE2       -5.6850   20.6840   22.3620 C.ar   83  TYR83       0.0417
     50  CZ        -6.6660   19.7720   22.6180 C.ar   83  TYR83       0.1957
     51  OH        -6.3700   18.4340   22.5540 O.3    83  TYR83      -0.2866
     52  N         -8.3050   27.1680   22.1930 N.am   84  CYS84      -0.1956
     53  CA        -8.9490   28.4180   22.6440 C.3    84  CYS84       0.1843
     54  C        -10.2340   28.6860   21.8610 C.2    84  CYS84       0.2625
     55  O        -11.1350   29.3780   22.3540 O.2    84  CYS84      -0.2714
     56  CB        -7.9850   29.6030   22.5400 C.3    84  CYS84       0.0997
     57  SG        -6.7890   29.6520   23.9280 S.3    84  CYS84      -0.0797
     58  N        -10.3500   28.1480   20.6600 N.am   85  ASP85      -0.1957
     59  CA       -11.5640   28.4150   19.8790 C.3    85  ASP85       0.1840
     60  C        -12.6480   27.4290   20.2390 C.2    85  ASP85       0.2622
     61  O        -12.4200   26.2260   20.3230 O.2    85  ASP85      -0.2715
     62  CB       -11.2700   28.3280   18.3810 C.3    85  ASP85       0.1450
     63  CG       -12.4120   28.9480   17.5510 C.2    85  ASP85       0.3671
     64  OD1      -13.4850   28.3150   17.3990 O.co2  85  ASP85      -0.2456
     65  OD2      -12.2340   30.1050   17.1280 O.co2  85  ASP85      -0.2456
     66  N        -13.8880   27.8920   20.4570 N.am   86  SER86      -0.1950
     67  CA       -14.8900   26.9350   20.8770 C.3    86  SER86       0.1924
     68  C        -15.1900   25.8070   19.8360 C.2    86  SER86       0.2314
     69  O        -15.6180   24.6980   20.1960 O.2    86  SER86      -0.2863
     70  CB       -16.1790   27.6780   21.2330 C.3    86  SER86       0.2116
     71  OG       -16.6690   28.3420   20.0780 O.3    86  SER86      -0.2180
     72  N        -13.1010   24.1560   18.3380 N.3    88  SER88      -0.1202
     73  CA       -12.1420   23.0670   18.5390 C.3    88  SER88       0.2020
     74  C        -12.8070   21.8430   19.1400 C.2    88  SER88       0.2619
     75  O        -12.2520   20.7210   19.0470 O.2    88  SER88      -0.2717
     76  CB       -10.9580   23.5200   19.4460 C.3    88  SER88       0.2103
     77  OG       -11.3840   23.7160   20.7780 O.3    88  SER88      -0.2182
     78  N        -13.9960   21.9820   19.7610 N.am   89  CYS89      -0.1969
     79  CA       -14.6400   20.8060   20.3650 C.3    89  CYS89       0.1712
     80  C        -14.8770   19.6610   19.3500 C.2    89  CYS89       0.2296
     81  O        -14.8320   18.4820   19.7130 O.2    89  CYS89      -0.2864
     82  CB       -15.9880   21.1860   21.0530 C.3    89  CYS89       0.0983
     83  SG       -17.3110   21.7880   19.9700 S.3    89  CYS89      -0.0798
@<TRIPOS>BOND
     1    65    63   ar
     2    64    63   ar
     3    63    62    1
     4    72    73    1
     5    62    59    1
     6    73    74    1
     7    73    76    1
     8    75    74    2
     9    74    78   am
    10    80    81    2
    11    80    79    1
    12    76    77    1
    13    78    79    1
    14    68    69    2
    15    68    67    1
    16    59    60    1
    17    59    58    1
    18    83    82    1
    19    71    70    1
    20    60    61    2
    21    60    66   am
    22    79    82    1
    23    66    67    1
    24    58    54   am
    25    40    41    1
    26    67    70    1
    27    41    42    1
    28    41    44    1
    29    54    55    2
    30    54    53    1
    31    52    42   am
    32    52    53    1
    33    42    43    2
    34    49    47   ar
    35    49    50   ar
    36    47    45   ar
    37    56    53    1
    38    56    57    1
    39    51    50    1
    40    50    48   ar
    41    45    44    1
    42    45    46   ar
    43    48    46   ar
    44    13    12    2
    45    15    14    1
    46    29    28    2
    47    12    11    1
    48    12    17   am
    49    11    14    1
    50    11    10    1
    51     4     3    2
    52    28    30   am
    53    28    27    1
    54    14    16    1
    55     9     7   ar
    56    18    17    1
    57    18    19    1
    58    18    21    1
    59    20    19    2
    60     6     7    1
    61     6     5    1
    62     3    10   am
    63     3     2    1
    64    19    23   am
    65    21    22    1
    66    27    24    1
    67     7     8   ar
    68    23    24    1
    69     5     2    1
    70     2     1    1
    71    24    25    1
    72    38    39    1
    73    38    37    1
    74    25    26    2
    75    25    31   am
    76    37    36    1
    77    36    35    1
    78    31    32    1
    79    35    32    1
    80    32    33    1
    81    33    34    2
