@<TRIPOS>MOLECULE
tmp/5pzkA01.pdb
 162 152 0 0 0
SMALL
GASTEIGER

@<TRIPOS>ATOM
      1  N         23.2940   10.0330   20.3090 N.3   171  PHE171     -0.1241
      2  CA        22.0070    9.8610   19.6350 C.3   171  PHE171      0.1605
      3  C         20.9970   10.9960   19.8440 C.2   171  PHE171      0.2264
      4  O         19.9570   10.9990   19.1840 O.2   171  PHE171     -0.2867
      5  CB        21.3820    8.5100   20.0040 C.3   171  PHE171      0.0534
      6  CG        22.1900    7.3190   19.5280 C.ar  171  PHE171     -0.0203
      7  CD1       22.2160    6.9660   18.1830 C.ar  171  PHE171     -0.0042
      8  CD2       22.8770    6.5150   20.4340 C.ar  171  PHE171     -0.0042
      9  CE1       22.9470    5.8490   17.7480 C.ar  171  PHE171     -0.0003
     10  CE2       23.5730    5.3800   20.0070 C.ar  171  PHE171     -0.0003
     11  CZ        23.6120    5.0540   18.6650 C.ar  171  PHE171     -0.0000
     12  N         21.9290   15.5810   12.4100 N.3   175  PRO175     -0.2116
     13  CA        23.2740   15.7800   11.8170 C.3   175  PRO175      0.1372
     14  C         23.7960   17.2210   11.9320 C.2   175  PRO175      0.2244
     15  O         24.9890   17.4090   12.1590 O.2   175  PRO175     -0.2868
     16  CB        23.0970   15.3380   10.3570 C.3   175  PRO175      0.0268
     17  CG        21.9070   14.4370   10.3800 C.3   175  PRO175      0.0207
     18  CD        20.9790   15.0460   11.4070 C.3   175  PRO175      0.0892
     19  N         25.0200   17.7320   15.5700 N.3   178  ARG178     -0.1245
     20  CA        26.2400   16.9410   15.7720 C.3   178  ARG178      0.1563
     21  C         27.4610   17.6910   15.2360 C.2   178  ARG178      0.2260
     22  O         28.4700   17.7930   15.9390 O.2   178  ARG178     -0.2867
     23  CB        26.1030   15.5630   15.0950 C.3   178  ARG178      0.0307
     24  CG        27.2850   14.6160   15.3630 C.3   178  ARG178      0.0489
     25  CD        27.1220   13.2720   14.6580 C.3   178  ARG178      0.2205
     26  NE        25.7640   12.7400   14.8250 N.pl3 178  ARG178     -0.0865
     27  CZ        25.3140   12.1360   15.9140 C.cat 178  ARG178      0.5346
     28  NH1       26.1300   11.9020   16.9360 N.pl3 178  ARG178      0.1354
     29  NH2       24.0470   11.7570   15.9930 N.pl3 178  ARG178      0.1354
     30  N         30.5240   19.2390   17.5020 N.3   182  LEU182     -0.1245
     31  CA        31.9190   18.9080   17.1950 C.3   182  LEU182      0.1561
     32  C         32.7700   20.1420   16.8980 C.2   182  LEU182      0.2260
     33  O         33.8590   20.2500   17.4190 O.2   182  LEU182     -0.2867
     34  CB        32.0020   17.9130   16.0120 C.3   182  LEU182      0.0270
     35  CG        31.5340   16.4900   16.3040 C.3   182  LEU182      0.0019
     36  CD1       31.3330   15.7110   14.9900 C.3   182  LEU182      0.0001
     37  CD2       32.4990   15.7670   17.2610 C.3   182  LEU182      0.0001
     38  N         32.2140   12.0350   22.6120 N.3   292  LEU292     -0.1231
     39  CA        30.9860   11.8320   21.8800 C.3   292  LEU292      0.1693
     40  C         30.9050   10.3310   21.6410 C.2   292  LEU292      0.2592
     41  O         31.8410    9.7390   21.1160 O.2   292  LEU292     -0.2718
     42  CB        30.9370   12.6610   20.5830 C.3   292  LEU292      0.0284
     43  CG        29.5750   12.7020   19.8610 C.3   292  LEU292      0.0019
     44  CD1       28.4730   13.2640   20.7630 C.3   292  LEU292      0.0001
     45  CD2       29.6880   13.5010   18.5600 C.3   292  LEU292      0.0001
     46  N         29.8140    9.7110   22.1090 N.am  293  VAL293     -0.1966
     47  CA        29.6360    8.2530   22.0970 C.3   293  VAL293      0.1727
     48  C         28.3120    7.8430   21.4490 C.2   293  VAL293      0.2616
     49  O         27.2490    8.3210   21.8630 O.2   293  VAL293     -0.2715
     50  CB        29.7400    7.6690   23.5500 C.3   293  VAL293      0.0290
     51  CG1       29.9350    6.1540   23.5320 C.3   293  VAL293      0.0023
     52  CG2       30.8420    8.3450   24.3760 C.3   293  VAL293      0.0023
     53  N         28.3910    6.9350   20.4600 N.am  294  CYS294     -0.1968
     54  CA        27.2560    6.3120   19.7570 C.3   294  CYS294      0.1712
     55  C         27.5480    4.8390   19.8080 C.2   294  CYS294      0.2296
     56  O         28.3550    4.3650   19.0080 O.2   294  CYS294     -0.2864
     57  CB        27.1710    6.7850   18.3030 C.3   294  CYS294      0.0983
     58  SG        26.5740    8.4700   18.1040 S.3   294  CYS294     -0.0798
     59  N         31.0260    3.3780   19.0910 N.3   297  ASP297     -0.1239
     60  CA        31.7550    4.4300   18.3770 C.3   297  ASP297      0.1674
     61  C         32.0460    5.5890   19.3210 C.2   297  ASP297      0.2266
     62  O         31.1430    6.1480   19.9300 O.2   297  ASP297     -0.2867
     63  CB        30.9840    4.8970   17.1410 C.3   297  ASP297      0.1410
     64  CG        30.7010    3.7850   16.1490 C.2   297  ASP297      0.3668
     65  OD1       31.6470    3.3290   15.4960 O.co2 297  ASP297     -0.2456
     66  OD2       29.5130    3.3910   16.0140 O.co2 297  ASP297     -0.2456
     67  N         34.6300    9.1890   20.0640 N.3   299  VAL299     -0.1245
     68  CA        35.5640   10.2510   19.6880 C.3   299  VAL299      0.1561
     69  C         35.8150   11.1030   20.9310 C.2   299  VAL299      0.2260
     70  O         34.8830   11.4410   21.6690 O.2   299  VAL299     -0.2867
     71  CB        35.1490   11.1200   18.4630 C.3   299  VAL299      0.0252
     72  CG1       36.1210   12.2980   18.2710 C.3   299  VAL299      0.0019
     73  CG2       35.1090   10.2900   17.1900 C.3   299  VAL299      0.0019
     74  N         40.3470   18.5140   12.5500 N.3   338  LEU338     -0.1245
     75  CA        39.0630   17.8520   12.7840 C.3   338  LEU338      0.1561
     76  C         38.5940   16.9840   11.6040 C.2   338  LEU338      0.2260
     77  O         38.0600   15.8950   11.8230 O.2   338  LEU338     -0.2867
     78  CB        37.9930   18.8770   13.1940 C.3   338  LEU338      0.0270
     79  CG        36.5650   18.3610   13.4630 C.3   338  LEU338      0.0019
     80  CD1       36.5400   17.2900   14.6110 C.3   338  LEU338      0.0001
     81  CD2       35.6360   19.5160   13.7770 C.3   338  LEU338      0.0001
     82  N         39.4990   13.0970   11.2840 N.3   341  ILE341     -0.1245
     83  CA        38.9160   12.0970   12.1940 C.3   341  ILE341      0.1561
     84  C         37.7350   11.4320   11.4880 C.2   341  ILE341      0.2260
     85  O         36.8580   12.1230   10.9800 O.2   341  ILE341     -0.2867
     86  CB        38.4910   12.6830   13.5810 C.3   341  ILE341      0.0252
     87  CG1       39.6780   13.3410   14.3070 C.3   341  ILE341      0.0019
     88  CG2       37.8240   11.5960   14.4820 C.3   341  ILE341      0.0019
     89  CD1       39.2950   14.3630   15.4160 C.3   341  ILE341      0.0001
     90  N         34.7360    8.6510   12.1750 N.3   343  SER343     -0.1202
     91  CA        33.9600    7.9510   13.1810 C.3   343  SER343      0.2020
     92  C         32.6080    7.7060   12.5830 C.2   343  SER343      0.2619
     93  O         32.0830    8.5840   11.8770 O.2   343  SER343     -0.2717
     94  CB        33.8470    8.8080   14.4300 C.3   343  SER343      0.2103
     95  OG        33.0340    8.1880   15.4100 O.3   343  SER343     -0.2182
     96  N         32.0380    6.5050   12.8400 N.am  344  CYS344     -0.1969
     97  CA        30.7490    6.0650   12.2730 C.3   344  CYS344      0.1712
     98  C         30.8310    6.2230   10.7180 C.2   344  CYS344      0.2296
     99  O         29.8880    6.7180   10.0810 O.2   344  CYS344     -0.2864
    100  CB        29.5740    6.8440   12.8730 C.3   344  CYS344      0.0983
    101  SG        29.4060    6.6820   14.6740 S.3   344  CYS344     -0.0798
    102  N         32.2090    8.3800    9.0230 N.3   346  SER346     -0.1202
    103  CA        32.0200    9.7560    8.6120 C.3   346  SER346      0.2020
    104  C         33.1110   10.7230    9.0400 C.2   346  SER346      0.2619
    105  O         33.8100   10.4950   10.0170 O.2   346  SER346     -0.2717
    106  CB        30.6670   10.2610    9.1140 C.3   346  SER346      0.2103
    107  OG        29.6630    9.2830    8.8950 O.3   346  SER346     -0.2182
    108  N         33.1990   11.8470    8.3240 N.am  347  ASN347     -0.1960
    109  CA        34.1500   12.9100    8.6190 C.3   347  ASN347      0.1819
    110  C         33.4750   14.2350    8.3610 C.2   347  ASN347      0.2621
    111  O         32.5450   14.3250    7.5590 O.2   347  ASN347     -0.2715
    112  CB        35.4640   12.7620    7.7830 C.3   347  ASN347      0.1195
    113  CG        35.3020   12.9600    6.2850 C.2   347  ASN347      0.2630
    114  OD1       34.8870   12.0560    5.5370 O.2   347  ASN347     -0.2716
    115  ND2       35.6240   14.1600    5.8110 N.am  347  ASN347     -0.0877
    116  N         33.9500   15.2570    9.0480 N.am  348  VAL348     -0.1977
    117  CA        33.4910   16.6200    8.8940 C.3   348  VAL348      0.1596
    118  C         34.1930   17.2050    7.6560 C.2   348  VAL348      0.2287
    119  O         35.3860   16.9970    7.4530 O.2   348  VAL348     -0.2864
    120  CB        33.7740   17.4670   10.1670 C.3   348  VAL348      0.0276
    121  CG1       33.3540   18.9180    9.9750 C.3   348  VAL348      0.0022
    122  CG2       33.0770   16.8760   11.3960 C.3   348  VAL348      0.0022
    123  N         28.7350   16.6730    7.7420 N.3   362  LEU362     -0.1245
    124  CA        29.2660   15.3200    7.8100 C.3   362  LEU362      0.1561
    125  C         29.1050   14.6190    6.4760 C.2   362  LEU362      0.2260
    126  O         28.0430   14.6860    5.8430 O.2   362  LEU362     -0.2867
    127  CB        28.5800   14.5090    8.9170 C.3   362  LEU362      0.0270
    128  CG        28.9720   14.9040   10.3490 C.3   362  LEU362      0.0019
    129  CD1       27.8440   14.5920   11.3310 C.3   362  LEU362      0.0001
    130  CD2       30.2940   14.2610   10.7600 C.3   362  LEU362      0.0001
    131  N         20.1240   11.7510    6.0640 N.3   392  MET392     -0.1230
    132  CA        21.2730   11.9310    6.9340 C.3   392  MET392      0.1702
    133  C         22.4580   12.5980    6.2360 C.2   392  MET392      0.2592
    134  O         23.1940   13.3560    6.8770 O.2   392  MET392     -0.2718
    135  CB        21.6760   10.6030    7.6150 C.3   392  MET392      0.0401
    136  CG        20.5580    9.9580    8.4780 C.3   392  MET392      0.0596
    137  SD        19.6190   11.0710    9.5580 S.3   392  MET392     -0.1393
    138  CE        20.4650   10.8880   11.0510 C.3   392  MET392      0.0692
    139  N         22.6160   12.3710    4.9160 N.am  393  TYR393     -0.1976
    140  CA        23.7080   13.0140    4.1810 C.3   393  TYR393      0.1639
    141  C         23.2330   14.0170    3.1260 C.2   393  TYR393      0.2290
    142  O         23.9700   14.3120    2.1900 O.2   393  TYR393     -0.2864
    143  CB        24.6610   11.9650    3.5720 C.3   393  TYR393      0.0560
    144  CG        25.4000   11.1520    4.6030 C.ar  393  TYR393     -0.0198
    145  CD1       26.5510   11.6480    5.2190 C.ar  393  TYR393     -0.0009
    146  CD2       24.9660    9.8700    4.9540 C.ar  393  TYR393     -0.0009
    147  CE1       27.2510   10.8900    6.1660 C.ar  393  TYR393      0.0417
    148  CE2       25.6660    9.0980    5.8900 C.ar  393  TYR393      0.0417
    149  CZ        26.8010    9.6180    6.4990 C.ar  393  TYR393      0.1957
    150  OH        27.4800    8.8560    7.4270 O.3   393  TYR393     -0.2866
    151  N         19.5140    3.9890   10.9390 N.3   426  TYR426     -0.1241
    152  CA        20.3660    3.4600   12.0120 C.3   426  TYR426      0.1605
    153  C         19.6360    2.3940   12.8630 C.2   426  TYR426      0.2264
    154  O         19.6840    1.2050   12.5080 O.2   426  TYR426     -0.2867
    155  CB        20.9780    4.6040   12.8590 C.3   426  TYR426      0.0534
    156  CG        21.9480    5.4780   12.0780 C.ar  426  TYR426     -0.0201
    157  CD1       23.2420    5.0430   11.8000 C.ar  426  TYR426     -0.0009
    158  CD2       21.5640    6.7320   11.6020 C.ar  426  TYR426     -0.0009
    159  CE1       24.1340    5.8330   11.0640 C.ar  426  TYR426      0.0417
    160  CE2       22.4540    7.5410   10.8830 C.ar  426  TYR426      0.0417
    161  CZ        23.7390    7.0870   10.6140 C.ar  426  TYR426      0.1957
    162  OH        24.6170    7.8690    9.8880 O.3   426  TYR426     -0.2866
@<TRIPOS>BOND
     1   142   141    2
     2   141   140    1
     3   143   140    1
     4   143   144    1
     5   140   139    1
     6   144   146   ar
     7   144   145   ar
     8   139   133   am
     9   146   148   ar
    10   145   147   ar
    11   114   113    2
    12   115   113   am
    13   126   125    2
    14   148   149   ar
    15   131   132    1
    16   147   149   ar
    17   133   134    2
    18   133   132    1
    19   113   112    1
    20   125   124    1
    21   149   150    1
    22   132   135    1
    23   119   118    2
    24   111   110    2
    25   135   136    1
    26   118   117    1
    27   123   124    1
    28   112   109    1
    29   124   127    1
    30   108   109    1
    31   108   104   am
    32   110   109    1
    33   110   116   am
    34   136   137    1
    35   103   102    1
    36   103   104    1
    37   103   106    1
    38   117   116    1
    39   117   120    1
    40   107   106    1
    41   127   128    1
    42   104   105    2
    43   137   138    1
    44   162   161    1
    45   121   120    1
    46    99    98    2
    47   120   122    1
    48   128   130    1
    49   128   129    1
    50    16    17    1
    51    16    13    1
    52    17    18    1
    53   161   160   ar
    54   161   159   ar
    55    98    97    1
    56   160   158   ar
    57   151   152    1
    58    85    84    2
    59   159   157   ar
    60    82    83    1
    61    18    12    1
    62    84    83    1
    63   158   156   ar
    64    76    77    2
    65    76    75    1
    66   157   156   ar
    67    13    14    1
    68    13    12    1
    69    93    92    2
    70    14    15    2
    71   152   155    1
    72   152   153    1
    73   156   155    1
    74    90    91    1
    75    83    86    1
    76    97    96    1
    77    97   100    1
    78   154   153    2
    79    74    75    1
    80    92    96   am
    81    92    91    1
    82    75    78    1
    83   100   101    1
    84    91    94    1
    85    78    79    1
    86    79    81    1
    87    79    80    1
    88    86    87    1
    89    86    88    1
    90    87    89    1
    91    94    95    1
    92    25    26    1
    93    25    24    1
    94    26    27    2
    95    36    35    1
    96    23    24    1
    97    23    20    1
    98    21    20    1
    99    21    22    2
   100    65    64   ar
   101    19    20    1
   102    27    29    1
   103    27    28    1
   104    34    35    1
   105    34    31    1
   106    66    64   ar
   107    64    63    1
   108    35    37    1
   109    32    31    1
   110    32    33    2
   111    63    60    1
   112    73    71    1
   113    31    30    1
   114     9     7   ar
   115     9    11   ar
   116    58    57    1
   117     7     6   ar
   118    72    71    1
   119    57    54    1
   120    60    59    1
   121    60    61    1
   122    71    68    1
   123    45    43    1
   124    11    10   ar
   125    56    55    2
   126     4     3    2
   127    61    62    2
   128     6     5    1
   129     6     8   ar
   130     2     3    1
   131     2     5    1
   132     2     1    1
   133    68    67    1
   134    68    69    1
   135    54    55    1
   136    54    53    1
   137    43    42    1
   138    43    44    1
   139    10     8   ar
   140    53    48   am
   141    42    39    1
   142    69    70    2
   143    41    40    2
   144    48    49    2
   145    48    47    1
   146    40    39    1
   147    40    46   am
   148    39    38    1
   149    47    46    1
   150    47    50    1
   151    51    50    1
   152    50    52    1
