@<TRIPOS>MOLECULE
tmp/5pzlA01.pdb
 202 192 0 0 0
SMALL
GASTEIGER

@<TRIPOS>ATOM
      1  N         21.7190    8.1730   21.5870 N.3   171  PHE171     -0.1241
      2  CA        20.4170    7.9190   20.9420 C.3   171  PHE171      0.1605
      3  C         19.3420    8.9720   21.2650 C.2   171  PHE171      0.2264
      4  O         18.2620    8.9210   20.6950 O.2   171  PHE171     -0.2867
      5  CB        19.9190    6.4820   21.2120 C.3   171  PHE171      0.0534
      6  CG        20.8380    5.4060   20.6550 C.ar  171  PHE171     -0.0203
      7  CD1       21.0990    5.3260   19.2890 C.ar  171  PHE171     -0.0042
      8  CD2       21.4460    4.4780   21.5010 C.ar  171  PHE171     -0.0042
      9  CE1       21.9410    4.3270   18.7790 C.ar  171  PHE171     -0.0003
     10  CE2       22.2430    3.4550   20.9840 C.ar  171  PHE171     -0.0003
     11  CZ        22.4840    3.3860   19.6280 C.ar  171  PHE171     -0.0000
     12  N         20.2030   13.3910   13.8230 N.3   175  PRO175     -0.2116
     13  CA        21.5360   13.6700   13.2420 C.3   175  PRO175      0.1372
     14  C         22.0190   15.1140   13.4360 C.2   175  PRO175      0.2244
     15  O         23.1880   15.3040   13.7420 O.2   175  PRO175     -0.2868
     16  CB        21.3520   13.3180   11.7640 C.3   175  PRO175      0.0268
     17  CG        20.2920   12.2760   11.7940 C.3   175  PRO175      0.0207
     18  CD        19.3170   12.7710   12.8180 C.3   175  PRO175      0.0892
     19  N         23.1210   15.5980   17.0430 N.3   178  ARG178     -0.1245
     20  CA        24.3950   14.8840   17.2090 C.3   178  ARG178      0.1563
     21  C         25.5320   15.7980   16.7050 C.2   178  ARG178      0.2260
     22  O         26.5480   15.9730   17.3880 O.2   178  ARG178     -0.2867
     23  CB        24.3820   13.5440   16.4530 C.3   178  ARG178      0.0307
     24  CG        25.7250   12.8080   16.5370 C.3   178  ARG178      0.0489
     25  CD        25.7400   11.5270   15.7320 C.3   178  ARG178      0.2205
     26  NE        27.0340   10.8480   15.8540 N.pl3 178  ARG178     -0.0865
     27  CZ        27.3250    9.9370   16.7680 C.cat 178  ARG178      0.5346
     28  NH1       26.4140    9.5610   17.6500 N.pl3 178  ARG178      0.1354
     29  NH2       28.5350    9.3980   16.8120 N.pl3 178  ARG178      0.1354
     30  N         32.1880   -6.5170   19.9770 N.3   202  PHE202     -0.1227
     31  CA        31.7250   -6.0600   21.2920 C.3   202  PHE202      0.1736
     32  C         30.8110   -7.0390   22.0210 C.2   202  PHE202      0.2595
     33  O         31.0320   -7.2610   23.2060 O.2   202  PHE202     -0.2718
     34  CB        31.0730   -4.6600   21.2150 C.3   202  PHE202      0.0547
     35  CG        30.8570   -3.9900   22.5570 C.ar  202  PHE202     -0.0202
     36  CD1       29.7360   -4.2860   23.3340 C.ar  202  PHE202     -0.0042
     37  CD2       31.7240   -3.0020   23.0050 C.ar  202  PHE202     -0.0042
     38  CE1       29.5300   -3.6530   24.5680 C.ar  202  PHE202     -0.0003
     39  CE2       31.5010   -2.3510   24.2250 C.ar  202  PHE202     -0.0003
     40  CZ        30.4160   -2.6890   25.0010 C.ar  202  PHE202     -0.0000
     41  N         29.7900   -7.6070   21.3580 N.am  203  ASP203     -0.1974
     42  CA        28.8510   -8.5210   22.0250 C.3   203  ASP203      0.1709
     43  C         29.5440   -9.7180   22.6790 C.2   203  ASP203      0.2293
     44  O         29.2040  -10.0850   23.7990 O.2   203  ASP203     -0.2864
     45  CB        27.7470   -8.9790   21.0620 C.3   203  ASP203      0.1436
     46  CG        26.6680   -7.9420   20.7970 C.2   203  ASP203      0.3671
     47  OD1       26.7260   -6.8470   21.4100 O.co2 203  ASP203     -0.2456
     48  OD2       25.7680   -8.2220   19.9850 O.co2 203  ASP203     -0.2456
     49  N         19.7960   -5.1180   24.8020 N.3   265  THR265     -0.1203
     50  CA        21.0690   -5.0930   24.0580 C.3   265  THR265      0.1994
     51  C         21.6160   -3.6900   23.8610 C.2   265  THR265      0.2618
     52  O         22.7750   -3.4390   24.1900 O.2   265  THR265     -0.2717
     53  CB        20.9670   -5.8500   22.7160 C.3   265  THR265      0.1784
     54  OG1       20.4780   -7.1510   22.9710 O.3   265  THR265     -0.2211
     55  CG2       22.3130   -5.9740   22.0100 C.3   265  THR265      0.0376
     56  N         20.7990   -2.7740   23.3160 N.am  266  SER266     -0.1951
     57  CA        21.2830   -1.4140   23.0520 C.3   266  SER266      0.1924
     58  C         21.6630   -0.6690   24.3530 C.2   266  SER266      0.2314
     59  O         22.7530   -0.1060   24.4450 O.2   266  SER266     -0.2863
     60  CB        20.2570   -0.6240   22.2510 C.3   266  SER266      0.2116
     61  OG        20.7650    0.6710   21.9680 O.3   266  SER266     -0.2180
     62  N         24.6490   -2.4630   26.1420 N.3   269  ASN269     -0.1240
     63  CA        25.9070   -2.1880   25.4420 C.3   269  ASN269      0.1653
     64  C         26.3500   -0.7470   25.6260 C.2   269  ASN269      0.2266
     65  O         27.5380   -0.5080   25.8620 O.2   269  ASN269     -0.2867
     66  CB        25.8450   -2.5600   23.9570 C.3   269  ASN269      0.1155
     67  CG        26.0060   -4.0430   23.7100 C.2   269  ASN269      0.2627
     68  OD1       26.4560   -4.8120   24.5530 O.2   269  ASN269     -0.2716
     69  ND2       25.6930   -4.4730   22.5250 N.am  269  ASN269     -0.0877
     70  N         26.9030    5.3020   21.5290 N.3   294  CYS294     -0.1221
     71  CA        25.7610    4.6690   20.8440 C.3   294  CYS294      0.1808
     72  C         26.0570    3.1860   20.7980 C.2   294  CYS294      0.2602
     73  O         26.7620    2.7610   19.8940 O.2   294  CYS294     -0.2717
     74  CB        25.5920    5.2140   19.4240 C.3   294  CYS294      0.0970
     75  SG        24.9390    6.8960   19.3390 S.3   294  CYS294     -0.0800
     76  N         25.5530    2.4100   21.7560 N.am  295  GLY295     -0.1942
     77  CA        25.8500    0.9800   21.8040 C.3   295  GLY295      0.2014
     78  C         27.3420    0.7700   21.9650 C.2   295  GLY295      0.2639
     79  O         27.9560    1.3300   22.8720 O.2   295  GLY295     -0.2714
     80  N         27.9440    0.0500   21.0320 N.am  296  ASP296     -0.1957
     81  CA        29.3910   -0.1900   21.0150 C.3   296  ASP296      0.1840
     82  C         30.1510    0.9370   20.2910 C.2   296  ASP296      0.2622
     83  O         31.3810    0.8810   20.1950 O.2   296  ASP296     -0.2715
     84  CB        29.6750   -1.5460   20.3340 C.3   296  ASP296      0.1450
     85  CG        29.4100   -1.6110   18.8300 C.2   296  ASP296      0.3671
     86  OD1       28.4410   -0.9560   18.3570 O.co2 296  ASP296     -0.2456
     87  OD2       30.1350   -2.3530   18.1340 O.co2 296  ASP296     -0.2456
     88  N         29.4210    1.9490   19.7450 N.am  297  ASP297     -0.1971
     89  CA        30.0700    3.0330   19.0080 C.3   297  ASP297      0.1709
     90  C         30.5160    4.1230   19.9750 C.2   297  ASP297      0.2293
     91  O         29.6920    4.7170   20.6740 O.2   297  ASP297     -0.2864
     92  CB        29.1640    3.5820   17.8880 C.3   297  ASP297      0.1436
     93  CG        29.8760    4.5510   16.9610 C.2   297  ASP297      0.3671
     94  OD1       30.0840    5.7260   17.3680 O.co2 297  ASP297     -0.2456
     95  OD2       30.2250    4.1450   15.8380 O.co2 297  ASP297     -0.2456
     96  N         29.5560    6.3750   14.2610 N.3   344  CYS344     -0.1221
     97  CA        28.2380    5.9090   13.7890 C.3   344  CYS344      0.1808
     98  C         28.2080    5.9390   12.2440 C.2   344  CYS344      0.2602
     99  O         27.2280    6.3680   11.6380 O.2   344  CYS344     -0.2717
    100  CB        27.0880    6.7000   14.4110 C.3   344  CYS344      0.0970
    101  SG        26.6580    6.1660   16.0840 S.3   344  CYS344     -0.0800
    102  N         29.3480    5.5160   11.6230 N.am  345  SER345     -0.1938
    103  CA        29.6130    5.4410   10.1800 C.3   345  SER345      0.2055
    104  C         29.4380    6.8070    9.4880 C.2   345  SER345      0.2643
    105  O         29.2620    6.8620    8.2800 O.2   345  SER345     -0.2714
    106  CB        28.6940    4.4060    9.5280 C.3   345  SER345      0.2130
    107  OG        28.7210    3.1720   10.2200 O.3   345  SER345     -0.2179
    108  N         29.5080    7.8980   10.2530 N.am  346  SER346     -0.1949
    109  CA        29.2440    9.2450    9.7640 C.3   346  SER346      0.1924
    110  C         30.3000   10.2660   10.1570 C.2   346  SER346      0.2314
    111  O         31.0250   10.0630   11.1250 O.2   346  SER346     -0.2863
    112  CB        27.8830    9.7030   10.3010 C.3   346  SER346      0.2116
    113  OG        26.8500    8.7680   10.0490 O.3   346  SER346     -0.2180
    114  N         25.3530   16.2100    9.0360 N.3   362  LEU362     -0.1245
    115  CA        25.9630   14.8890    9.0900 C.3   362  LEU362      0.1561
    116  C         25.8820   14.1910    7.7530 C.2   362  LEU362      0.2260
    117  O         24.8170   14.1350    7.1310 O.2   362  LEU362     -0.2867
    118  CB        25.2700   14.0470   10.1730 C.3   362  LEU362      0.0270
    119  CG        26.0790   12.8900   10.7310 C.3   362  LEU362      0.0019
    120  CD1       27.2680   13.3700   11.5770 C.3   362  LEU362      0.0001
    121  CD2       25.1880   11.9890   11.5310 C.3   362  LEU362      0.0001
    122  N         16.0500    0.6710    3.5420 N.3   385  SER385     -0.1217
    123  CA        17.1840    1.4460    4.0310 C.3   385  SER385      0.1889
    124  C         17.2350    2.8010    3.3330 C.2   385  SER385      0.2288
    125  O         17.6840    3.7570    3.9540 O.2   385  SER385     -0.2866
    126  CB        18.5000    0.6990    3.8180 C.3   385  SER385      0.2089
    127  OG        18.8510    0.6700    2.4450 O.3   385  SER385     -0.2183
    128  N         15.1190    5.3300    5.3810 N.3   388  GLY388     -0.1210
    129  CA        15.8550    5.7440    6.5680 C.3   388  GLY388      0.1956
    130  C         17.0120    6.6600    6.2040 C.2   388  GLY388      0.2611
    131  O         17.2450    7.6600    6.8820 O.2   388  GLY388     -0.2717
    132  N         17.7150    6.3590    5.0900 N.am  389  ASN389     -0.1974
    133  CA        18.8300    7.2090    4.6360 C.3   389  ASN389      0.1688
    134  C         18.3440    8.5890    4.1850 C.2   389  ASN389      0.2292
    135  O         18.9880    9.5750    4.5070 O.2   389  ASN389     -0.2864
    136  CB        19.6910    6.5000    3.5670 C.3   389  ASN389      0.1181
    137  CG        20.6170    5.4780    4.1650 C.2   389  ASN389      0.2629
    138  OD1       21.2340    5.7090    5.2050 O.2   389  ASN389     -0.2716
    139  ND2       20.7280    4.3080    3.5430 N.am  389  ASN389     -0.0877
    140  N         17.5630   10.4630    7.6390 N.3   392  MET392     -0.1230
    141  CA        18.7200   10.7500    8.4850 C.3   392  MET392      0.1702
    142  C         19.7500   11.5980    7.7780 C.2   392  MET392      0.2592
    143  O         20.4140   12.4010    8.4260 O.2   392  MET392     -0.2718
    144  CB        19.3510    9.4380    8.9790 C.3   392  MET392      0.0401
    145  CG        18.3830    8.6140    9.8200 C.3   392  MET392      0.0596
    146  SD        18.0090    9.3940   11.4090 S.3   392  MET392     -0.1393
    147  CE        19.3700    8.7220   12.3730 C.3   392  MET392      0.0692
    148  N         19.8640   11.4280    6.4600 N.am  393  TYR393     -0.1976
    149  CA        20.8280   12.1640    5.6360 C.3   393  TYR393      0.1639
    150  C         20.1920   13.1340    4.6690 C.2   393  TYR393      0.2290
    151  O         20.8360   13.5220    3.6870 O.2   393  TYR393     -0.2864
    152  CB        21.7590   11.1770    4.9040 C.3   393  TYR393      0.0560
    153  CG        22.6050   10.3410    5.8400 C.ar  393  TYR393     -0.0198
    154  CD1       23.6530   10.9060    6.5610 C.ar  393  TYR393     -0.0009
    155  CD2       22.3880    8.9760    5.9670 C.ar  393  TYR393     -0.0009
    156  CE1       24.4350   10.1380    7.4260 C.ar  393  TYR393      0.0417
    157  CE2       23.1770    8.1930    6.8050 C.ar  393  TYR393      0.0417
    158  CZ        24.1890    8.7820    7.5460 C.ar  393  TYR393      0.1957
    159  OH        24.9760    8.0080    8.3420 O.3   393  TYR393     -0.2866
    160  N         14.0150    1.4530    9.6250 N.3   424  GLN424     -0.1231
    161  CA        14.5920    1.3360   10.9630 C.3   424  GLN424      0.1698
    162  C         15.3630    2.5780   11.3460 C.2   424  GLN424      0.2592
    163  O         16.2520    2.9800   10.6170 O.2   424  GLN424     -0.2718
    164  CB        15.5200    0.1200   11.0650 C.3   424  GLN424      0.0381
    165  CG        14.8570   -1.2230   10.8170 C.3   424  GLN424      0.0905
    166  CD        14.3870   -1.8850   12.0780 C.2   424  GLN424      0.2608
    167  OE1       13.2040   -2.2110   12.2250 O.2   424  GLN424     -0.2717
    168  NE2       15.3090   -2.1410   12.9920 N.am  424  GLN424     -0.0878
    169  N         15.0390    3.1820   12.4950 N.am  425  ILE425     -0.1966
    170  CA        15.7530    4.3410   13.0100 C.3   425  ILE425      0.1727
    171  C         16.1030    4.0170   14.4760 C.2   425  ILE425      0.2616
    172  O         15.2100    3.7780   15.2940 O.2   425  ILE425     -0.2715
    173  CB        14.9830    5.6780   12.8300 C.3   425  ILE425      0.0290
    174  CG1       14.8870    6.0650   11.3220 C.3   425  ILE425      0.0022
    175  CG2       15.6870    6.7960   13.6070 C.3   425  ILE425      0.0023
    176  CD1       13.7420    6.9640   10.9700 C.3   425  ILE425      0.0001
    177  N         17.4080    3.9530   14.7740 N.am  426  TYR426     -0.1960
    178  CA        17.9320    3.6370   16.1040 C.3   426  TYR426      0.1771
    179  C         17.3370    2.3140   16.6290 C.2   426  TYR426      0.2620
    180  O         16.8580    2.2250   17.7640 O.2   426  TYR426     -0.2715
    181  CB        17.7380    4.8210   17.0750 C.3   426  TYR426      0.0574
    182  CG        18.6300    6.0300   16.8540 C.ar  426  TYR426     -0.0198
    183  CD1       19.7620    5.9520   16.0450 C.ar  426  TYR426     -0.0009
    184  CD2       18.4180    7.2110   17.5640 C.ar  426  TYR426     -0.0009
    185  CE1       20.6090    7.0470   15.8820 C.ar  426  TYR426      0.0417
    186  CE2       19.2690    8.3000   17.4250 C.ar  426  TYR426      0.0417
    187  CZ        20.3490    8.2240   16.5670 C.ar  426  TYR426      0.1957
    188  OH        21.1660    9.3230   16.4630 O.3   426  TYR426     -0.2866
    189  N         17.3140    1.3240   15.7450 N.am  427  GLY427     -0.1954
    190  CA        16.8330   -0.0170   16.0470 C.3   427  GLY427      0.1869
    191  C         15.3330   -0.2140   16.0730 C.2   427  GLY427      0.2309
    192  O         14.8950   -1.3630   16.0970 O.2   427  GLY427     -0.2863
    193  N         17.7990    3.9340   21.8470 N.3   532  GLY532     -0.1225
    194  CA        18.1480    2.9260   20.8590 C.3   532  GLY532      0.1811
    195  C         17.4840    1.6280   21.2720 C.2   532  GLY532      0.2280
    196  O         17.3900    1.3200   22.4600 O.2   532  GLY532     -0.2866
    197  N         18.0880   -1.3520   19.1490 N.3   534  SER534     -0.1217
    198  CA        18.6590   -2.3560   18.2320 C.3   534  SER534      0.1889
    199  C         18.4030   -3.7930   18.7500 C.2   534  SER534      0.2288
    200  O         18.7410   -4.1030   19.8940 O.2   534  SER534     -0.2866
    201  CB        20.1510   -2.1100   18.0280 C.3   534  SER534      0.2089
    202  OG        20.5090   -2.4050   16.6910 O.3   534  SER534     -0.2183
@<TRIPOS>BOND
     1   127   126    1
     2   124   125    2
     3   124   123    1
     4   122   123    1
     5   139   137   am
     6   136   137    1
     7   136   133    1
     8   151   150    2
     9   126   123    1
    10   137   138    2
    11   134   135    2
    12   134   133    1
    13   133   132    1
    14   150   149    1
    15   152   149    1
    16   152   153    1
    17   132   130   am
    18   128   129    1
    19   149   148    1
    20   153   155   ar
    21   153   154   ar
    22   155   157   ar
    23   130   129    1
    24   130   131    2
    25   148   142   am
    26   154   156   ar
    27   157   158   ar
    28   117   116    2
    29   156   158   ar
    30   158   159    1
    31   140   141    1
    32   116   115    1
    33   142   143    2
    34   142   141    1
    35   105   104    2
    36   141   144    1
    37   144   145    1
    38   114   115    1
    39   115   118    1
    40   104   103    1
    41   104   108   am
    42   106   103    1
    43   106   107    1
    44   160   161    1
    45   109   110    1
    46   109   108    1
    47   109   112    1
    48   145   146    1
    49   113   112    1
    50   110   111    2
    51   118   119    1
    52   103   102    1
    53   163   162    2
    54   119   121    1
    55   119   120    1
    56   165   164    1
    57   165   166    1
    58   161   164    1
    59   161   162    1
    60   176   174    1
    61   174   173    1
    62   162   169   am
    63   146   147    1
    64   102    98   am
    65    99    98    2
    66    16    17    1
    67    16    13    1
    68    17    18    1
    69   166   167    2
    70   166   168   am
    71    98    97    1
    72   169   170    1
    73    18    12    1
    74   173   170    1
    75   173   175    1
    76   170   171    1
    77    13    14    1
    78    13    12    1
    79    14    15    2
    80    97    96    1
    81    97   100    1
    82   100   101    1
    83   171   177   am
    84   171   172    2
    85   177   178    1
    86    25    26    1
    87    25    24    1
    88   189   190    1
    89   189   179   am
    90    95    93   ar
    91    26    27    2
    92   185   183   ar
    93   185   187   ar
    94   183   182   ar
    95   190   191    1
    96   191   192    2
    97   178   179    1
    98   178   181    1
    99    23    24    1
   100    23    20    1
   101   188   187    1
   102   187   186   ar
   103   179   180    2
   104   202   201    1
   105    21    20    1
   106    21    22    2
   107    27    29    1
   108    27    28    1
   109   182   181    1
   110   182   184   ar
   111    93    94   ar
   112    93    92    1
   113    19    20    1
   114   186   184   ar
   115    92    89    1
   116   201   198    1
   117    87    85   ar
   118   198   199    1
   119   198   197    1
   120    86    85   ar
   121   199   200    2
   122     9     7   ar
   123     9    11   ar
   124    85    84    1
   125    89    88    1
   126    89    90    1
   127     7     6   ar
   128    75    74    1
   129    74    71    1
   130    11    10   ar
   131    88    82   am
   132    73    72    2
   133    90    91    2
   134    30    31    1
   135    48    46   ar
   136    83    82    2
   137    82    81    1
   138    84    81    1
   139     6     5    1
   140     6     8   ar
   141     4     3    2
   142    46    45    1
   143    46    47   ar
   144    72    71    1
   145    72    76   am
   146    71    70    1
   147   194   195    1
   148   194   193    1
   149     2     5    1
   150     2     3    1
   151     2     1    1
   152    10     8   ar
   153    81    80    1
   154    80    78   am
   155    45    42    1
   156    34    31    1
   157    34    35    1
   158   195   196    2
   159    31    32    1
   160    41    32   am
   161    41    42    1
   162    76    77    1
   163    77    78    1
   164    78    79    2
   165    61    60    1
   166    55    53    1
   167    32    33    2
   168    42    43    1
   169    60    57    1
   170    69    67   am
   171    35    37   ar
   172    35    36   ar
   173    43    44    2
   174    53    54    1
   175    53    50    1
   176    37    39   ar
   177    57    56    1
   178    57    58    1
   179    56    51   am
   180    36    38   ar
   181    67    66    1
   182    67    68    2
   183    51    50    1
   184    51    52    2
   185    66    63    1
   186    50    49    1
   187    39    40   ar
   188    58    59    2
   189    38    40   ar
   190    63    64    1
   191    63    62    1
   192    64    65    2
