@<TRIPOS>MOLECULE
tmp/5pzlA00.pdb
 150 147 0 0 0
SMALL
GASTEIGER

@<TRIPOS>ATOM
      1  N         28.1070   -5.8150   -5.5930 N.3    15  VAL15      -0.1245
      2  CA        27.2500   -5.7450   -4.4140 C.3    15  VAL15       0.1561
      3  C         26.7680   -7.1390   -3.9820 C.2    15  VAL15       0.2260
      4  O         26.1250   -7.8420   -4.7650 O.2    15  VAL15      -0.2867
      5  CB        26.0700   -4.7630   -4.6260 C.3    15  VAL15       0.0252
      6  CG1       25.1640   -4.6920   -3.4010 C.3    15  VAL15       0.0019
      7  CG2       26.6380   -3.3650   -4.8830 C.3    15  VAL15       0.0019
      8  N         24.0070    3.5560   -1.3580 N.3   370  LEU370     -0.1231
      9  CA        23.6400    3.3940   -2.7820 C.3   370  LEU370      0.1693
     10  C         23.4990    1.9250   -3.1980 C.2   370  LEU370      0.2591
     11  O         22.5270    1.5820   -3.8800 O.2   370  LEU370     -0.2718
     12  CB        24.5800    4.1560   -3.7380 C.3   370  LEU370      0.0284
     13  CG        24.6730    5.6890   -3.5630 C.3   370  LEU370      0.0019
     14  CD1       25.4200    6.3190   -4.7160 C.3   370  LEU370      0.0001
     15  CD2       23.3000    6.3570   -3.4190 C.3   370  LEU370      0.0001
     16  N         24.4070    1.0520   -2.6990 N.am  371  ALA371     -0.1980
     17  CA        24.3980   -0.3970   -2.9710 C.3   371  ALA371      0.1597
     18  C         23.1610   -1.0650   -2.3980 C.2   371  ALA371      0.2287
     19  O         22.4780   -1.8320   -3.0960 O.2   371  ALA371     -0.2864
     20  CB        25.6520   -1.0380   -2.3920 C.3   371  ALA371      0.0319
     21  N         20.3720    0.5310   -1.5960 N.3   373  ALA373     -0.1231
     22  CA        19.2240    1.0960   -2.3370 C.3   373  ALA373      0.1694
     23  C         19.0510    0.3590   -3.6680 C.2   373  ALA373      0.2591
     24  O         17.9270    0.0540   -4.0480 O.2   373  ALA373     -0.2718
     25  CB        19.4290    2.5730   -2.5830 C.3   373  ALA373      0.0304
     26  N         20.1630    0.0240   -4.3450 N.am  374  ALA374     -0.1980
     27  CA        20.1320   -0.6910   -5.6180 C.3   374  ALA374      0.1597
     28  C         19.5390   -2.1030   -5.4060 C.2   374  ALA374      0.2287
     29  O         18.6770   -2.5350   -6.1690 O.2   374  ALA374     -0.2864
     30  CB        21.5300   -0.7620   -6.2060 C.3   374  ALA374      0.0319
     31  N         15.6940   -1.6410   -4.9240 N.3   377  THR377     -0.1218
     32  CA        14.9170   -1.3000   -6.1300 C.3   377  THR377      0.1862
     33  C         14.7200   -2.5680   -6.9560 C.2   377  THR377      0.2287
     34  O         13.6740   -2.7260   -7.5730 O.2   377  THR377     -0.2866
     35  CB        15.5760   -0.2270   -7.0260 C.3   377  THR377      0.1770
     36  OG1       16.8230   -0.6740   -7.5480 O.3   377  THR377     -0.2211
     37  CG2       15.7690    1.0460   -6.3480 C.3   377  THR377      0.0375
     38  N         20.3960   11.9610   -5.5670 N.3   402  ILE402     -0.1231
     39  CA        20.2440   10.5870   -6.0620 C.3   402  ILE402      0.1692
     40  C         19.0970    9.8460   -5.3970 C.2   402  ILE402      0.2591
     41  O         18.2230    9.3740   -6.1080 O.2   402  ILE402     -0.2718
     42  CB        21.5730    9.7850   -5.9900 C.3   402  ILE402      0.0266
     43  CG1       22.7020   10.5230   -6.7510 C.3   402  ILE402      0.0019
     44  CG2       21.4040    8.3770   -6.5610 C.3   402  ILE402      0.0020
     45  CD1       23.8050   10.8880   -5.8970 C.3   402  ILE402      0.0001
     46  N         19.1080    9.6940   -4.0550 N.am  403  LEU403     -0.1980
     47  CA        18.0610    8.8890   -3.4120 C.3   403  LEU403      0.1596
     48  C         16.6720    9.4810   -3.5830 C.2   403  LEU403      0.2287
     49  O         15.7590    8.7660   -3.9940 O.2   403  LEU403     -0.2864
     50  CB        18.3600    8.5830   -1.9340 C.3   403  LEU403      0.0297
     51  CG        19.5960    7.7440   -1.5990 C.3   403  LEU403      0.0022
     52  CD1       19.6990    7.5300   -0.0940 C.3   403  LEU403      0.0001
     53  CD2       19.5630    6.3680   -2.2840 C.3   403  LEU403      0.0001
     54  N         15.5910    9.1830   -7.4750 N.3   406  HIS406     -0.1226
     55  CA        15.3500    7.8190   -7.9130 C.3   406  HIS406      0.1752
     56  C         14.0900    7.2170   -7.2920 C.2   406  HIS406      0.2596
     57  O         13.2710    6.6410   -8.0080 O.2   406  HIS406     -0.2718
     58  CB        16.5700    6.9360   -7.6310 C.3   406  HIS406      0.0759
     59  CG        16.4220    5.5530   -8.1720 C.ar  406  HIS406      0.0818
     60  ND1       16.6030    5.2880   -9.5080 N.ar  406  HIS406     -0.2268
     61  CD2       16.0660    4.4090   -7.5490 C.ar  406  HIS406      0.1154
     62  CE1       16.3600    3.9980   -9.6600 C.ar  406  HIS406      0.1986
     63  NE2       16.0440    3.4280   -8.5110 N.ar  406  HIS406     -0.2212
     64  N         13.9240    7.3640   -5.9700 N.am  407  PHE407     -0.1976
     65  CA        12.7980    6.7260   -5.3110 C.3   407  PHE407      0.1639
     66  C         11.5000    7.4440   -5.5470 C.2   407  PHE407      0.2290
     67  O         10.4990    6.7630   -5.7430 O.2   407  PHE407     -0.2864
     68  CB        13.0810    6.4650   -3.8310 C.3   407  PHE407      0.0560
     69  CG        14.0220    5.2870   -3.7420 C.ar  407  PHE407     -0.0200
     70  CD1       13.5510    3.9840   -3.9100 C.ar  407  PHE407     -0.0042
     71  CD2       15.3950    5.4810   -3.6070 C.ar  407  PHE407     -0.0042
     72  CE1       14.4300    2.8950   -3.8770 C.ar  407  PHE407     -0.0003
     73  CE2       16.2700    4.3930   -3.6050 C.ar  407  PHE407     -0.0003
     74  CZ        15.7760    3.1070   -3.6990 C.ar  407  PHE407     -0.0000
     75  N         30.3000    2.8870   -9.0440 N.3   470  LEU470     -0.1231
     76  CA        29.1310    2.0180   -9.0390 C.3   470  LEU470      0.1693
     77  C         28.3340    1.9760  -10.3690 C.2   470  LEU470      0.2593
     78  O         27.3770    1.2100  -10.4740 O.2   470  LEU470     -0.2718
     79  CB        28.2210    2.3960   -7.8490 C.3   470  LEU470      0.0284
     80  CG        28.8100    2.2110   -6.4500 C.3   470  LEU470      0.0019
     81  CD1       27.8850    2.7790   -5.3820 C.3   470  LEU470      0.0001
     82  CD2       29.0640    0.7530   -6.1610 C.3   470  LEU470      0.0001
     83  N         28.7550    2.7450  -11.3630 N.am  471  GLY471     -0.1942
     84  CA        28.1020    2.8000  -12.6700 C.3   471  GLY471      0.2014
     85  C         26.8000    3.5820  -12.6720 C.2   471  GLY471      0.2639
     86  O         25.9220    3.3690  -13.5220 O.2   471  GLY471     -0.2714
     87  N         26.6940    4.5270  -11.7350 N.am  472  VAL472     -0.1963
     88  CA        25.5220    5.3930  -11.5830 C.3   472  VAL472      0.1712
     89  C         25.7090    6.6240  -12.4640 C.2   472  VAL472      0.2458
     90  O         26.8220    7.1530  -12.5110 O.2   472  VAL472     -0.2730
     91  CB        25.2570    5.7770  -10.0960 C.3   472  VAL472      0.0289
     92  CG1       23.8970    6.4550   -9.9250 C.3   472  VAL472      0.0023
     93  CG2       25.3650    4.5730   -9.1750 C.3   472  VAL472      0.0023
     94  N         24.6450    7.1290  -13.1480 N.am  473  PRO473     -0.2716
     95  CA        24.8170    8.3380  -13.9690 C.3   473  PRO473      0.1521
     96  C         25.3590    9.5330  -13.1660 C.2   473  PRO473      0.2440
     97  O         25.1610    9.5940  -11.9480 O.2   473  PRO473     -0.2731
     98  CB        23.4120    8.6260  -14.5100 C.3   473  PRO473      0.0310
     99  CG        22.4890    7.7800  -13.7330 C.3   473  PRO473      0.0237
    100  CD        23.2680    6.6060  -13.2520 C.3   473  PRO473      0.0939
    101  N         26.0740   10.4760  -13.8240 N.am  474  PRO474     -0.2727
    102  CA        26.6260   11.6330  -13.0830 C.3   474  PRO474      0.1402
    103  C         25.5610   12.5880  -12.5340 C.2   474  PRO474      0.2269
    104  O         24.4070   12.5320  -12.9500 O.2   474  PRO474     -0.2865
    105  CB        27.4930   12.3170  -14.1350 C.3   474  PRO474      0.0296
    106  CG        26.8080   11.9810  -15.4500 C.3   474  PRO474      0.0237
    107  CD        26.4170   10.5460  -15.2670 C.3   474  PRO474      0.0939
    108  N         24.7960   15.6950  -13.1120 N.3   476  ARG476     -0.1231
    109  CA        24.0350   16.4500  -14.1280 C.3   476  ARG476      0.1694
    110  C         22.7910   15.6920  -14.6410 C.2   476  ARG476      0.2592
    111  O         21.7850   16.3320  -14.9570 O.2   476  ARG476     -0.2718
    112  CB        24.9410   16.8860  -15.3030 C.3   476  ARG476      0.0321
    113  CG        25.5170   15.7320  -16.1310 C.3   476  ARG476      0.0489
    114  CD        26.6300   16.1560  -17.0730 C.3   476  ARG476      0.2205
    115  NE        27.9280   15.6960  -16.5650 N.pl3 476  ARG476     -0.0865
    116  CZ        28.6650   14.7270  -17.0970 C.cat 476  ARG476      0.5346
    117  NH1       28.2680   14.1110  -18.2000 N.pl3 476  ARG476      0.1354
    118  NH2       29.8180   14.3790  -16.5390 N.pl3 476  ARG476      0.1354
    119  N         22.8620   14.3430  -14.7210 N.am  477  VAL477     -0.1966
    120  CA        21.7390   13.5140  -15.1780 C.3   477  VAL477      0.1727
    121  C         20.6470   13.5590  -14.1170 C.2   477  VAL477      0.2616
    122  O         19.4680   13.6560  -14.4600 O.2   477  VAL477     -0.2715
    123  CB        22.1610   12.0560  -15.5150 C.3   477  VAL477      0.0290
    124  CG1       20.9500   11.1680  -15.7970 C.3   477  VAL477      0.0023
    125  CG2       23.1020   12.0290  -16.7060 C.3   477  VAL477      0.0023
    126  N         21.0470   13.4950  -12.8180 N.am  478  TRP478     -0.1974
    127  CA        20.0870   13.5210  -11.7240 C.3   478  TRP478      0.1640
    128  C         19.3170   14.8380  -11.6640 C.2   478  TRP478      0.2290
    129  O         18.1310   14.8100  -11.3580 O.2   478  TRP478     -0.2864
    130  CB        20.7520   13.1610  -10.3900 C.3   478  TRP478      0.0576
    131  CG        21.2360   11.7400  -10.3800 C.ar  478  TRP478      0.0006
    132  CD1       22.5140   11.3070  -10.5770 C.ar  478  TRP478      0.0946
    133  CD2       20.4200   10.5650  -10.3200 C.ar  478  TRP478      0.0152
    134  NE1       22.5530    9.9290  -10.6090 N.ar  478  TRP478     -0.2442
    135  CE2       21.2820    9.4470  -10.4380 C.ar  478  TRP478      0.0810
    136  CE3       19.0420   10.3430  -10.1760 C.ar  478  TRP478      0.0012
    137  CZ2       20.8050    8.1330  -10.4250 C.ar  478  TRP478      0.0191
    138  CZ3       18.5790    9.0370  -10.1270 C.ar  478  TRP478      0.0001
    139  CH2       19.4560    7.9530  -10.2490 C.ar  478  TRP478      0.0015
    140  N         16.5870   14.6130  -14.3150 N.3   481  ARG481     -0.1245
    141  CA        15.5500   13.6940  -13.8370 C.3   481  ARG481      0.1563
    142  C         14.6840   14.3150  -12.7360 C.2   481  ARG481      0.2260
    143  O         13.4670   14.1580  -12.7570 O.2   481  ARG481     -0.2867
    144  CB        16.1670   12.3630  -13.3700 C.3   481  ARG481      0.0307
    145  CG        16.7060   11.5270  -14.5130 C.3   481  ARG481      0.0489
    146  CD        17.3510   10.2590  -14.0070 C.3   481  ARG481      0.2205
    147  NE        17.9200    9.5090  -15.1220 N.pl3 481  ARG481     -0.0865
    148  CZ        18.5430    8.3460  -15.0030 C.cat 481  ARG481      0.5346
    149  NH1       18.6770    7.7730  -13.8110 N.pl3 481  ARG481      0.1354
    150  NH2       19.0380    7.7460  -16.0700 N.pl3 481  ARG481      0.1354
@<TRIPOS>BOND
     1   117   116    1
     2   116   115    2
     3   116   118    1
     4   114   115    1
     5   114   113    1
     6   125   123    1
     7   113   112    1
     8   150   148    1
     9   124   123    1
    10   123   120    1
    11   106   107    1
    12   106   105    1
    13   112   109    1
    14   107   101    1
    15   120   119    1
    16   120   121    1
    17   147   148    2
    18   147   146    1
    19   148   149    1
    20   111   110    2
    21   119   110   am
    22   110   109    1
    23   145   146    1
    24   145   144    1
    25    98    95    1
    26    98    99    1
    27   122   121    2
    28   140   141    1
    29   105   102    1
    30   109   108    1
    31   121   126   am
    32    95    96    1
    33    95    94    1
    34   141   144    1
    35   141   142    1
    36   101    96   am
    37   101   102    1
    38    99   100    1
    39    86    85    2
    40   100    94    1
    41    96    97    2
    42    94    89   am
    43   102   103    1
    44   104   103    2
    45   126   127    1
    46   143   142    2
    47    85    84    1
    48    85    87   am
    49    84    83    1
    50    90    89    2
    51    89    88    1
    52    87    88    1
    53   127   128    1
    54   127   130    1
    55   128   129    2
    56    88    91    1
    57    83    77   am
    58   134   132   ar
    59   134   135   ar
    60   132   131   ar
    61    78    77    2
    62   135   137   ar
    63   135   133   ar
    64   137   139   ar
    65   130   131    1
    66   131   133   ar
    67    77    76    1
    68   133   136   ar
    69   139   138   ar
    70   136   138   ar
    71    91    92    1
    72    91    93    1
    73    62    60   ar
    74    62    63   ar
    75    60    59   ar
    76    75    76    1
    77    76    79    1
    78    63    61   ar
    79    59    58    1
    80    59    61   ar
    81    57    56    2
    82    55    58    1
    83    55    54    1
    84    55    56    1
    85    79    80    1
    86    34    33    2
    87    36    35    1
    88    56    64   am
    89    35    37    1
    90    35    32    1
    91    33    32    1
    92    43    42    1
    93    43    45    1
    94    44    42    1
    95    80    82    1
    96    80    81    1
    97    30    27    1
    98    29    28    2
    99    32    31    1
   100    41    40    2
   101    39    42    1
   102    39    38    1
   103    39    40    1
   104    64    65    1
   105    67    66    2
   106    27    28    1
   107    27    26    1
   108     1     2    1
   109    66    65    1
   110    40    46   am
   111    65    68    1
   112     7     5    1
   113     4     3    2
   114    14    13    1
   115     5     2    1
   116     5     6    1
   117     2     3    1
   118    26    23   am
   119    46    47    1
   120    24    23    2
   121    49    48    2
   122    70    72   ar
   123    70    69   ar
   124    11    10    2
   125    72    74   ar
   126    68    69    1
   127    69    71   ar
   128    12    13    1
   129    12     9    1
   130    74    73   ar
   131    23    22    1
   132    71    73   ar
   133    48    47    1
   134    13    15    1
   135    47    50    1
   136    10     9    1
   137    10    16   am
   138    19    18    2
   139    17    16    1
   140    17    18    1
   141    17    20    1
   142     9     8    1
   143    25    22    1
   144    22    21    1
   145    53    51    1
   146    50    51    1
   147    51    52    1
