@<TRIPOS>MOLECULE
tmp/5pzmB01.pdb
 169 158 0 0 0
SMALL
GASTEIGER

@<TRIPOS>ATOM
      1  N         21.9760    6.3130   65.8240 N.3   171  PHE171     -0.1241
      2  CA        22.6040    5.1410   66.4120 C.3   171  PHE171      0.1605
      3  C         24.1100    5.0840   66.2500 C.2   171  PHE171      0.2264
      4  O         24.7220    4.1980   66.8340 O.2   171  PHE171     -0.2867
      5  CB        21.9480    3.8520   65.8990 C.3   171  PHE171      0.0534
      6  CG        20.4920    3.7310   66.2820 C.ar  171  PHE171     -0.0203
      7  CD1       20.1110    3.6270   67.6180 C.ar  171  PHE171     -0.0042
      8  CD2       19.5000    3.7200   65.3120 C.ar  171  PHE171     -0.0042
      9  CE1       18.7640    3.5040   67.9700 C.ar  171  PHE171     -0.0003
     10  CE2       18.1570    3.5920   65.6700 C.ar  171  PHE171     -0.0003
     11  CZ        17.7970    3.4850   66.9940 C.ar  171  PHE171     -0.0000
     12  N         26.1010   12.0630   71.2940 N.3   178  ARG178     -0.1245
     13  CA        24.7430   12.5040   71.0200 C.3   178  ARG178      0.1563
     14  C         24.5700   13.8980   71.6260 C.2   178  ARG178      0.2260
     15  O         24.1250   14.8170   70.9410 O.2   178  ARG178     -0.2867
     16  CB        23.7250   11.5210   71.6030 C.3   178  ARG178      0.0307
     17  CG        22.2760   12.0280   71.5450 C.3   178  ARG178      0.0489
     18  CD        21.2350   11.0020   72.0070 C.3   178  ARG178      0.2205
     19  NE        21.4560    9.6280   71.5260 N.pl3 178  ARG178     -0.0865
     20  CZ        21.4190    9.2350   70.2500 C.cat 178  ARG178      0.5346
     21  NH1       21.2370   10.1190   69.2790 N.pl3 178  ARG178      0.1354
     22  NH2       21.6120    7.9650   69.9360 N.pl3 178  ARG178      0.1354
     23  N         23.8860   17.5830   69.5650 N.3   182  LEU182     -0.1245
     24  CA        22.7720   18.4690   69.8900 C.3   182  LEU182      0.1561
     25  C         23.1900   19.8560   70.3690 C.2   182  LEU182      0.2260
     26  O         22.5920   20.8470   69.9580 O.2   182  LEU182     -0.2867
     27  CB        21.8580   17.8150   70.9280 C.3   182  LEU182      0.0270
     28  CG        21.1030   16.5740   70.4770 C.3   182  LEU182      0.0019
     29  CD1       20.6990   15.7510   71.6990 C.3   182  LEU182      0.0001
     30  CD2       19.9090   16.9430   69.6020 C.3   182  LEU182      0.0001
     31  N         17.9160   14.6050   64.0660 N.3   292  LEU292     -0.1245
     32  CA        18.4900   13.4490   64.7380 C.3   292  LEU292      0.1561
     33  C         17.3560   12.4340   64.7590 C.2   292  LEU292      0.2260
     34  O         16.2840   12.7380   65.2840 O.2   292  LEU292     -0.2867
     35  CB        18.9610   13.8130   66.1560 C.3   292  LEU292      0.0270
     36  CG        19.7910   12.7690   66.9110 C.3   292  LEU292      0.0019
     37  CD1       21.0660   12.3970   66.1370 C.3   292  LEU292      0.0001
     38  CD2       20.1480   13.2980   68.3010 C.3   292  LEU292      0.0001
     39  N         16.2750    8.2100   65.4360 N.3   294  CYS294     -0.1235
     40  CA        16.5060    6.8650   66.0130 C.3   294  CYS294      0.1677
     41  C         15.2040    6.1210   65.8300 C.2   294  CYS294      0.2270
     42  O         14.2830    6.3580   66.6110 O.2   294  CYS294     -0.2867
     43  CB        16.8690    6.9390   67.4940 C.3   294  CYS294      0.0956
     44  SG        18.3700    7.8580   67.8520 S.3   294  CYS294     -0.0801
     45  N         11.9130    7.8410   66.6450 N.3   297  ASP297     -0.1239
     46  CA        12.2080    9.0690   67.4090 C.3   297  ASP297      0.1674
     47  C         12.9210   10.0820   66.5600 C.2   297  ASP297      0.2266
     48  O         13.9760    9.8020   66.0080 O.2   297  ASP297     -0.2867
     49  CB        12.9880    8.7940   68.6940 C.3   297  ASP297      0.1410
     50  CG        12.1200    8.1000   69.7200 C.2   297  ASP297      0.3668
     51  OD1       11.3190    8.8000   70.3920 O.co2 297  ASP297     -0.2456
     52  OD2       12.2190    6.8500   69.8350 O.co2 297  ASP297     -0.2456
     53  N         14.0410   14.3820   66.2820 N.3   299  VAL299     -0.1245
     54  CA        14.2850   15.7060   66.8650 C.3   299  VAL299      0.1561
     55  C         14.7150   16.6410   65.7370 C.2   299  VAL299      0.2260
     56  O         15.6070   16.2840   64.9600 O.2   299  VAL299     -0.2867
     57  CB        15.3050   15.7030   68.0270 C.3   299  VAL299      0.0252
     58  CG1       15.7260   17.1270   68.3900 C.3   299  VAL299      0.0019
     59  CG2       14.7080   15.0420   69.2420 C.3   299  VAL299      0.0019
     60  N         17.4520   24.1310   74.7280 N.3   338  LEU338     -0.1245
     61  CA        17.8170   22.7490   74.3930 C.3   338  LEU338      0.1561
     62  C         17.3730   21.7610   75.4740 C.2   338  LEU338      0.2260
     63  O         16.9130   20.6630   75.1580 O.2   338  LEU338     -0.2867
     64  CB        19.3260   22.6410   74.1190 C.3   338  LEU338      0.0270
     65  CG        19.8920   21.2680   73.6810 C.3   338  LEU338      0.0019
     66  CD1       19.3150   20.7870   72.3590 C.3   338  LEU338      0.0001
     67  CD2       21.3730   21.3040   73.6170 C.3   338  LEU338      0.0001
     68  N         13.6700   20.1490   75.2270 N.3   341  ILE341     -0.1245
     69  CA        13.3060   19.1290   74.2430 C.3   341  ILE341      0.1561
     70  C         13.4540   17.7270   74.8700 C.2   341  ILE341      0.2260
     71  O         14.5360   17.3680   75.3330 O.2   341  ILE341     -0.2867
     72  CB        14.1730   19.2610   72.9570 C.3   341  ILE341      0.0252
     73  CG1       14.0540   20.6780   72.3370 C.3   341  ILE341      0.0019
     74  CG2       13.8420   18.1390   71.9450 C.3   341  ILE341      0.0019
     75  CD1       15.1890   21.0690   71.4100 C.3   341  ILE341      0.0001
     76  N         13.2630   13.7540   74.0950 N.3   343  SER343     -0.1202
     77  CA        13.2550   12.7550   73.0390 C.3   343  SER343      0.2020
     78  C         13.8190   11.4570   73.5670 C.2   343  SER343      0.2619
     79  O         14.8970   11.4660   74.1750 O.2   343  SER343     -0.2717
     80  CB        14.0470   13.2280   71.8350 C.3   343  SER343      0.2103
     81  OG        13.9400   12.2590   70.8020 O.3   343  SER343     -0.2182
     82  N         13.0830   10.3390   73.3450 N.am  344  CYS344     -0.1969
     83  CA        13.3970    9.0010   73.8540 C.3   344  CYS344      0.1712
     84  C         13.3750    9.0850   75.3830 C.2   344  CYS344      0.2296
     85  O         14.2340    8.5250   76.0490 O.2   344  CYS344     -0.2864
     86  CB        14.7310    8.4780   73.3290 C.3   344  CYS344      0.0983
     87  SG        14.8680    8.4510   71.5240 S.3   344  CYS344     -0.0798
     88  N         14.2910   11.3400   77.2350 N.3   346  SER346     -0.1202
     89  CA        15.5090   12.0200   77.6770 C.3   346  SER346      0.2020
     90  C         15.6170   13.5030   77.3620 C.2   346  SER346      0.2619
     91  O         15.0320   13.9900   76.4050 O.2   346  SER346     -0.2717
     92  CB        16.7370   11.3140   77.1200 C.3   346  SER346      0.2103
     93  OG        16.7210    9.9550   77.5050 O.3   346  SER346     -0.2182
     94  N         16.4310   14.2050   78.1430 N.am  347  ASN347     -0.1960
     95  CA        16.6890   15.6370   77.9740 C.3   347  ASN347      0.1819
     96  C         18.1340   15.9860   78.3450 C.2   347  ASN347      0.2621
     97  O         18.7330   15.3090   79.1730 O.2   347  ASN347     -0.2715
     98  CB        15.6960   16.4860   78.7890 C.3   347  ASN347      0.1195
     99  CG        15.8620   16.3580   80.2870 C.2   347  ASN347      0.2630
    100  OD1       15.3540   15.4240   80.9360 O.2   347  ASN347     -0.2716
    101  ND2       16.5690   17.3080   80.8670 N.am  347  ASN347     -0.0877
    102  N         18.6830   17.0480   77.7380 N.am  348  VAL348     -0.1977
    103  CA        20.0200   17.5540   78.0430 C.3   348  VAL348      0.1596
    104  C         19.9290   18.3090   79.3790 C.2   348  VAL348      0.2287
    105  O         18.9240   18.9680   79.6730 O.2   348  VAL348     -0.2864
    106  CB        20.5780   18.4610   76.9080 C.3   348  VAL348      0.0276
    107  CG1       21.9370   19.0570   77.2700 C.3   348  VAL348      0.0022
    108  CG2       20.6700   17.7050   75.5710 C.3   348  VAL348      0.0022
    109  N         23.0920   13.6960   79.1150 N.3   362  LEU362     -0.1245
    110  CA        21.7310   13.2310   78.8720 C.3   362  LEU362      0.1561
    111  C         21.1760   12.5470   80.1130 C.2   362  LEU362      0.2260
    112  O         21.8140   11.6610   80.7090 O.2   362  LEU362     -0.2867
    113  CB        21.7640   12.2490   77.6930 C.3   362  LEU362      0.0270
    114  CG        20.5330   12.0710   76.8390 C.3   362  LEU362      0.0019
    115  CD1       20.2340   13.3200   76.0270 C.3   362  LEU362      0.0001
    116  CD2       20.7290   10.8930   75.9130 C.3   362  LEU362      0.0001
    117  N         24.0910    3.6780   80.0410 N.3   392  MET392     -0.1230
    118  CA        23.5570    4.8050   79.2630 C.3   392  MET392      0.1702
    119  C         23.4000    6.1370   80.0390 C.2   392  MET392      0.2592
    120  O         23.5100    7.2180   79.4300 O.2   392  MET392     -0.2718
    121  CB        22.2210    4.4110   78.5940 C.3   392  MET392      0.0401
    122  CG        22.3590    3.2810   77.5320 C.3   392  MET392      0.0596
    123  SD        23.4300    3.6160   76.0640 S.3   392  MET392     -0.1393
    124  CE        22.4220    4.9180   75.2130 C.3   392  MET392      0.0692
    125  N         23.1080    6.0570   81.3580 N.am  393  TYR393     -0.1976
    126  CA        22.9010    7.2310   82.1860 C.3   393  TYR393      0.1639
    127  C         23.9180    7.3780   83.2920 C.2   393  TYR393      0.2290
    128  O         23.6410    8.0320   84.2990 O.2   393  TYR393     -0.2864
    129  CB        21.4680    7.2690   82.7240 C.3   393  TYR393      0.0560
    130  CG        20.4460    7.4070   81.6260 C.ar  393  TYR393     -0.0198
    131  CD1       20.1940    8.6440   81.0290 C.ar  393  TYR393     -0.0009
    132  CD2       19.7560    6.2910   81.1490 C.ar  393  TYR393     -0.0009
    133  CE1       19.2580    8.7730   80.0100 C.ar  393  TYR393      0.0417
    134  CE2       18.8040    6.4110   80.1480 C.ar  393  TYR393      0.0417
    135  CZ        18.5690    7.6510   79.5690 C.ar  393  TYR393      0.1957
    136  OH        17.6420    7.7550   78.5690 O.3   393  TYR393     -0.2866
    137  N         20.6550   -4.6080   77.0840 N.3   424  GLN424     -0.1231
    138  CA        20.3630   -4.1250   75.7330 C.3   424  GLN424      0.1698
    139  C         20.9330   -2.7130   75.5260 C.2   424  GLN424      0.2592
    140  O         20.7710   -1.8300   76.3910 O.2   424  GLN424     -0.2718
    141  CB        18.8400   -4.0970   75.4860 C.3   424  GLN424      0.0381
    142  CG        18.1380   -5.4470   75.6150 C.3   424  GLN424      0.0905
    143  CD        18.2190   -6.2440   74.3460 C.2   424  GLN424      0.2608
    144  OE1       18.9830   -7.2090   74.2490 O.2   424  GLN424     -0.2717
    145  NE2       17.4270   -5.8530   73.3420 N.am  424  GLN424     -0.0878
    146  N         21.6070   -2.5130   74.3790 N.am  425  ILE425     -0.1966
    147  CA        22.1580   -1.2250   73.9400 C.3   425  ILE425      0.1727
    148  C         21.8130   -1.0900   72.4650 C.2   425  ILE425      0.2616
    149  O         22.2800   -1.8830   71.6390 O.2   425  ILE425     -0.2715
    150  CB        23.6760   -1.0320   74.2190 C.3   425  ILE425      0.0290
    151  CG1       24.0000   -1.1770   75.7230 C.3   425  ILE425      0.0022
    152  CG2       24.1590    0.3370   73.6760 C.3   425  ILE425      0.0023
    153  CD1       25.2870   -1.9220   75.9660 C.3   425  ILE425      0.0001
    154  N         20.9470   -0.1130   72.1460 N.am  426  TYR426     -0.1960
    155  CA        20.4340    0.1520   70.7900 C.3   426  TYR426      0.1771
    156  C         19.8050   -1.1110   70.1620 C.2   426  TYR426      0.2620
    157  O         20.0440   -1.4130   68.9900 O.2   426  TYR426     -0.2715
    158  CB        21.5030    0.8120   69.8760 C.3   426  TYR426      0.0574
    159  CG        21.9170    2.2150   70.2870 C.ar  426  TYR426     -0.0198
    160  CD1       21.1140    2.9860   71.1300 C.ar  426  TYR426     -0.0009
    161  CD2       23.0630    2.8060   69.7640 C.ar  426  TYR426     -0.0009
    162  CE1       21.4700    4.2850   71.4860 C.ar  426  TYR426      0.0417
    163  CE2       23.4120    4.1200   70.0860 C.ar  426  TYR426      0.0417
    164  CZ        22.6210    4.8510   70.9630 C.ar  426  TYR426      0.1957
    165  OH        22.9750    6.1320   71.3290 O.3   426  TYR426     -0.2866
    166  N         19.0470   -1.8500   70.9870 N.am  427  GLY427     -0.1954
    167  CA        18.3470   -3.0680   70.5940 C.3   427  GLY427      0.1869
    168  C         19.1680   -4.3440   70.5480 C.2   427  GLY427      0.2309
    169  O         18.5940   -5.4380   70.5600 O.2   427  GLY427     -0.2863
@<TRIPOS>BOND
     1    31    32    1
     2    32    33    1
     3    32    35    1
     4    33    34    2
     5    56    55    2
     6     8    10   ar
     7     8     6   ar
     8    39    40    1
     9    10    11   ar
    10    55    54    1
    11     1     2    1
    12    41    40    1
    13    41    42    2
    14     5     6    1
    15     5     2    1
    16    48    47    2
    17    40    43    1
    18    37    36    1
    19    35    36    1
    20     3     2    1
    21     3     4    2
    22     6     7   ar
    23    53    54    1
    24    47    46    1
    25    45    46    1
    26    54    57    1
    27    36    38    1
    28    11     9   ar
    29    46    49    1
    30    43    44    1
    31     7     9   ar
    32    57    58    1
    33    57    59    1
    34    49    50    1
    35   157   156    2
    36    21    20    1
    37    23    24    1
    38    30    28    1
    39    50    52   ar
    40    50    51   ar
    41   161   163   ar
    42   161   159   ar
    43   158   159    1
    44   158   155    1
    45    24    25    1
    46    24    27    1
    47    22    20    1
    48    26    25    2
    49   163   164   ar
    50   156   155    1
    51   156   166   am
    52    20    19    2
    53   159   160   ar
    54    28    27    1
    55    28    29    1
    56   168   169    2
    57   168   167    1
    58   167   166    1
    59   155   154    1
    60    81    80    1
    61    15    14    2
    62   164   165    1
    63   164   162   ar
    64    13    12    1
    65    13    16    1
    66    13    14    1
    67   160   162   ar
    68    75    73    1
    69    87    86    1
    70    19    18    1
    71    17    16    1
    72    17    18    1
    73   149   148    2
    74    80    77    1
    75    74    72    1
    76   154   148   am
    77    73    72    1
    78    66    65    1
    79   148   147    1
    80    72    69    1
    81    77    78    1
    82    77    76    1
    83    86    83    1
    84   145   143   am
    85    82    78   am
    86    82    83    1
    87    78    79    2
    88    67    65    1
    89   152   150    1
    90    65    64    1
    91    83    84    1
    92   147   150    1
    93   147   146    1
    94    64    61    1
    95   150   151    1
    96    69    70    1
    97    69    68    1
    98   144   143    2
    99   143   142    1
   100   146   139   am
   101    61    60    1
   102    61    62    1
   103    70    71    2
   104    63    62    2
   105   124   123    1
   106    84    85    2
   107   141   142    1
   108   141   138    1
   109   139   138    1
   110   139   140    2
   111   108   106    1
   112   151   153    1
   113   138   137    1
   114   116   114    1
   115   115   114    1
   116   123   122    1
   117    91    90    2
   118   114   113    1
   119   106   107    1
   120   106   103    1
   121    92    93    1
   122    92    89    1
   123    88    89    1
   124    90    89    1
   125    90    94   am
   126   122   121    1
   127   113   110    1
   128   102   103    1
   129   102    96   am
   130    95    94    1
   131    95    96    1
   132    95    98    1
   133   103   104    1
   134    96    97    2
   135   136   135    1
   136   121   118    1
   137    98    99    1
   138   110   109    1
   139   110   111    1
   140   118   119    1
   141   118   117    1
   142   104   105    2
   143   120   119    2
   144   135   133   ar
   145   135   134   ar
   146   133   131   ar
   147   119   125   am
   148   111   112    2
   149   134   132   ar
   150    99   101   am
   151    99   100    2
   152   131   130   ar
   153   132   130   ar
   154   125   126    1
   155   130   129    1
   156   126   129    1
   157   126   127    1
   158   127   128    2
