@<TRIPOS>MOLECULE
tmp/5pznA01.pdb
 216 205 0 0 0
SMALL
GASTEIGER

@<TRIPOS>ATOM
      1  N         22.0750    8.5790   21.9060 N.3   165  PHE165     -0.1241
      2  CA        20.7710    8.3540   21.2790 C.3   165  PHE165      0.1605
      3  C         19.6630    9.3900   21.5990 C.2   165  PHE165      0.2264
      4  O         18.5220    9.1770   21.2080 O.2   165  PHE165     -0.2867
      5  CB        20.2660    6.9280   21.5860 C.3   165  PHE165      0.0534
      6  CG        21.2010    5.8330   21.1270 C.ar  165  PHE165     -0.0203
      7  CD1       21.4320    5.6130   19.7680 C.ar  165  PHE165     -0.0042
      8  CD2       21.8400    5.0070   22.0500 C.ar  165  PHE165     -0.0042
      9  CE1       22.3070    4.5950   19.3430 C.ar  165  PHE165     -0.0003
     10  CE2       22.7280    4.0150   21.6320 C.ar  165  PHE165     -0.0003
     11  CZ        22.9360    3.7930   20.2800 C.ar  165  PHE165     -0.0000
     12  N         19.8120   12.5530   20.4670 N.3   167  TYR167     -0.1241
     13  CA        19.9390   13.6330   19.4890 C.3   167  TYR167      0.1605
     14  C         19.3730   13.3900   18.1310 C.2   167  TYR167      0.2264
     15  O         19.6170   12.3410   17.5560 O.2   167  TYR167     -0.2867
     16  CB        21.4340   13.9680   19.3050 C.3   167  TYR167      0.0534
     17  CG        22.1290   14.4320   20.5740 C.ar  167  TYR167     -0.0201
     18  CD1       21.7600   15.6230   21.2010 C.ar  167  TYR167     -0.0009
     19  CD2       23.1760   13.6960   21.1310 C.ar  167  TYR167     -0.0009
     20  CE1       22.3960   16.0540   22.3630 C.ar  167  TYR167      0.0417
     21  CE2       23.8150   14.1140   22.2950 C.ar  167  TYR167      0.0417
     22  CZ        23.4220   15.2930   22.9070 C.ar  167  TYR167      0.1957
     23  OH        24.0530   15.7390   24.0420 O.3   167  TYR167     -0.2866
     24  N         19.9190   14.3390   14.1040 N.3   169  PRO169     -0.2116
     25  CA        21.2460   14.6000   13.4850 C.3   169  PRO169      0.1372
     26  C         21.7330   16.0510   13.6600 C.2   169  PRO169      0.2244
     27  O         22.9220   16.2550   13.9240 O.2   169  PRO169     -0.2868
     28  CB        21.0180   14.2420   12.0300 C.3   169  PRO169      0.0268
     29  CG        19.8930   13.2430   12.0720 C.3   169  PRO169      0.0207
     30  CD        18.9920   13.6960   13.1510 C.3   169  PRO169      0.0892
     31  N         23.0030   16.5790   17.2630 N.3   172  ARG172     -0.1245
     32  CA        24.2460   15.8170   17.4310 C.3   172  ARG172      0.1563
     33  C         25.4290   16.6310   16.9150 C.2   172  ARG172      0.2260
     34  O         26.4570   16.7320   17.5830 O.2   172  ARG172     -0.2867
     35  CB        24.1660   14.4570   16.7000 C.3   172  ARG172      0.0307
     36  CG        25.3860   13.5830   16.9720 C.3   172  ARG172      0.0489
     37  CD        25.3410   12.2670   16.2460 C.3   172  ARG172      0.2205
     38  NE        24.0830   11.5680   16.4770 N.pl3 172  ARG172     -0.0865
     39  CZ        23.8010   10.8130   17.5360 C.cat 172  ARG172      0.5346
     40  NH1       24.7040   10.6240   18.4860 N.pl3 172  ARG172      0.1354
     41  NH2       22.6160   10.2390   17.6480 N.pl3 172  ARG172      0.1354
     42  N         28.6250   18.3610   19.0400 N.3   176  LEU176     -0.1245
     43  CA        30.0250   18.1120   18.7080 C.3   176  LEU176      0.1561
     44  C         30.7690   19.3880   18.4040 C.2   176  LEU176      0.2260
     45  O         31.9220   19.5300   18.8140 O.2   176  LEU176     -0.2867
     46  CB        30.1570   17.1500   17.5080 C.3   176  LEU176      0.0270
     47  CG        29.7340   15.7110   17.7630 C.3   176  LEU176      0.0019
     48  CD1       29.3650   15.0050   16.4270 C.3   176  LEU176      0.0001
     49  CD2       30.8110   14.9540   18.5520 C.3   176  LEU176      0.0001
     50  N         31.0660   11.2250   23.8330 N.3   286  LEU286     -0.1245
     51  CA        29.8080   10.9580   23.1440 C.3   286  LEU286      0.1561
     52  C         29.7600    9.4530   22.9140 C.2   286  LEU286      0.2260
     53  O         30.6570    8.8940   22.3010 O.2   286  LEU286     -0.2867
     54  CB        29.6320   11.7700   21.8400 C.3   286  LEU286      0.0270
     55  CG        28.2430   11.6360   21.1370 C.3   286  LEU286      0.0019
     56  CD1       27.1140   12.1050   22.0310 C.3   286  LEU286      0.0001
     57  CD2       28.2110   12.4310   19.8350 C.3   286  LEU286      0.0001
     58  N         27.5070    5.9520   21.7180 N.3   288  CYS288     -0.1235
     59  CA        26.4150    5.3250   20.9540 C.3   288  CYS288      0.1677
     60  C         26.6870    3.8200   20.9720 C.2   288  CYS288      0.2270
     61  O         27.4360    3.3300   20.1430 O.2   288  CYS288     -0.2867
     62  CB        26.3740    5.8630   19.5150 C.3   288  CYS288      0.0956
     63  SG        25.3920    7.3700   19.3180 S.3   288  CYS288     -0.0801
     64  N         30.1250    2.5220   20.1880 N.3   291  ASP291     -0.1239
     65  CA        30.8250    3.5860   19.4820 C.3   291  ASP291      0.1674
     66  C         31.0750    4.7270   20.4430 C.2   291  ASP291      0.2266
     67  O         30.1370    5.2500   21.0530 O.2   291  ASP291     -0.2867
     68  CB        30.0420    4.0840   18.2620 C.3   291  ASP291      0.1410
     69  CG        29.9400    3.0630   17.1520 C.2   291  ASP291      0.3668
     70  OD1       30.9530    2.8530   16.4480 O.co2 291  ASP291     -0.2456
     71  OD2       28.8240    2.5110   16.9500 O.co2 291  ASP291     -0.2456
     72  N         33.4160    8.4680   21.0840 N.3   293  VAL293     -0.1245
     73  CA        34.2340    9.5990   20.6820 C.3   293  VAL293      0.1561
     74  C         34.5680   10.4200   21.9500 C.2   293  VAL293      0.2260
     75  O         33.6750   10.7380   22.7450 O.2   293  VAL293     -0.2867
     76  CB        33.5580   10.4940   19.6200 C.3   293  VAL293      0.0252
     77  CG1       34.2760   11.8550   19.5000 C.3   293  VAL293      0.0019
     78  CG2       33.4810    9.7860   18.2830 C.3   293  VAL293      0.0019
     79  N         37.8380   18.5490   13.7690 N.3   332  LEU332     -0.1245
     80  CA        36.6060   17.8080   14.0940 C.3   332  LEU332      0.1561
     81  C         36.1700   16.9410   12.8930 C.2   332  LEU332      0.2260
     82  O         35.7570   15.7970   13.0910 O.2   332  LEU332     -0.2867
     83  CB        35.4650   18.7730   14.5300 C.3   332  LEU332      0.0270
     84  CG        34.0850   18.1490   14.8220 C.3   332  LEU332      0.0019
     85  CD1       34.1580   17.1030   15.9240 C.3   332  LEU332      0.0001
     86  CD2       33.0650   19.2000   15.1470 C.3   332  LEU332      0.0001
     87  N         37.4450   13.1760   12.4160 N.3   335  ILE335     -0.1245
     88  CA        37.0090   12.0330   13.2380 C.3   335  ILE335      0.1561
     89  C         35.8600   11.2660   12.5020 C.2   335  ILE335      0.2260
     90  O         34.8890   11.8700   12.0280 O.2   335  ILE335     -0.2867
     91  CB        36.6050   12.4500   14.6760 C.3   335  ILE335      0.0252
     92  CG1       37.7700   13.1110   15.4110 C.3   335  ILE335      0.0019
     93  CG2       36.0650   11.2310   15.4740 C.3   335  ILE335      0.0019
     94  CD1       37.3480   14.0590   16.5610 C.3   335  ILE335      0.0001
     95  N         33.1350    8.2930   13.1340 N.3   337  SER337     -0.1202
     96  CA        32.4270    7.5110   14.1390 C.3   337  SER337      0.2020
     97  C         31.0510    7.1930   13.5740 C.2   337  SER337      0.2619
     98  O         30.4320    8.0390   12.9010 O.2   337  SER337     -0.2717
     99  CB        32.3110    8.2940   15.4380 C.3   337  SER337      0.2103
    100  OG        31.5600    7.5800   16.4110 O.3   337  SER337     -0.2182
    101  N         30.5750    5.9600   13.8490 N.am  338  CYS338     -0.1969
    102  CA        29.3060    5.4360   13.3510 C.3   338  CYS338      0.1712
    103  C         29.3280    5.5930   11.8330 C.2   338  CYS338      0.2296
    104  O         28.3370    6.0000   11.2260 O.2   338  CYS338     -0.2864
    105  CB        28.1120    6.1420   13.9920 C.3   338  CYS338      0.0983
    106  SG        27.9660    5.8860   15.7840 S.3   338  CYS338     -0.0798
    107  N         30.4570    7.8300   10.1330 N.3   340  SER340     -0.1202
    108  CA        30.1740    9.2020    9.7500 C.3   340  SER340      0.2020
    109  C         31.2580   10.2050   10.1170 C.2   340  SER340      0.2619
    110  O         32.0650    9.9780   11.0290 O.2   340  SER340     -0.2717
    111  CB        28.8430    9.6500   10.3570 C.3   340  SER340      0.2103
    112  OG        27.8300    8.7100   10.0530 O.3   340  SER340     -0.2182
    113  N         31.2270   11.3530    9.4300 N.am  341  ASN341     -0.1960
    114  CA        32.1160   12.4790    9.7160 C.3   341  ASN341      0.1819
    115  C         31.3130   13.7730    9.5400 C.2   341  ASN341      0.2621
    116  O         30.3270   13.8000    8.7940 O.2   341  ASN341     -0.2715
    117  CB        33.3930   12.4450    8.8000 C.3   341  ASN341      0.1195
    118  CG        33.1240   12.7470    7.3440 C.2   341  ASN341      0.2630
    119  OD1       32.7540   11.8640    6.5380 O.2   341  ASN341     -0.2716
    120  ND2       33.3030   14.0070    6.9670 N.am  341  ASN341     -0.0877
    121  N         31.7450   14.8350   10.2190 N.am  342  VAL342     -0.1977
    122  CA        31.1680   16.1580   10.1130 C.3   342  VAL342      0.1596
    123  C         31.7740   16.8470    8.8650 C.2   342  VAL342      0.2287
    124  O         32.9650   16.6970    8.5860 O.2   342  VAL342     -0.2864
    125  CB        31.4460   16.9910   11.4020 C.3   342  VAL342      0.0276
    126  CG1       30.9100   18.4110   11.2890 C.3   342  VAL342      0.0022
    127  CG2       30.8750   16.3070   12.6450 C.3   342  VAL342      0.0022
    128  N         26.2530   15.9470    9.1650 N.3   356  LEU356     -0.1245
    129  CA        26.8540   14.6120    9.1500 C.3   356  LEU356      0.1561
    130  C         26.7490   13.9640    7.7730 C.2   356  LEU356      0.2260
    131  O         25.6720   13.9290    7.1720 O.2   356  LEU356     -0.2867
    132  CB        26.1880   13.6930   10.2070 C.3   356  LEU356      0.0270
    133  CG        26.5260   13.9980   11.6670 C.3   356  LEU356      0.0019
    134  CD1       25.4850   13.4200   12.5850 C.3   356  LEU356      0.0001
    135  CD2       27.9360   13.5050   12.0350 C.3   356  LEU356      0.0001
    136  N         16.5200   10.0110    5.3530 N.3   385  ILE385     -0.1231
    137  CA        16.2090   10.7030    6.6060 C.3   385  ILE385      0.1692
    138  C         17.4770   11.1240    7.3770 C.2   385  ILE385      0.2591
    139  O         17.5820   12.2510    7.8250 O.2   385  ILE385     -0.2718
    140  CB        15.2940    9.7950    7.4830 C.3   385  ILE385      0.0266
    141  CG1       13.8970    9.5990    6.8020 C.3   385  ILE385      0.0019
    142  CG2       15.1560   10.3560    8.9060 C.3   385  ILE385      0.0020
    143  CD1       12.9900    8.4980    7.3830 C.3   385  ILE385      0.0001
    144  N         18.3980   10.2010    7.5610 N.am  386  MET386     -0.1979
    145  CA        19.6320   10.4240    8.3150 C.3   386  MET386      0.1605
    146  C         20.5820   11.4070    7.6260 C.2   386  MET386      0.2287
    147  O         21.1490   12.2620    8.2900 O.2   386  MET386     -0.2864
    148  CB        20.3350    9.0500    8.5230 C.3   386  MET386      0.0413
    149  CG        21.6760    9.1290    9.2250 C.3   386  MET386      0.0598
    150  SD        21.5090    9.7420   10.9060 S.3   386  MET386     -0.1393
    151  CE        22.8110   11.0140   10.9120 C.3   386  MET386      0.0692
    152  N         17.0350    2.5310   10.6330 N.3   419  ILE419     -0.1231
    153  CA        18.0450    3.5800   10.7880 C.3   419  ILE419      0.1692
    154  C         18.8710    3.1490   11.9910 C.2   419  ILE419      0.2592
    155  O         18.3270    3.0910   13.0990 O.2   419  ILE419     -0.2718
    156  CB        17.4760    5.0170   10.9810 C.3   419  ILE419      0.0266
    157  CG1       16.4720    5.4030    9.8770 C.3   419  ILE419      0.0019
    158  CG2       18.6360    6.0120   11.0540 C.3   419  ILE419      0.0020
    159  CD1       15.6700    6.6860   10.0980 C.3   419  ILE419      0.0001
    160  N         20.1740    2.8450   11.7720 N.am  420  TYR420     -0.1976
    161  CA        21.0990    2.3810   12.8240 C.3   420  TYR420      0.1639
    162  C         20.3980    1.2440   13.5850 C.2   420  TYR420      0.2290
    163  O         20.1250    0.1990   12.9850 O.2   420  TYR420     -0.2864
    164  CB        21.5840    3.5620   13.7170 C.3   420  TYR420      0.0560
    165  CG        22.6390    4.3860   13.0160 C.ar  420  TYR420     -0.0198
    166  CD1       23.9580    3.9490   12.9450 C.ar  420  TYR420     -0.0009
    167  CD2       22.3050    5.5620   12.3500 C.ar  420  TYR420     -0.0009
    168  CE1       24.9210    4.6650   12.2370 C.ar  420  TYR420      0.0417
    169  CE2       23.2520    6.2720   11.6130 C.ar  420  TYR420      0.0417
    170  CZ        24.5670    5.8340   11.5800 C.ar  420  TYR420      0.1957
    171  OH        25.5280    6.5290   10.8860 O.3   420  TYR420     -0.2866
    172  N         11.2950    2.1510   11.6830 N.3   424  TYR424     -0.1241
    173  CA        10.3550    3.2690   11.5520 C.3   424  TYR424      0.1605
    174  C          9.3850    3.0500   10.3590 C.2   424  TYR424      0.2264
    175  O          9.8150    2.6050    9.2920 O.2   424  TYR424     -0.2867
    176  CB        11.1350    4.6050   11.4290 C.3   424  TYR424      0.0534
    177  CG        12.2310    4.7980   12.4660 C.ar  424  TYR424     -0.0201
    178  CD1       13.5180    4.3050   12.2520 C.ar  424  TYR424     -0.0009
    179  CD2       11.9880    5.4970   13.6470 C.ar  424  TYR424     -0.0009
    180  CE1       14.5260    4.4670   13.2020 C.ar  424  TYR424      0.0417
    181  CE2       12.9980    5.6930   14.5920 C.ar  424  TYR424      0.0417
    182  CZ        14.2650    5.1680   14.3680 C.ar  424  TYR424      0.1957
    183  OH        15.2540    5.2850   15.3150 O.3   424  TYR424     -0.2866
    184  N         14.3120   17.3220   11.8260 N.3   438  LEU438     -0.1245
    185  CA        15.5780   16.6640   12.1830 C.3   438  LEU438      0.1561
    186  C         16.8420   17.4440   11.8310 C.2   438  LEU438      0.2260
    187  O         17.8530   17.3330   12.5450 O.2   438  LEU438     -0.2867
    188  CB        15.6510   15.2450   11.5790 C.3   438  LEU438      0.0270
    189  CG        14.5980   14.2280   12.0810 C.3   438  LEU438      0.0019
    190  CD1       14.7780   12.8940   11.4290 C.3   438  LEU438      0.0001
    191  CD2       14.6830   14.0270   13.5660 C.3   438  LEU438      0.0001
    192  N         11.1840    8.8850   18.7610 N.3   522  TRP522     -0.1227
    193  CA        12.2770    8.6540   17.8020 C.3   522  TRP522      0.1737
    194  C         13.6900    8.7390   18.3760 C.2   522  TRP522      0.2595
    195  O         14.4730    7.7900   18.2220 O.2   522  TRP522     -0.2718
    196  CB        12.1640    9.6230   16.6070 C.3   522  TRP522      0.0564
    197  CG        11.0930    9.2800   15.6170 C.ar  522  TRP522      0.0003
    198  CD1        9.8410    8.7880   15.8800 C.ar  522  TRP522      0.0946
    199  CD2       11.1500    9.5030   14.2110 C.ar  522  TRP522      0.0152
    200  NE1        9.1320    8.6590   14.7150 N.ar  522  TRP522     -0.2442
    201  CE2        9.9060    9.1020   13.6710 C.ar  522  TRP522      0.0810
    202  CE3       12.1430    9.9940   13.3420 C.ar  522  TRP522      0.0012
    203  CZ2        9.6360    9.1640   12.3050 C.ar  522  TRP522      0.0191
    204  CZ3       11.8690   10.0520   11.9870 C.ar  522  TRP522      0.0001
    205  CH2       10.6430    9.6140   11.4790 C.ar  522  TRP522      0.0015
    206  N         14.0440    9.9240   18.9140 N.am  523  PHE523     -0.1976
    207  CA        15.3730   10.1890   19.4590 C.3   523  PHE523      0.1639
    208  C         15.3230   10.4340   20.9590 C.2   523  PHE523      0.2290
    209  O         15.6930   11.5040   21.4660 O.2   523  PHE523     -0.2864
    210  CB        16.0980   11.3020   18.6870 C.3   523  PHE523      0.0560
    211  CG        15.3220   12.5820   18.4620 C.ar  523  PHE523     -0.0200
    212  CD1       14.4600   12.7160   17.3760 C.ar  523  PHE523     -0.0042
    213  CD2       15.5130   13.6860   19.2910 C.ar  523  PHE523     -0.0042
    214  CE1       13.7510   13.9090   17.1630 C.ar  523  PHE523     -0.0003
    215  CE2       14.8180   14.8820   19.0700 C.ar  523  PHE523     -0.0003
    216  CZ        13.9400   14.9880   18.0060 C.ar  523  PHE523     -0.0000
@<TRIPOS>BOND
     1   136   137    1
     2   119   118    2
     3   137   138    1
     4   137   140    1
     5   141   143    1
     6   141   140    1
     7   120   118   am
     8   131   130    2
     9   118   117    1
    10   138   144   am
    11   138   139    2
    12   140   142    1
    13   144   145    1
    14   146   147    2
    15   146   145    1
    16   130   129    1
    17   145   148    1
    18   148   149    1
    19   124   123    2
    20   116   115    2
    21   117   114    1
    22   123   122    1
    23   129   128    1
    24   129   132    1
    25   149   150    1
    26   175   174    2
    27   113   114    1
    28   113   109   am
    29   115   114    1
    30   115   121   am
    31   108   109    1
    32   108   107    1
    33   108   111    1
    34   157   159    1
    35   157   156    1
    36   112   111    1
    37   122   121    1
    38   122   125    1
    39   109   110    2
    40   132   133    1
    41   174   173    1
    42   152   153    1
    43   153   156    1
    44   153   154    1
    45   171   170    1
    46   150   151    1
    47   156   158    1
    48   104   103    2
    49   126   125    1
    50   125   127    1
    51   176   173    1
    52   176   177    1
    53   190   189    1
    54   205   204   ar
    55   205   203   ar
    56   173   172    1
    57   188   189    1
    58   188   185    1
    59   170   169   ar
    60   170   168   ar
    61   169   167   ar
    62   133   135    1
    63   133   134    1
    64   160   154   am
    65   160   161    1
    66   184   185    1
    67   186   185    1
    68   186   187    2
    69   103   102    1
    70   204   202   ar
    71   154   155    2
    72    90    89    2
    73    28    29    1
    74    28    25    1
    75    29    30    1
    76   189   191    1
    77   168   166   ar
    78   178   177   ar
    79   178   180   ar
    80   203   201   ar
    81   167   165   ar
    82    87    88    1
    83   177   179   ar
    84    89    88    1
    85   161   162    1
    86   161   164    1
    87    81    82    2
    88    81    80    1
    89    98    97    2
    90   166   165   ar
    91   163   162    2
    92   165   164    1
    93    95    96    1
    94    30    24    1
    95   180   182   ar
    96    88    91    1
    97   202   199   ar
    98   102   101    1
    99   102   105    1
   100    25    26    1
   101    25    24    1
   102    97   101   am
   103    97    96    1
   104   179   181   ar
   105    26    27    2
   106   201   199   ar
   107   201   200   ar
   108    79    80    1
   109   105   106    1
   110    80    83    1
   111    96    99    1
   112   199   197   ar
   113   182   181   ar
   114   182   183    1
   115    83    84    1
   116    91    92    1
   117    91    93    1
   118   200   198   ar
   119    84    86    1
   120    84    85    1
   121    92    94    1
   122    99   100    1
   123   197   198   ar
   124   197   196    1
   125    37    38    1
   126    37    36    1
   127    48    47    1
   128    70    69   ar
   129    38    39    2
   130   196   193    1
   131    35    36    1
   132    35    32    1
   133    33    32    1
   134    33    34    2
   135    71    69   ar
   136    69    68    1
   137   214   212   ar
   138   214   216   ar
   139    31    32    1
   140   212   211   ar
   141    46    47    1
   142    46    43    1
   143    39    41    1
   144    39    40    1
   145    15    14    2
   146    47    49    1
   147   193   194    1
   148   193   192    1
   149   216   215   ar
   150    14    13    1
   151   195   194    2
   152    68    65    1
   153    78    76    1
   154   194   206   am
   155    44    43    1
   156    44    45    2
   157   211   210    1
   158   211   213   ar
   159   210   207    1
   160    43    42    1
   161   206   207    1
   162   215   213   ar
   163    16    13    1
   164    16    17    1
   165    63    62    1
   166     9     7   ar
   167     9    11   ar
   168   207   208    1
   169    65    64    1
   170    65    66    1
   171    13    12    1
   172    77    76    1
   173    62    59    1
   174    76    73    1
   175     7     6   ar
   176    57    55    1
   177    61    60    2
   178    11    10   ar
   179    66    67    2
   180    17    19   ar
   181    17    18   ar
   182    73    72    1
   183    73    74    1
   184    59    60    1
   185    59    58    1
   186   208   209    2
   187     6     5    1
   188     6     8   ar
   189    19    21   ar
   190    55    54    1
   191    55    56    1
   192    18    20   ar
   193     4     3    2
   194     2     5    1
   195     2     3    1
   196     2     1    1
   197    10     8   ar
   198    54    51    1
   199    74    75    2
   200    21    22   ar
   201    53    52    2
   202    20    22   ar
   203    22    23    1
   204    52    51    1
   205    51    50    1
