@<TRIPOS>MOLECULE
tmp/5pzpB01.pdb
 235 223 0 0 0
SMALL
GASTEIGER

@<TRIPOS>ATOM
      1  N         21.2370    6.1280   66.5640 N.3   165  PHE165     -0.1241
      2  CA        21.8640    4.9790   67.2050 C.3   165  PHE165      0.1605
      3  C         23.3770    4.9000   67.0170 C.2   165  PHE165      0.2264
      4  O         23.9580    3.8440   67.2450 O.2   165  PHE165     -0.2867
      5  CB        21.1860    3.6710   66.7610 C.3   165  PHE165      0.0534
      6  CG        19.7070    3.6180   67.0740 C.ar  165  PHE165     -0.0203
      7  CD1       19.2430    3.8240   68.3730 C.ar  165  PHE165     -0.0042
      8  CD2       18.7760    3.3650   66.0710 C.ar  165  PHE165     -0.0042
      9  CE1       17.8780    3.8110   68.6570 C.ar  165  PHE165     -0.0003
     10  CE2       17.4110    3.3420   66.3560 C.ar  165  PHE165     -0.0003
     11  CZ        16.9700    3.5500   67.6500 C.ar  165  PHE165     -0.0000
     12  N         25.4480    7.1140   68.5690 N.3   167  TYR167     -0.1227
     13  CA        25.9870    7.8540   69.7070 C.3   167  TYR167      0.1736
     14  C         25.9150    7.1910   71.0820 C.2   167  TYR167      0.2596
     15  O         24.8530    6.6880   71.4960 O.2   167  TYR167     -0.2718
     16  CB        25.2700    9.1990   69.8200 C.3   167  TYR167      0.0548
     17  CG        25.3330   10.0560   68.5840 C.ar  167  TYR167     -0.0200
     18  CD1       26.5250   10.6490   68.1860 C.ar  167  TYR167     -0.0009
     19  CD2       24.1790   10.3580   67.8630 C.ar  167  TYR167     -0.0009
     20  CE1       26.5810   11.4750   67.0630 C.ar  167  TYR167      0.0417
     21  CE2       24.2180   11.2040   66.7560 C.ar  167  TYR167      0.0417
     22  CZ        25.4240   11.7550   66.3530 C.ar  167  TYR167      0.1957
     23  OH        25.4760   12.5960   65.2690 O.3   167  TYR167     -0.2866
     24  N         27.0240    7.3220   71.8460 N.am  168  SER168     -0.1938
     25  CA        27.1100    6.9370   73.2580 C.3   168  SER168      0.2040
     26  C         26.3210    8.0500   73.9980 C.2   168  SER168      0.2485
     27  O         26.2120    9.1650   73.4520 O.2   168  SER168     -0.2729
     28  CB        28.5600    6.9600   73.7170 C.3   168  SER168      0.2129
     29  OG        29.0550    8.2740   73.9230 O.3   168  SER168     -0.2179
     30  N         25.7880    7.8220   75.2260 N.am  169  PRO169     -0.2726
     31  CA        25.0140    8.9000   75.8910 C.3   169  PRO169      0.1402
     32  C         25.7180   10.2750   75.9340 C.2   169  PRO169      0.2269
     33  O         25.1010   11.3130   75.6560 O.2   169  PRO169     -0.2865
     34  CB        24.7150    8.3200   77.2680 C.3   169  PRO169      0.0296
     35  CG        24.7450    6.8630   77.0690 C.3   169  PRO169      0.0237
     36  CD        25.7770    6.5790   76.0290 C.3   169  PRO169      0.0939
     37  N         25.6920   11.8650   72.2890 N.3   172  ARG172     -0.1245
     38  CA        24.3740   12.4060   71.9650 C.3   172  ARG172      0.1563
     39  C         24.1870   13.7540   72.6140 C.2   172  ARG172      0.2260
     40  O         23.6970   14.6540   71.9680 O.2   172  ARG172     -0.2867
     41  CB        23.2960   11.4250   72.4130 C.3   172  ARG172      0.0307
     42  CG        21.8260   11.8190   72.1740 C.3   172  ARG172      0.0489
     43  CD        20.8820   10.7540   72.7240 C.3   172  ARG172      0.2205
     44  NE        21.3930    9.4000   72.4890 N.pl3 172  ARG172     -0.0865
     45  CZ        21.1360    8.6900   71.3960 C.cat 172  ARG172      0.5346
     46  NH1       20.3270    9.1690   70.4630 N.pl3 172  ARG172      0.1354
     47  NH2       21.6710    7.4850   71.2370 N.pl3 172  ARG172      0.1354
     48  N         23.7280   17.3270   70.7330 N.3   176  LEU176     -0.1245
     49  CA        22.5960   18.1850   71.0460 C.3   176  LEU176      0.1561
     50  C         23.0300   19.5760   71.4600 C.2   176  LEU176      0.2260
     51  O         22.5190   20.5700   70.9180 O.2   176  LEU176     -0.2867
     52  CB        21.7110   17.5680   72.1420 C.3   176  LEU176      0.0270
     53  CG        20.9060   16.3580   71.7330 C.3   176  LEU176      0.0019
     54  CD1       20.4350   15.6160   72.9440 C.3   176  LEU176      0.0001
     55  CD2       19.7480   16.7170   70.8190 C.3   176  LEU176      0.0001
     56  N         17.5560   14.5520   64.9000 N.3   286  LEU286     -0.1245
     57  CA        18.1370   13.3750   65.5710 C.3   286  LEU286      0.1561
     58  C         17.0150   12.3170   65.6000 C.2   286  LEU286      0.2260
     59  O         15.9110   12.5730   66.1160 O.2   286  LEU286     -0.2867
     60  CB        18.6940   13.7350   66.9620 C.3   286  LEU286      0.0270
     61  CG        19.5010   12.7010   67.7360 C.3   286  LEU286      0.0019
     62  CD1       20.6510   12.1290   66.9020 C.3   286  LEU286      0.0001
     63  CD2       20.0410   13.3080   69.0230 C.3   286  LEU286      0.0001
     64  N         15.8190    8.3150   66.3220 N.3   288  CYS288     -0.1235
     65  CA        15.9600    6.9930   66.9660 C.3   288  CYS288      0.1677
     66  C         14.6840    6.2090   66.7060 C.2   288  CYS288      0.2270
     67  O         13.7160    6.3600   67.4530 O.2   288  CYS288     -0.2867
     68  CB        16.2410    7.1290   68.4560 C.3   288  CYS288      0.0956
     69  SG        17.9550    7.5200   68.8240 S.3   288  CYS288     -0.0801
     70  N         11.2270    7.7610   67.2860 N.3   291  ASP291     -0.1239
     71  CA        11.5240    8.9550   68.0780 C.3   291  ASP291      0.1674
     72  C         12.3610    9.9410   67.3260 C.2   291  ASP291      0.2266
     73  O         13.4180    9.5780   66.8010 O.2   291  ASP291     -0.2867
     74  CB        12.2210    8.5770   69.4090 C.3   291  ASP291      0.1410
     75  CG        11.4250    7.6160   70.2910 C.2   291  ASP291      0.3668
     76  OD1       10.3230    8.0190   70.7730 O.co2 291  ASP291     -0.2456
     77  OD2       11.9020    6.4510   70.5020 O.co2 291  ASP291     -0.2456
     78  N         13.7050   14.3900   67.2640 N.3   293  VAL293     -0.1245
     79  CA        13.9010   15.7230   67.8420 C.3   293  VAL293      0.1561
     80  C         14.3960   16.6360   66.7200 C.2   293  VAL293      0.2260
     81  O         15.1890   16.1990   65.8680 O.2   293  VAL293     -0.2867
     82  CB        14.8480   15.7070   69.0960 C.3   293  VAL293      0.0252
     83  CG1       15.8270   16.8890   69.1310 C.3   293  VAL293      0.0019
     84  CG2       14.0430   15.6520   70.3780 C.3   293  VAL293      0.0019
     85  N         16.9320   24.0700   75.7230 N.3   332  LEU332     -0.1245
     86  CA        17.3090   22.6940   75.3680 C.3   332  LEU332      0.1561
     87  C         16.8450   21.7520   76.4750 C.2   332  LEU332      0.2260
     88  O         16.3060   20.6850   76.1840 O.2   332  LEU332     -0.2867
     89  CB        18.8280   22.5650   75.1180 C.3   332  LEU332      0.0270
     90  CG        19.4150   21.1610   74.8830 C.3   332  LEU332      0.0019
     91  CD1       18.8420   20.4950   73.6460 C.3   332  LEU332      0.0001
     92  CD2       20.9310   21.2080   74.7860 C.3   332  LEU332      0.0001
     93  N         13.0910   20.2000   76.4270 N.3   335  ILE335     -0.1245
     94  CA        12.6050   19.2070   75.4630 C.3   335  ILE335      0.1561
     95  C         12.6740   17.8220   76.0940 C.2   335  ILE335      0.2260
     96  O         13.7000   17.4810   76.7040 O.2   335  ILE335     -0.2867
     97  CB        13.4060   19.2800   74.1270 C.3   335  ILE335      0.0252
     98  CG1       13.2760   20.6540   73.4600 C.3   335  ILE335      0.0019
     99  CG2       13.0590   18.1360   73.1590 C.3   335  ILE335      0.0019
    100  CD1       14.5940   21.1570   72.8210 C.3   335  ILE335      0.0001
    101  N         12.3930   13.7550   75.0790 N.3   337  SER337     -0.1202
    102  CA        12.3880   12.7120   74.0590 C.3   337  SER337      0.2020
    103  C         13.0310   11.4640   74.6460 C.2   337  SER337      0.2619
    104  O         14.0560   11.5690   75.3400 O.2   337  SER337     -0.2717
    105  CB        13.1530   13.1700   72.8320 C.3   337  SER337      0.2103
    106  OG        13.0240   12.2320   71.7810 O.3   337  SER337     -0.2182
    107  N         12.4320   10.2780   74.3770 N.am  338  CYS338     -0.1969
    108  CA        12.8650    8.9680   74.9000 C.3   338  CYS338      0.1712
    109  C         12.8180    8.9740   76.3830 C.2   338  CYS338      0.2296
    110  O         13.7590    8.4870   77.0060 O.2   338  CYS338     -0.2864
    111  CB        14.2470    8.5860   74.3980 C.3   338  CYS338      0.0983
    112  SG        14.3280    8.4190   72.6190 S.3   338  CYS338     -0.0798
    113  N         13.5070   11.1860   78.3610 N.3   340  SER340     -0.1202
    114  CA        14.6200   11.9020   78.9370 C.3   340  SER340      0.2020
    115  C         14.5810   13.3800   78.6480 C.2   340  SER340      0.2619
    116  O         13.7540   13.8450   77.8620 O.2   340  SER340     -0.2717
    117  CB        15.9270   11.3070   78.4230 C.3   340  SER340      0.2103
    118  OG        15.9500    9.9000   78.5930 O.3   340  SER340     -0.2182
    119  N         15.5050   14.1130   79.2920 N.am  341  ASN341     -0.1960
    120  CA        15.7650   15.5350   79.1740 C.3   341  ASN341      0.1819
    121  C         17.2290   15.8530   79.5630 C.2   341  ASN341      0.2621
    122  O         17.8430   15.1890   80.4130 O.2   341  ASN341     -0.2715
    123  CB        14.7780   16.3770   80.0040 C.3   341  ASN341      0.1195
    124  CG        14.9600   16.2930   81.4910 C.2   341  ASN341      0.2630
    125  OD1       14.4020   15.4200   82.1570 O.2   341  ASN341     -0.2716
    126  ND2       15.7080   17.2300   82.0570 N.am  341  ASN341     -0.0877
    127  N         17.7550   16.9320   78.9480 N.am  342  VAL342     -0.1977
    128  CA        19.0920   17.4400   79.2130 C.3   342  VAL342      0.1596
    129  C         19.0240   18.2270   80.5170 C.2   342  VAL342      0.2287
    130  O         18.0700   18.9640   80.7570 O.2   342  VAL342     -0.2864
    131  CB        19.6000   18.3370   78.0570 C.3   342  VAL342      0.0276
    132  CG1       21.0550   18.7230   78.2620 C.3   342  VAL342      0.0022
    133  CG2       19.4330   17.6450   76.7150 C.3   342  VAL342      0.0022
    134  N         21.9890   13.5120   80.1690 N.3   356  LEU356     -0.1245
    135  CA        20.5880   13.1570   79.9480 C.3   356  LEU356      0.1561
    136  C         20.0860   12.5590   81.2660 C.2   356  LEU356      0.2260
    137  O         20.7770   11.7530   81.8940 O.2   356  LEU356     -0.2867
    138  CB        20.3830   12.1470   78.7820 C.3   356  LEU356      0.0270
    139  CG        20.7280   12.5910   77.3620 C.3   356  LEU356      0.0019
    140  CD1       21.0670   11.4100   76.4820 C.3   356  LEU356      0.0001
    141  CD2       19.6110   13.4510   76.7390 C.3   356  LEU356      0.0001
    142  N         23.8310    2.1140   83.8070 N.3   385  ILE385     -0.1231
    143  CA        24.6420    2.4100   82.6280 C.3   385  ILE385      0.1692
    144  C         24.1360    3.6840   81.8950 C.2   385  ILE385      0.2591
    145  O         24.9030    4.6250   81.7020 O.2   385  ILE385     -0.2718
    146  CB        24.6650    1.1930   81.6980 C.3   385  ILE385      0.0266
    147  CG1       25.1590   -0.0660   82.4480 C.3   385  ILE385      0.0019
    148  CG2       25.5050    1.4940   80.4490 C.3   385  ILE385      0.0020
    149  CD1       24.7520   -1.3910   81.8180 C.3   385  ILE385      0.0001
    150  N         22.8400    3.7160   81.5360 N.am  386  MET386     -0.1979
    151  CA        22.2070    4.8310   80.8320 C.3   386  MET386      0.1605
    152  C         22.3100    6.2050   81.5670 C.2   386  MET386      0.2287
    153  O         22.7060    7.2140   80.9630 O.2   386  MET386     -0.2864
    154  CB        20.7370    4.4760   80.5100 C.3   386  MET386      0.0413
    155  CG        20.0320    5.5000   79.6200 C.3   386  MET386      0.0598
    156  SD        20.7440    5.8140   77.9530 S.3   386  MET386     -0.1393
    157  CE        20.7730    7.5970   77.9920 C.3   386  MET386      0.0692
    158  N         18.6180   -1.9200   77.7680 N.3   419  ILE419     -0.1231
    159  CA        18.7570   -0.4820   77.5850 C.3   419  ILE419      0.1692
    160  C         18.0140   -0.1790   76.2780 C.2   419  ILE419      0.2592
    161  O         18.5080   -0.5180   75.2000 O.2   419  ILE419     -0.2718
    162  CB        20.2300    0.0610   77.5890 C.3   419  ILE419      0.0266
    163  CG1       21.0000   -0.3620   78.8590 C.3   419  ILE419      0.0019
    164  CG2       20.2490    1.6130   77.3950 C.3   419  ILE419      0.0020
    165  CD1       22.5270   -0.1830   78.8520 C.3   419  ILE419      0.0001
    166  N         16.8070    0.4120   76.3870 N.am  420  TYR420     -0.1976
    167  CA        15.9790    0.8100   75.2490 C.3   420  TYR420      0.1639
    168  C         15.8800   -0.3130   74.2090 C.2   420  TYR420      0.2290
    169  O         16.1710   -0.1100   73.0260 O.2   420  TYR420     -0.2864
    170  CB        16.5280    2.1140   74.6060 C.3   420  TYR420      0.0560
    171  CG        16.3950    3.3550   75.4610 C.ar  420  TYR420     -0.0198
    172  CD1       15.2190    4.0980   75.4660 C.ar  420  TYR420     -0.0009
    173  CD2       17.4620    3.8180   76.2260 C.ar  420  TYR420     -0.0009
    174  CE1       15.0990    5.2600   76.2200 C.ar  420  TYR420      0.0417
    175  CE2       17.3400    4.9540   77.0220 C.ar  420  TYR420      0.0417
    176  CZ        16.1590    5.6810   77.0040 C.ar  420  TYR420      0.1957
    177  OH        16.0130    6.8160   77.7620 O.3   420  TYR420     -0.2866
    178  N         17.7980   -2.8420   73.3130 N.3   422  ALA422     -0.1245
    179  CA        19.1080   -3.4910   73.2920 C.3   422  ALA422      0.1562
    180  C         19.4980   -4.1800   74.6310 C.2   422  ALA422      0.2260
    181  O         19.6800   -3.5410   75.6770 O.2   422  ALA422     -0.2867
    182  CB        20.1720   -2.5010   72.8680 C.3   422  ALA422      0.0290
    183  N         22.0650   -6.4840   77.0070 N.3   424  TYR424     -0.1241
    184  CA        23.5100   -6.6450   77.2180 C.3   424  TYR424      0.1605
    185  C         23.8160   -7.4910   78.4580 C.2   424  TYR424      0.2264
    186  O         23.0930   -7.4280   79.4520 O.2   424  TYR424     -0.2867
    187  CB        24.1870   -5.2700   77.4150 C.3   424  TYR424      0.0534
    188  CG        23.9030   -4.2210   76.3600 C.ar  424  TYR424     -0.0201
    189  CD1       24.7120   -4.0980   75.2370 C.ar  424  TYR424     -0.0009
    190  CD2       22.8440   -3.3290   76.5020 C.ar  424  TYR424     -0.0009
    191  CE1       24.4510   -3.1430   74.2600 C.ar  424  TYR424      0.0417
    192  CE2       22.5740   -2.3700   75.5310 C.ar  424  TYR424      0.0417
    193  CZ        23.3800   -2.2820   74.4090 C.ar  424  TYR424      0.1957
    194  OH        23.1420   -1.3200   73.4550 O.3   424  TYR424     -0.2866
    195  N         31.1720    5.5410   78.0650 N.3   438  LEU438     -0.1245
    196  CA        29.8910    6.0660   77.6060 C.3   438  LEU438      0.1561
    197  C         29.5970    7.5180   78.0020 C.2   438  LEU438      0.2260
    198  O         28.8260    8.1730   77.2860 O.2   438  LEU438     -0.2867
    199  CB        28.7380    5.1570   78.0590 C.3   438  LEU438      0.0270
    200  CG        28.7890    3.6760   77.6570 C.3   438  LEU438      0.0019
    201  CD1       27.5430    2.9810   78.0510 C.3   438  LEU438      0.0001
    202  CD2       28.9820    3.5100   76.1840 C.3   438  LEU438      0.0001
    203  N         33.5320   -0.9340   72.2400 N.3   519  LEU519     -0.1245
    204  CA        32.1630   -0.4520   72.3310 C.3   519  LEU519      0.1561
    205  C         31.5800   -0.2160   70.9360 C.2   519  LEU519      0.2260
    206  O         30.4420    0.2420   70.7930 O.2   519  LEU519     -0.2867
    207  CB        32.0820    0.7910   73.2380 C.3   519  LEU519      0.0270
    208  CG        32.0860    0.5640   74.7790 C.3   519  LEU519      0.0019
    209  CD1       31.1480   -0.5590   75.2160 C.3   519  LEU519      0.0001
    210  CD2       33.4720    0.3350   75.3330 C.3   519  LEU519      0.0001
    211  N         27.6000   -1.7690   70.3090 N.3   522  TRP522     -0.1227
    212  CA        26.3850   -0.9840   70.5090 C.3   522  TRP522      0.1737
    213  C         26.4370    0.2470   69.6040 C.2   522  TRP522      0.2595
    214  O         25.4550    0.5430   68.9200 O.2   522  TRP522     -0.2718
    215  CB        26.2450   -0.5760   71.9860 C.3   522  TRP522      0.0564
    216  CG        25.1480    0.3850   72.3320 C.ar  522  TRP522      0.0003
    217  CD1       24.0820    0.7270   71.5580 C.ar  522  TRP522      0.0946
    218  CD2       24.9870    1.0950   73.5550 C.ar  522  TRP522      0.0152
    219  NE1       23.3020    1.6550   72.2430 N.ar  522  TRP522     -0.2442
    220  CE2       23.8400    1.8800   73.4510 C.ar  522  TRP522      0.0810
    221  CE3       25.7570    1.1660   74.6960 C.ar  522  TRP522      0.0012
    222  CZ2       23.4040    2.7420   74.4360 C.ar  522  TRP522      0.0191
    223  CZ3       25.3250    1.9810   75.6950 C.ar  522  TRP522      0.0001
    224  CH2       24.1860    2.7600   75.5600 C.ar  522  TRP522      0.0015
    225  N         27.6110    0.9200   69.5550 N.am  523  PHE523     -0.1976
    226  CA        27.8740    2.1320   68.7760 C.3   523  PHE523      0.1639
    227  C         28.0840    1.8880   67.2670 C.2   523  PHE523      0.2290
    228  O         29.1240    2.2880   66.7260 O.2   523  PHE523     -0.2864
    229  CB        29.0610    2.9040   69.3830 C.3   523  PHE523      0.0560
    230  CG        29.6120    4.0730   68.6060 C.ar  523  PHE523     -0.0200
    231  CD1       30.3270    3.9500   67.4440 C.ar  523  PHE523     -0.0042
    232  CD2       29.5720    5.3620   69.2020 C.ar  523  PHE523     -0.0042
    233  CE1       30.9510    5.0060   66.8400 C.ar  523  PHE523     -0.0003
    234  CE2       30.1910    6.4240   68.5920 C.ar  523  PHE523     -0.0003
    235  CZ        30.9070    6.2520   67.4300 C.ar  523  PHE523     -0.0000
@<TRIPOS>BOND
     1    56    57    1
     2    23    22    1
     3    57    58    1
     4    57    60    1
     5    58    59    2
     6    81    80    2
     7     8    10   ar
     8     8     6   ar
     9    64    65    1
    10    22    21   ar
    11    22    20   ar
    12    10    11   ar
    13     1     2    1
    14    66    65    1
    15    66    67    2
    16    80    79    1
    17   228   227    2
    18    21    19   ar
    19     5     6    1
    20     5     2    1
    21    73    72    2
    22   233   235   ar
    23   233   231   ar
    24    62    61    1
    25    60    61    1
    26    65    68    1
    27     3     2    1
    28     3     4    2
    29    20    18   ar
    30     6     7   ar
    31    78    79    1
    32   227   226    1
    33    70    71    1
    34    72    71    1
    35   235   234   ar
    36   231   230   ar
    37    11     9   ar
    38    61    63    1
    39    79    82    1
    40    19    17   ar
    41    71    74    1
    42    18    17   ar
    43     7     9   ar
    44    68    69    1
    45    12    13    1
    46    17    16    1
    47   234   232   ar
    48   230   232   ar
    49   230   229    1
    50   226   229    1
    51   226   225    1
    52   214   213    2
    53    82    83    1
    54    82    84    1
    55    74    75    1
    56   225   213   am
    57   213   212    1
    58    13    16    1
    59    13    14    1
    60    75    77   ar
    61    75    76   ar
    62   211   212    1
    63    46    45    1
    64   212   215    1
    65    48    49    1
    66   206   205    2
    67    55    53    1
    68    51    50    2
    69   205   204    1
    70    49    50    1
    71    49    52    1
    72    14    15    2
    73    14    24   am
    74    47    45    1
    75    45    44    2
    76   217   219   ar
    77   217   216   ar
    78    53    52    1
    79    53    54    1
    80   106   105    1
    81    24    25    1
    82    38    37    1
    83    38    41    1
    84    38    39    1
    85    40    39    2
    86   215   216    1
    87    42    41    1
    88    42    43    1
    89   203   204    1
    90   219   220   ar
    91   204   207    1
    92   216   218   ar
    93    44    43    1
    94   112   111    1
    95   100    98    1
    96   105   102    1
    97   182   179    1
    98   169   168    2
    99    99    97    1
   100   207   208    1
   101    25    28    1
   102    25    26    1
   103   179   178    1
   104   179   180    1
   105   220   218   ar
   106   220   222   ar
   107    27    26    2
   108   194   193    1
   109    98    97    1
   110   218   221   ar
   111    91    90    1
   112    28    29    1
   113    26    30   am
   114   102   103    1
   115   102   101    1
   116    97    94    1
   117   168   167    1
   118   191   193   ar
   119   191   189   ar
   120   107   103   am
   121   107   108    1
   122   111   108    1
   123   193   192   ar
   124   222   224   ar
   125   170   167    1
   126   170   171    1
   127   180   181    2
   128   103   104    2
   129   221   223   ar
   130   208   209    1
   131   208   210    1
   132    92    90    1
   133    90    89    1
   134   108   109    1
   135    89    86    1
   136   161   160    2
   137    30    31    1
   138    30    36    1
   139   189   188   ar
   140   167   166    1
   141    86    85    1
   142    86    87    1
   143   171   172   ar
   144   171   173   ar
   145    94    95    1
   146    94    93    1
   147   172   174   ar
   148   192   190   ar
   149   224   223   ar
   150    33    32    2
   151    31    32    1
   152    31    34    1
   153    36    35    1
   154    95    96    2
   155   202   200    1
   156    88    87    2
   157   174   176   ar
   158   173   175   ar
   159   160   166   am
   160   160   159    1
   161   188   190   ar
   162   188   187    1
   163   109   110    2
   164   140   139    1
   165   133   131    1
   166   141   139    1
   167   176   175   ar
   168   176   177    1
   169   183   184    1
   170    35    34    1
   171   184   187    1
   172   184   185    1
   173   198   197    2
   174   139   138    1
   175   164   162    1
   176   159   162    1
   177   159   158    1
   178   162   163    1
   179   196   197    1
   180   196   199    1
   181   196   195    1
   182   200   201    1
   183   200   199    1
   184   116   115    2
   185   156   157    1
   186   156   155    1
   187   131   132    1
   188   131   128    1
   189   113   114    1
   190   117   118    1
   191   117   114    1
   192   185   186    2
   193   115   114    1
   194   115   119   am
   195   138   135    1
   196   165   163    1
   197   127   128    1
   198   127   121   am
   199   120   119    1
   200   120   121    1
   201   120   123    1
   202   128   129    1
   203   121   122    2
   204   155   154    1
   205   135   134    1
   206   135   136    1
   207   123   124    1
   208   148   146    1
   209   154   151    1
   210   129   130    2
   211   151   150    1
   212   151   152    1
   213   153   152    2
   214   136   137    2
   215   124   126   am
   216   124   125    2
   217   150   144   am
   218   146   147    1
   219   146   143    1
   220   145   144    2
   221   149   147    1
   222   144   143    1
   223   143   142    1
