@<TRIPOS>MOLECULE
tmp/5pzqD00.pdb
 112 105 0 0 0
SMALL
GASTEIGER

@<TRIPOS>ATOM
      1  N         28.2440   -0.1140    6.5080 N.3     9  VAL9       -0.1245
      2  CA        28.0460   -1.0800    5.4390 C.3     9  VAL9        0.1561
      3  C         27.8980   -0.3700    4.1030 C.2     9  VAL9        0.2260
      4  O         28.5020   -0.7660    3.1010 O.2     9  VAL9       -0.2867
      5  CB        26.8290   -1.9600    5.7740 C.3     9  VAL9        0.0252
      6  CG1       26.3220   -2.6910    4.5620 C.3     9  VAL9        0.0019
      7  CG2       27.1890   -2.9330    6.8920 C.3     9  VAL9        0.0019
      8  N         31.3520    0.9430    2.8280 N.3    12  GLU12      -0.1231
      9  CA        32.2090   -0.0920    2.2520 C.3    12  GLU12       0.1699
     10  C         31.7280   -0.5150    0.8720 C.2    12  GLU12       0.2592
     11  O         32.5480   -0.7890   -0.0100 O.2    12  GLU12      -0.2718
     12  CB        32.2860   -1.3090    3.1750 C.3    12  GLU12       0.0402
     13  CG        33.0830   -1.0680    4.4160 C.3    12  GLU12       0.1161
     14  CD        34.5640   -0.9400    4.1100 C.2    12  GLU12       0.3649
     15  OE1       35.1380   -1.9110    3.5670 O.co2  12  GLU12      -0.2457
     16  OE2       35.1380    0.1400    4.3770 O.co2  12  GLU12      -0.2457
     17  N         30.4060   -0.5920    0.6760 N.am   13  GLY13      -0.1957
     18  CA        29.8720   -0.9260   -0.6340 C.3    13  GLY13       0.1869
     19  C         30.1340    0.1520   -1.6690 C.2    13  GLY13       0.2309
     20  O         30.4900   -0.1470   -2.8140 O.2    13  GLY13      -0.2863
     21  N         33.6080   -0.2330   -2.9040 N.3    16  ALA16      -0.1245
     22  CA        33.8000   -1.4190   -3.7290 C.3    16  ALA16       0.1562
     23  C         33.0870   -1.3180   -5.0690 C.2    16  ALA16       0.2260
     24  O         33.4170   -2.0850   -5.9820 O.2    16  ALA16      -0.2867
     25  CB        33.3170   -2.6760   -3.0020 C.3    16  ALA16       0.0290
     26  N         30.2190   -2.2330   -6.2000 N.3    18  GLY18      -0.1210
     27  CA        29.6030   -3.4810   -6.5870 C.3    18  GLY18       0.1956
     28  C         28.1410   -3.3120   -6.9590 C.2    18  GLY18       0.2613
     29  O         27.6270   -2.2080   -7.1550 O.2    18  GLY18      -0.2717
     30  N         27.4620   -4.4470   -7.0510 N.am   19  THR19      -0.1938
     31  CA        26.0610   -4.4420   -7.4270 C.3    19  THR19       0.2028
     32  C         25.1610   -3.7710   -6.3870 C.2    19  THR19       0.2643
     33  O         24.0540   -3.3470   -6.7300 O.2    19  THR19      -0.2714
     34  CB        25.6190   -5.8840   -7.6570 C.3    19  THR19       0.1808
     35  OG1       25.8670   -6.6470   -6.4710 O.3    19  THR19      -0.2208
     36  CG2       26.4140   -6.5000   -8.7900 C.3    19  THR19       0.0379
     37  N         25.6080   -3.6530   -5.1380 N.am   20  GLY20      -0.1939
     38  CA        24.7790   -3.1980   -4.0410 C.3    20  GLY20       0.2014
     39  C         24.0620   -4.3090   -3.2940 C.2    20  GLY20       0.2639
     40  O         23.4240   -4.0370   -2.2640 O.2    20  GLY20      -0.2714
     41  N         24.1860   -5.5570   -3.7550 N.am   21  GLU21      -0.1963
     42  CA        23.4790   -6.6700   -3.1330 C.3    21  GLU21       0.1733
     43  C         23.9550   -6.9100   -1.6950 C.2    21  GLU21       0.2616
     44  O         23.1610   -6.8930   -0.7470 O.2    21  GLU21      -0.2715
     45  CB        23.6700   -7.9370   -3.9790 C.3    21  GLU21       0.0429
     46  CG        22.7710   -8.0160   -5.1940 C.3    21  GLU21       0.1163
     47  CD        23.0770   -9.1960   -6.1010 C.2    21  GLU21       0.3649
     48  OE1       22.5720  -10.3140   -5.8250 O.co2  21  GLU21      -0.2457
     49  OE2       23.8110   -9.0010   -7.0990 O.co2  21  GLU21      -0.2457
     50  N         25.2620   -7.0980   -1.5110 N.am   22  LEU22      -0.1963
     51  CA        25.8150   -7.4090   -0.2010 C.3    22  LEU22       0.1728
     52  C         25.4830   -6.3440    0.8210 C.2    22  LEU22       0.2616
     53  O         25.4570   -6.6370    2.0230 O.2    22  LEU22      -0.2715
     54  CB        27.3320   -7.5620   -0.2900 C.3    22  LEU22       0.0311
     55  CG        28.1000   -7.9760    0.9600 C.3    22  LEU22       0.0022
     56  CD1       27.5950   -9.3120    1.5000 C.3    22  LEU22       0.0001
     57  CD2       29.5740   -8.0350    0.6830 C.3    22  LEU22       0.0001
     58  N         25.2300   -5.1140    0.3740 N.am   23  THR23      -0.1951
     59  CA        24.8390   -4.0670    1.3080 C.3    23  THR23       0.1897
     60  C         23.4190   -4.3010    1.8260 C.2    23  THR23       0.2313
     61  O         23.1820   -4.2620    3.0390 O.2    23  THR23      -0.2863
     62  CB        24.9760   -2.7050    0.6280 C.3    23  THR23       0.1794
     63  OG1       26.2980   -2.5920    0.0860 O.3    23  THR23      -0.2208
     64  CG2       24.7970   -1.5800    1.6310 C.3    23  THR23       0.0378
     65  N         23.3410   -7.4800    4.2300 N.3    26  LEU26      -0.1245
     66  CA        23.7500   -7.2140    5.5960 C.3    26  LEU26       0.1561
     67  C         22.7520   -6.3060    6.2960 C.2    26  LEU26       0.2260
     68  O         22.4600   -6.5050    7.4820 O.2    26  LEU26      -0.2867
     69  CB        25.1460   -6.5950    5.6030 C.3    26  LEU26       0.0270
     70  CG        26.2570   -7.5630    5.2020 C.3    26  LEU26       0.0019
     71  CD1       27.5440   -6.7850    5.0210 C.3    26  LEU26       0.0001
     72  CD2       26.4090   -8.6480    6.2410 C.3    26  LEU26       0.0001
     73  N         23.0560  -13.1320   -5.7240 N.3    94  LYS94      -0.1231
     74  CA        24.2170  -13.9620   -6.0270 C.3    94  LYS94       0.1693
     75  C         24.9800  -14.4380   -4.7820 C.2    94  LYS94       0.2592
     76  O         26.1060  -14.9450   -4.9070 O.2    94  LYS94      -0.2718
     77  CB        25.1080  -13.2370   -7.0420 C.3    94  LYS94       0.0285
     78  CG        25.7720  -11.9380   -6.5920 C.3    94  LYS94       0.0035
     79  CD        26.8230  -11.5260   -7.6160 C.3    94  LYS94       0.0206
     80  CE        27.1950  -10.0460   -7.5240 C.3    94  LYS94       0.1093
     81  NZ        28.0760   -9.6990   -6.3750 N.3    94  LYS94      -0.1314
     82  N         24.3710  -14.3540   -3.5960 N.am   95  TYR95      -0.1976
     83  CA        25.0660  -14.6910   -2.3620 C.3    95  TYR95       0.1639
     84  C         24.4690  -15.9240   -1.6940 C.2    95  TYR95       0.2290
     85  O         23.2880  -16.2530   -1.8630 O.2    95  TYR95      -0.2864
     86  CB        25.0820  -13.5120   -1.3860 C.3    95  TYR95       0.0560
     87  CG        26.0690  -12.4490   -1.8020 C.ar   95  TYR95      -0.0198
     88  CD1       27.4250  -12.5920   -1.5300 C.ar   95  TYR95      -0.0009
     89  CD2       25.6530  -11.3110   -2.4880 C.ar   95  TYR95      -0.0009
     90  CE1       28.3500  -11.6210   -1.9320 C.ar   95  TYR95       0.0417
     91  CE2       26.5680  -10.3360   -2.8970 C.ar   95  TYR95       0.0417
     92  CZ        27.9130  -10.5000   -2.6190 C.ar   95  TYR95       0.1957
     93  OH        28.8140   -9.5390   -3.0150 O.3    95  TYR95      -0.2866
     94  N         29.9040  -15.9360   -2.0440 N.3   122  ARG122     -0.1245
     95  CA        29.3920  -15.6330   -3.3730 C.3   122  ARG122      0.1563
     96  C         29.1350  -16.9310   -4.1250 C.2   122  ARG122      0.2260
     97  O         29.9320  -17.8690   -4.0420 O.2   122  ARG122     -0.2867
     98  CB        30.3800  -14.7680   -4.1520 C.3   122  ARG122      0.0307
     99  CG        29.7790  -14.0610   -5.3540 C.3   122  ARG122      0.0489
    100  CD        30.7120  -12.9720   -5.8720 C.3   122  ARG122      0.2205
    101  NE        30.7960  -11.8650   -4.9240 N.pl3 122  ARG122     -0.0865
    102  CZ        31.8930  -11.5650   -4.2330 C.cat 122  ARG122      0.5346
    103  NH1       32.9980  -12.2820   -4.4030 N.pl3 122  ARG122      0.1354
    104  NH2       31.8880  -10.5480   -3.3770 N.pl3 122  ARG122      0.1354
    105  N         35.0790   -8.7050    7.7760 N.3   159  MET159     -0.1245
    106  CA        35.2190   -8.7120    6.3270 C.3   159  MET159      0.1570
    107  C         36.7080   -8.5510    6.0250 C.2   159  MET159      0.2261
    108  O         37.5530   -8.5970    6.9300 O.2   159  MET159     -0.2867
    109  CB        34.3710   -7.6030    5.7050 C.3   159  MET159      0.0387
    110  CG        32.8980   -7.8560    5.7090 C.3   159  MET159      0.0595
    111  SD        32.0270   -6.4710    4.9450 S.3   159  MET159     -0.1393
    112  CE        32.7590   -5.1040    5.8260 C.3   159  MET159      0.0692
@<TRIPOS>BOND
     1    36    34    1
     2    34    31    1
     3    34    35    1
     4    79    80    1
     5    79    78    1
     6    80    81    1
     7    31    30    1
     8    31    32    1
     9    29    28    2
    10    49    47   ar
    11    30    28   am
    12    77    78    1
    13    77    74    1
    14    28    27    1
    15    33    32    2
    16    27    26    1
    17    32    37   am
    18    47    48   ar
    19    47    46    1
    20    74    73    1
    21    74    75    1
    22    24    23    2
    23   100    99    1
    24   100   101    1
    25    99    98    1
    26    46    45    1
    27    37    38    1
    28    23    22    1
    29   101   102    2
    30    76    75    2
    31    75    82   am
    32   103   102    1
    33   102   104    1
    34    98    95    1
    35    96    97    2
    36    96    95    1
    37    38    39    1
    38    45    42    1
    39    41    39   am
    40    41    42    1
    41    22    25    1
    42    22    21    1
    43    82    83    1
    44    95    94    1
    45    39    40    2
    46    42    43    1
    47    93    92    1
    48    91    92   ar
    49    91    89   ar
    50    20    19    2
    51    92    90   ar
    52    89    87   ar
    53    83    84    1
    54    83    86    1
    55    90    88   ar
    56    85    84    2
    57    87    88   ar
    58    87    86    1
    59    43    50   am
    60    43    44    2
    61    19    18    1
    62    50    51    1
    63    18    17    1
    64    54    51    1
    65    54    55    1
    66    51    52    1
    67    11    10    2
    68    63    62    1
    69    58    52   am
    70    58    59    1
    71    62    59    1
    72    62    64    1
    73    17    10   am
    74    57    55    1
    75    52    53    2
    76    10     9    1
    77    55    56    1
    78    59    60    1
    79    60    61    2
    80     9     8    1
    81     9    12    1
    82     4     3    2
    83    12    13    1
    84    15    14   ar
    85     3     2    1
    86    14    16   ar
    87    14    13    1
    88    65    66    1
    89     6     5    1
    90   111   110    1
    91   111   112    1
    92    71    70    1
    93    70    69    1
    94    70    72    1
    95     2     5    1
    96     2     1    1
    97    66    69    1
    98    66    67    1
    99   109   110    1
   100   109   106    1
   101     5     7    1
   102   107   106    1
   103   107   108    2
   104    67    68    2
   105   106   105    1
