@<TRIPOS>MOLECULE
tmp/5pzrA00.pdb
 120 114 0 0 0
SMALL
GASTEIGER

@<TRIPOS>ATOM
      1  N         22.1560   54.5410   25.3380 N.3     9  VAL9       -0.1231
      2  CA        21.5140   55.1290   24.1640 C.3     9  VAL9        0.1692
      3  C         20.5350   56.2320   24.5660 C.2     9  VAL9        0.2591
      4  O         20.4230   57.2560   23.8750 O.2     9  VAL9       -0.2718
      5  CB        20.8390   54.0390   23.3050 C.3     9  VAL9        0.0266
      6  CG1       21.8920   53.0770   22.7500 C.3     9  VAL9        0.0020
      7  CG2       19.7700   53.2920   24.0940 C.3     9  VAL9        0.0020
      8  N         19.8160   56.0530   25.6830 N.am   10  MET10      -0.1979
      9  CA        18.9510   57.1210   26.1850 C.3    10  MET10       0.1605
     10  C         19.7440   58.4030   26.4220 C.2    10  MET10       0.2287
     11  O         19.2870   59.5070   26.0960 O.2    10  MET10      -0.2864
     12  CB        18.2780   56.6940   27.4920 C.3    10  MET10       0.0413
     13  CG        17.0740   55.7750   27.3720 C.3    10  MET10       0.0598
     14  SD        15.6220   56.5440   26.6400 S.3    10  MET10      -0.1393
     15  CE        15.0040   57.5670   27.9770 C.3    10  MET10       0.0692
     16  N         22.7780   59.2470   25.1310 N.3    12  GLU12      -0.1231
     17  CA        23.2270   59.8010   23.8580 C.3    12  GLU12       0.1699
     18  C         22.0770   60.5160   23.1560 C.2    12  GLU12       0.2593
     19  O         22.2740   61.5550   22.5150 O.2    12  GLU12      -0.2718
     20  CB        23.7970   58.6930   22.9710 C.3    12  GLU12       0.0402
     21  CG        25.1420   58.1520   23.4490 C.3    12  GLU12       0.1161
     22  CD        26.2450   59.2020   23.4740 C.2    12  GLU12       0.3649
     23  OE1       26.3520   59.9800   22.5000 O.co2  12  GLU12      -0.2457
     24  OE2       26.9920   59.2590   24.4800 O.co2  12  GLU12      -0.2457
     25  N         20.8600   59.9840   23.2940 N.am   13  GLY13      -0.1942
     26  CA        19.7110   60.6200   22.6730 C.3    13  GLY13       0.2014
     27  C         19.3250   61.9370   23.3220 C.2    13  GLY13       0.2638
     28  O         18.9870   62.9010   22.6320 O.2    13  GLY13      -0.2714
     29  N         19.3660   62.0010   24.6560 N.am   14  ARG14      -0.1977
     30  CA        19.0530   63.2590   25.3230 C.3    14  ARG14       0.1597
     31  C         20.0820   64.3260   24.9690 C.2    14  ARG14       0.2287
     32  O         19.7290   65.4920   24.7690 O.2    14  ARG14      -0.2864
     33  CB        18.9640   63.0560   26.8390 C.3    14  ARG14       0.0334
     34  CG        17.7910   62.1620   27.2600 C.3    14  ARG14       0.0492
     35  CD        17.5220   62.1520   28.7690 C.3    14  ARG14       0.2205
     36  NE        16.8360   63.3630   29.2200 N.pl3  14  ARG14      -0.0865
     37  CZ        16.5580   63.6410   30.4920 C.cat  14  ARG14       0.5346
     38  NH1       16.9060   62.7960   31.4530 N.pl3  14  ARG14       0.1354
     39  NH2       15.9280   64.7650   30.8080 N.pl3  14  ARG14       0.1354
     40  N         21.5460   64.5850   22.1000 N.3    16  ALA16      -0.1245
     41  CA        21.2160   65.0140   20.7520 C.3    16  ALA16       0.1562
     42  C         19.8220   65.6170   20.6570 C.2    16  ALA16       0.2260
     43  O         19.4290   66.0540   19.5700 O.2    16  ALA16      -0.2867
     44  CB        21.3430   63.8330   19.7860 C.3    16  ALA16       0.0290
     45  N         17.0430   64.0770   20.7630 N.3    18  GLY18      -0.1210
     46  CA        16.2530   63.2430   19.8820 C.3    18  GLY18       0.1956
     47  C         14.9070   62.8420   20.4740 C.2    18  GLY18       0.2613
     48  O         14.6750   62.9120   21.6820 O.2    18  GLY18      -0.2717
     49  N         14.0180   62.3720   19.5970 N.am   19  THR19      -0.1938
     50  CA        12.6790   61.9690   20.0120 C.3    19  THR19       0.2028
     51  C         12.6280   60.5700   20.6100 C.2    19  THR19       0.2643
     52  O         11.5500   60.1550   21.0520 O.2    19  THR19      -0.2714
     53  CB        11.6920   62.0160   18.8380 C.3    19  THR19       0.1808
     54  OG1       12.0370   61.0050   17.8750 O.3    19  THR19      -0.2208
     55  CG2       11.7010   63.3770   18.1740 C.3    19  THR19       0.0379
     56  N         13.7360   59.8230   20.5940 N.am   20  GLY20      -0.1939
     57  CA        13.7660   58.4770   21.1290 C.3    20  GLY20       0.2014
     58  C         13.5220   57.3620   20.1320 C.2    20  GLY20       0.2639
     59  O         13.5730   56.1840   20.5200 O.2    20  GLY20      -0.2714
     60  N         13.2480   57.6850   18.8670 N.am   21  GLU21      -0.1963
     61  CA        12.8860   56.6500   17.9000 C.3    21  GLU21       0.1733
     62  C         14.0500   55.7040   17.6270 C.2    21  GLU21       0.2616
     63  O         13.8650   54.4820   17.5590 O.2    21  GLU21      -0.2715
     64  CB        12.4160   57.2980   16.6000 C.3    21  GLU21       0.0429
     65  CG        11.8550   56.3250   15.5790 C.3    21  GLU21       0.1163
     66  CD        11.1390   57.0310   14.4340 C.2    21  GLU21       0.3649
     67  OE1       10.9680   58.2690   14.5000 O.co2  21  GLU21      -0.2457
     68  OE2       10.7350   56.3470   13.4740 O.co2  21  GLU21      -0.2457
     69  N         15.2620   56.2430   17.4780 N.am   22  LEU22      -0.1963
     70  CA        16.4110   55.3740   17.2620 C.3    22  LEU22       0.1728
     71  C         16.6930   54.5100   18.4920 C.2    22  LEU22       0.2616
     72  O         17.0740   53.3410   18.3610 O.2    22  LEU22      -0.2715
     73  CB        17.6350   56.2060   16.8920 C.3    22  LEU22       0.0311
     74  CG        18.9350   55.4180   16.7100 C.3    22  LEU22       0.0022
     75  CD1       18.7740   54.3450   15.6250 C.3    22  LEU22       0.0001
     76  CD2       20.0890   56.3400   16.3790 C.3    22  LEU22       0.0001
     77  N         16.5000   55.0600   19.6930 N.am   23  THR23      -0.1951
     78  CA        16.6320   54.2570   20.9110 C.3    23  THR23       0.1897
     79  C         15.6290   53.1060   20.9380 C.2    23  THR23       0.2313
     80  O         15.9670   51.9900   21.3580 O.2    23  THR23      -0.2863
     81  CB        16.4780   55.1530   22.1450 C.3    23  THR23       0.1794
     82  OG1       17.6950   55.8870   22.3480 O.3    23  THR23      -0.2208
     83  CG2       16.1300   54.3320   23.4150 C.3    23  THR23       0.0378
     84  N         17.0090   50.4660   18.6560 N.3    26  LEU26      -0.1245
     85  CA        18.1520   49.7600   19.2300 C.3    26  LEU26       0.1561
     86  C         17.7300   48.8610   20.3890 C.2    26  LEU26       0.2260
     87  O         18.2750   47.7590   20.5580 O.2    26  LEU26      -0.2867
     88  CB        19.2120   50.7630   19.6880 C.3    26  LEU26       0.0270
     89  CG        19.9100   51.5180   18.5510 C.3    26  LEU26       0.0019
     90  CD1       20.8320   52.5920   19.0920 C.3    26  LEU26       0.0001
     91  CD2       20.6840   50.5670   17.6460 C.3    26  LEU26       0.0001
     92  N         10.9680   55.8670   10.7170 N.3    96  LYS96      -0.1231
     93  CA        11.7350   56.6120    9.7310 C.3    96  LYS96       0.1693
     94  C         13.0270   55.9290    9.3000 C.2    96  LYS96       0.2592
     95  O         13.7360   56.4810    8.4510 O.2    96  LYS96      -0.2718
     96  CB        12.0520   58.0190   10.2470 C.3    96  LYS96       0.0285
     97  CG        12.9480   58.0600   11.4720 C.3    96  LYS96       0.0035
     98  CD        13.1490   59.4970   11.9640 C.3    96  LYS96       0.0206
     99  CE        13.9090   59.5250   13.2890 C.3    96  LYS96       0.1093
    100  NZ        14.1540   60.9000   13.8020 N.3    96  LYS96      -0.1314
    101  N         13.3530   54.7580    9.8410 N.am   97  TYR97      -0.1976
    102  CA        14.6640   54.1530    9.6310 C.3    97  TYR97       0.1639
    103  C         14.6310   52.9500    8.6870 C.2    97  TYR97       0.2290
    104  O         13.6430   52.2170    8.6020 O.2    97  TYR97      -0.2864
    105  CB        15.2850   53.7380   10.9630 C.3    97  TYR97       0.0560
    106  CG        15.7070   54.9080   11.8050 C.ar   97  TYR97      -0.0198
    107  CD1       16.8370   55.6480   11.4800 C.ar   97  TYR97      -0.0009
    108  CD2       14.9760   55.2720   12.9300 C.ar   97  TYR97      -0.0009
    109  CE1       17.2280   56.7270   12.2520 C.ar   97  TYR97       0.0417
    110  CE2       15.3500   56.3410   13.7030 C.ar   97  TYR97       0.0417
    111  CZ        16.4760   57.0690   13.3630 C.ar   97  TYR97       0.1957
    112  OH        16.8420   58.1330   14.1460 O.3    97  TYR97      -0.2866
    113  N         28.6150   54.5920   16.3310 N.3   161  MET161     -0.1245
    114  CA        27.7930   55.7330   15.9520 C.3   161  MET161      0.1570
    115  C         28.7180   56.9250   15.7710 C.2   161  MET161      0.2261
    116  O         29.9440   56.7970   15.8200 O.2   161  MET161     -0.2867
    117  CB        26.7100   56.0300   16.9990 C.3   161  MET161      0.0387
    118  CG        25.7000   54.9190   17.1970 C.3   161  MET161      0.0595
    119  SD        24.3070   55.4260   18.2080 S.3   161  MET161     -0.1393
    120  CE        25.1640   55.7260   19.7470 C.3   161  MET161      0.0692
@<TRIPOS>BOND
     1    95    94    2
     2   104   103    2
     3   103   102    1
     4    94    93    1
     5    94   101   am
     6   102   101    1
     7   102   105    1
     8    93    96    1
     9    93    92    1
    10    96    97    1
    11   105   106    1
    12    97    98    1
    13   107   106   ar
    14   107   109   ar
    15   106   108   ar
    16    98    99    1
    17   109   111   ar
    18   108   110   ar
    19    99   100    1
    20   111   110   ar
    21   111   112    1
    22    68    66   ar
    23    66    67   ar
    24    66    65    1
    25    65    64    1
    26    75    74    1
    27   115   116    2
    28   115   114    1
    29   114   113    1
    30   114   117    1
    31    76    74    1
    32    64    61    1
    33    74    73    1
    34    73    70    1
    35   117   118    1
    36   118   119    1
    37    70    69    1
    38    70    71    1
    39    69    62   am
    40    63    62    2
    41    62    61    1
    42    91    89    1
    43    54    53    1
    44    61    60    1
    45    55    53    1
    46   119   120    1
    47    72    71    2
    48    71    77   am
    49    89    90    1
    50    89    88    1
    51    84    85    1
    52    53    50    1
    53    60    58   am
    54    85    88    1
    55    85    86    1
    56    43    42    2
    57    49    50    1
    58    49    47   am
    59    77    78    1
    60    44    41    1
    61    46    47    1
    62    46    45    1
    63    50    51    1
    64    58    59    2
    65    58    57    1
    66    86    87    2
    67    47    48    2
    68    56    51   am
    69    56    57    1
    70    51    52    2
    71    42    41    1
    72    41    40    1
    73    78    79    1
    74    78    81    1
    75    79    80    2
    76    81    82    1
    77    81    83    1
    78    23    22   ar
    79    19    18    2
    80    28    27    2
    81    26    25    1
    82    26    27    1
    83     6     5    1
    84    20    21    1
    85    20    17    1
    86    18    25   am
    87    18    17    1
    88     5     7    1
    89     5     2    1
    90    27    29   am
    91    21    22    1
    92    22    24   ar
    93    17    16    1
    94     4     3    2
    95     2     3    1
    96     2     1    1
    97     3     8   am
    98    29    30    1
    99    32    31    2
   100    31    30    1
   101    30    33    1
   102     8     9    1
   103    11    10    2
   104     9    10    1
   105     9    12    1
   106    14    13    1
   107    14    15    1
   108    33    34    1
   109    34    35    1
   110    13    12    1
   111    35    36    1
   112    36    37    2
   113    37    39    1
   114    37    38    1
