@<TRIPOS>MOLECULE
tmp/5pzsB00.pdb
 122 115 0 0 0
SMALL
GASTEIGER

@<TRIPOS>ATOM
      1  N         27.4240    7.6480   31.4680 N.3     9  VAL9       -0.1231
      2  CA        28.6170    7.1770   32.1660 C.3     9  VAL9        0.1692
      3  C         28.2410    6.1020   33.1680 C.2     9  VAL9        0.2591
      4  O         28.9180    5.0680   33.2910 O.2     9  VAL9       -0.2718
      5  CB        29.3130    8.3590   32.8620 C.3     9  VAL9        0.0266
      6  CG1       30.3330    7.8620   33.8490 C.3     9  VAL9        0.0020
      7  CG2       29.9490    9.2850   31.8440 C.3     9  VAL9        0.0020
      8  N         27.1270    6.3160   33.8660 N.am   10  MET10      -0.1979
      9  CA        26.6450    5.3530   34.8430 C.3    10  MET10       0.1605
     10  C         26.2780    4.0260   34.1900 C.2    10  MET10       0.2287
     11  O         26.6120    2.9580   34.7160 O.2    10  MET10      -0.2864
     12  CB        25.4460    5.9570   35.5820 C.3    10  MET10       0.0413
     13  CG        25.0230    5.1920   36.7940 C.3    10  MET10       0.0598
     14  SD        26.1850    5.2750   38.1560 S.3    10  MET10      -0.1393
     15  CE        25.4010    4.1060   39.2560 C.3    10  MET10       0.0692
     16  N         27.4510    2.8330   31.3190 N.3    12  GLU12      -0.1231
     17  CA        28.6860    2.1880   30.8990 C.3    12  GLU12       0.1699
     18  C         29.4230    1.6030   32.0960 C.2    12  GLU12       0.2593
     19  O         30.1110    0.5850   31.9630 O.2    12  GLU12      -0.2718
     20  CB        29.5930    3.1730   30.1590 C.3    12  GLU12       0.0402
     21  CG        29.1440    3.5770   28.7710 C.3    12  GLU12       0.1161
     22  CD        29.1780    2.4290   27.7810 C.2    12  GLU12       0.3649
     23  OE1       28.2930    2.3800   26.9010 O.co2  12  GLU12      -0.2457
     24  OE2       30.1060    1.5930   27.8630 O.co2  12  GLU12      -0.2457
     25  N         29.3380    2.2570   33.2570 N.am   13  GLY13      -0.1942
     26  CA        29.9820    1.7100   34.4380 C.3    13  GLY13       0.2014
     27  C         29.3350    0.4140   34.8910 C.2    13  GLY13       0.2638
     28  O         30.0220   -0.5270   35.3020 O.2    13  GLY13      -0.2714
     29  N         28.0060    0.3450   34.8240 N.am   14  ARG14      -0.1977
     30  CA        27.3160   -0.8880   35.1790 C.3    14  ARG14       0.1597
     31  C         27.6250   -1.9940   34.1830 C.2    14  ARG14       0.2287
     32  O         27.7740   -3.1590   34.5720 O.2    14  ARG14      -0.2864
     33  CB        25.8100   -0.6440   35.2620 C.3    14  ARG14       0.0334
     34  CG        25.4080    0.3020   36.4000 C.3    14  ARG14       0.0492
     35  CD        23.9310    0.2510   36.6540 C.3    14  ARG14       0.2205
     36  NE        23.5690   -1.0450   37.2220 N.pl3  14  ARG14      -0.0865
     37  CZ        22.3250   -1.4920   37.3590 C.cat  14  ARG14       0.5346
     38  NH1       21.3000   -0.7490   36.9620 N.pl3  14  ARG14       0.1354
     39  NH2       22.1090   -2.6890   37.8930 N.pl3  14  ARG14       0.1354
     40  N         30.4560   -2.4060   32.6730 N.3    16  ALA16      -0.1245
     41  CA        31.7980   -2.8460   33.0240 C.3    16  ALA16       0.1562
     42  C         31.9010   -3.4250   34.4300 C.2    16  ALA16       0.2260
     43  O         32.9630   -3.9440   34.7870 O.2    16  ALA16      -0.2867
     44  CB        32.7660   -1.6660   32.8850 C.3    16  ALA16       0.0290
     45  N         32.2550   -1.9580   37.1800 N.3    18  GLY18      -0.1210
     46  CA        33.2990   -1.2580   37.8950 C.3    18  GLY18       0.1956
     47  C         32.8330   -0.7610   39.2530 C.2    18  GLY18       0.2613
     48  O         31.6510   -0.8180   39.5920 O.2    18  GLY18      -0.2717
     49  N         33.7950   -0.2570   40.0330 N.am   19  THR19      -0.1938
     50  CA        33.4940    0.2120   41.3830 C.3    19  THR19       0.2028
     51  C         32.7260    1.5340   41.4020 C.2    19  THR19       0.2643
     52  O         32.1150    1.8650   42.4240 O.2    19  THR19      -0.2714
     53  CB        34.7880    0.3840   42.1810 C.3    19  THR19       0.1808
     54  OG1       35.6130    1.3820   41.5570 O.3    19  THR19      -0.2208
     55  CG2       35.5540   -0.9220   42.2680 C.3    19  THR19       0.0379
     56  N         32.7310    2.2920   40.3030 N.am   20  GLY20      -0.1939
     57  CA        32.1430    3.6160   40.2830 C.3    20  GLY20       0.2014
     58  C         33.1250    4.7530   40.4860 C.2    20  GLY20       0.2639
     59  O         32.7140    5.9170   40.4460 O.2    20  GLY20      -0.2714
     60  N         34.4110    4.4540   40.6830 N.am   21  GLU21      -0.1963
     61  CA        35.3920    5.5000   40.9520 C.3    21  GLU21       0.1733
     62  C         35.6140    6.3860   39.7320 C.2    21  GLU21       0.2616
     63  O         35.8070    7.5990   39.8700 O.2    21  GLU21      -0.2715
     64  CB        36.7030    4.8790   41.4080 C.3    21  GLU21       0.0429
     65  CG        37.7790    5.8850   41.6960 C.3    21  GLU21       0.1163
     66  CD        38.8540    5.3660   42.6140 C.2    21  GLU21       0.3649
     67  OE1       38.5470    4.5160   43.4770 O.co2  21  GLU21      -0.2457
     68  OE2       40.0190    5.8190   42.5040 O.co2  21  GLU21      -0.2457
     69  N         35.6090    5.7960   38.5320 N.am   22  LEU22      -0.1963
     70  CA        35.7430    6.5850   37.3090 C.3    22  LEU22       0.1728
     71  C         34.5130    7.4480   37.0620 C.2    22  LEU22       0.2616
     72  O         34.6340    8.5960   36.6320 O.2    22  LEU22      -0.2715
     73  CB        35.9830    5.6560   36.1160 C.3    22  LEU22       0.0311
     74  CG        36.1050    6.2620   34.7180 C.3    22  LEU22       0.0022
     75  CD1       37.1610    7.3440   34.7000 C.3    22  LEU22       0.0001
     76  CD2       36.4580    5.1620   33.7090 C.3    22  LEU22       0.0001
     77  N         33.3240    6.9180   37.3520 N.am   23  THR23      -0.1951
     78  CA        32.0970    7.6910   37.1850 C.3    23  THR23       0.1897
     79  C         32.0880    8.9200   38.0870 C.2    23  THR23       0.2313
     80  O         31.6620    9.9990   37.6620 O.2    23  THR23      -0.2863
     81  CB        30.8880    6.7880   37.4540 C.3    23  THR23       0.1794
     82  OG1       30.7580    5.8570   36.3750 O.3    23  THR23      -0.2208
     83  CG2       29.6020    7.5770   37.5380 C.3    23  THR23       0.0378
     84  N         34.2970   11.4910   36.4300 N.3    26  LEU26      -0.1245
     85  CA        33.6860   12.1890   35.3060 C.3    26  LEU26       0.1561
     86  C         32.5490   13.0880   35.7730 C.2    26  LEU26       0.2260
     87  O         32.4030   14.2100   35.2740 O.2    26  LEU26      -0.2867
     88  CB        33.2050   11.1870   34.2630 C.3    26  LEU26       0.0270
     89  CG        34.3610   10.4400   33.5960 C.3    26  LEU26       0.0019
     90  CD1       33.8280    9.3810   32.6550 C.3    26  LEU26       0.0001
     91  CD2       35.2420   11.4290   32.8710 C.3    26  LEU26       0.0001
     92  N         43.3140    7.3890   40.0120 N.3    95  TYR95      -0.1241
     93  CA        43.3960    7.9080   38.6530 C.3    95  TYR95       0.1605
     94  C         44.3130    9.1190   38.5740 C.2    95  TYR95       0.2264
     95  O         44.3530    9.9520   39.4840 O.2    95  TYR95      -0.2867
     96  CB        42.0060    8.2700   38.1040 C.3    95  TYR95       0.0534
     97  CG        41.1770    7.0630   37.7460 C.ar   95  TYR95      -0.0201
     98  CD1       41.4090    6.3650   36.5680 C.ar   95  TYR95      -0.0009
     99  CD2       40.1910    6.5990   38.5940 C.ar   95  TYR95      -0.0009
    100  CE1       40.6560    5.2520   36.2290 C.ar   95  TYR95       0.0417
    101  CE2       39.4380    5.4780   38.2680 C.ar   95  TYR95       0.0417
    102  CZ        39.6780    4.8090   37.0850 C.ar   95  TYR95       0.1957
    103  OH        38.9330    3.6950   36.7700 O.3    95  TYR95      -0.2866
    104  N         44.9660    5.4900   34.6900 N.3   122  ARG122     -0.1245
    105  CA        44.9380    4.7360   35.9370 C.3   122  ARG122      0.1563
    106  C         46.3570    4.6610   36.4970 C.2   122  ARG122      0.2260
    107  O         47.3000    4.3250   35.7710 O.2   122  ARG122     -0.2867
    108  CB        44.3690    3.3330   35.6910 C.3   122  ARG122      0.0307
    109  CG        43.6050    2.6890   36.8620 C.3   122  ARG122      0.0489
    110  CD        42.6960    1.5160   36.4070 C.3   122  ARG122      0.2205
    111  NE        41.3280    1.8930   36.0180 N.pl3 122  ARG122     -0.0865
    112  CZ        40.7980    1.7210   34.8050 C.cat 122  ARG122      0.5346
    113  NH1       41.5170    1.1680   33.8340 N.pl3 122  ARG122      0.1354
    114  NH2       39.5350    2.0820   34.5660 N.pl3 122  ARG122      0.1354
    115  N         36.3610    7.1930   25.2080 N.3   159  MET159     -0.1245
    116  CA        36.7590    6.0400   26.0030 C.3   159  MET159      0.1570
    117  C         36.9130    4.8580   25.0680 C.2   159  MET159      0.2261
    118  O         36.7870    4.9970   23.8560 O.2   159  MET159     -0.2867
    119  CB        35.7530    5.7460   27.1130 C.3   159  MET159      0.0387
    120  CG        35.6170    6.8910   28.0800 C.3   159  MET159      0.0595
    121  SD        34.5250    6.4790   29.4390 S.3   159  MET159     -0.1393
    122  CE        32.9790    6.2410   28.5650 C.3   159  MET159      0.0692
@<TRIPOS>BOND
     1   118   117    2
     2   117   116    1
     3   115   116    1
     4   116   119    1
     5    23    22   ar
     6   119   120    1
     7    22    24   ar
     8    22    21    1
     9   120   121    1
    10   122   121    1
    11    21    20    1
    12    20    17    1
    13    17    16    1
    14    17    18    1
    15     1     2    1
    16     7     5    1
    17    19    18    2
    18    18    25   am
    19     2     5    1
    20     2     3    1
    21    90    89    1
    22    40    41    1
    23     5     6    1
    24    91    89    1
    25    44    41    1
    26    41    42    1
    27     3     4    2
    28     3     8   am
    29    25    26    1
    30    89    88    1
    31    76    74    1
    32   113   112    1
    33     8     9    1
    34    31    32    2
    35    31    30    1
    36    10    11    2
    37    10     9    1
    38    88    85    1
    39    42    43    2
    40    26    27    1
    41   114   112    1
    42   104   105    1
    43    75    74    1
    44    74    73    1
    45   112   111    2
    46    29    27   am
    47    29    30    1
    48     9    12    1
    49    27    28    2
    50    30    33    1
    51    33    34    1
    52    87    86    2
    53    85    86    1
    54    85    84    1
    55    12    13    1
    56   108   105    1
    57   108   109    1
    58   107   106    2
    59   105   106    1
    60   111   110    1
    61    73    70    1
    62   100    98   ar
    63   100   102   ar
    64    82    81    1
    65    34    35    1
    66   110   109    1
    67    98    97   ar
    68    72    71    2
    69    35    36    1
    70   103   102    1
    71    13    14    1
    72    38    37    1
    73    71    70    1
    74    71    77   am
    75   102   101   ar
    76    45    46    1
    77    78    77    1
    78    78    81    1
    79    78    79    1
    80    36    37    2
    81    70    69    1
    82    37    39    1
    83    81    83    1
    84    80    79    2
    85    97    96    1
    86    97    99   ar
    87    46    47    1
    88    96    93    1
    89    14    15    1
    90   101    99   ar
    91    69    62   am
    92    94    93    1
    93    94    95    2
    94    93    92    1
    95    47    48    2
    96    47    49   am
    97    62    63    2
    98    62    61    1
    99    49    50    1
   100    57    56    1
   101    57    58    1
   102    56    51   am
   103    59    58    2
   104    58    60   am
   105    60    61    1
   106    61    64    1
   107    50    51    1
   108    50    53    1
   109    51    52    2
   110    64    65    1
   111    54    53    1
   112    65    66    1
   113    53    55    1
   114    68    66   ar
   115    66    67   ar
