@<TRIPOS>MOLECULE
tmp/5pztH01.pdb
 154 150 0 0 0
SMALL
GASTEIGER

@<TRIPOS>ATOM
      1  N         -6.4080   81.9470    9.3260 N.3     9  VAL9       -0.1231
      2  CA        -5.5370   81.7430    8.1790 C.3     9  VAL9        0.1692
      3  C         -6.3010   81.1220    7.0000 C.2     9  VAL9        0.2591
      4  O         -6.0950   81.5050    5.8460 O.2     9  VAL9       -0.2718
      5  CB        -4.3110   80.9280    8.6160 C.3     9  VAL9        0.0266
      6  CG1       -3.7520   80.1470    7.4680 C.3     9  VAL9        0.0020
      7  CG2       -3.2620   81.8880    9.1280 C.3     9  VAL9        0.0020
      8  N         -7.2560   80.2290    7.2620 N.am   10  MET10      -0.1979
      9  CA        -8.0360   79.7020    6.1490 C.3    10  MET10       0.1605
     10  C         -8.9290   80.7820    5.5440 C.2    10  MET10       0.2287
     11  O         -9.0150   80.8930    4.3160 O.2    10  MET10      -0.2864
     12  CB        -8.8720   78.5070    6.5910 C.3    10  MET10       0.0413
     13  CG        -8.0710   77.2270    6.8550 C.3    10  MET10       0.0598
     14  SD        -9.1650   75.9050    7.4400 S.3    10  MET10      -0.1393
     15  CE        -8.0600   74.5530    7.7460 C.3    10  MET10       0.0692
     16  N         -8.5070   84.1240    5.4500 N.3    12  GLU12      -0.1231
     17  CA        -7.7130   85.0440    4.6390 C.3    12  GLU12       0.1699
     18  C         -7.1070   84.3590    3.4080 C.2    12  GLU12       0.2593
     19  O         -6.9260   85.0020    2.3690 O.2    12  GLU12      -0.2718
     20  CB        -6.6370   85.7000    5.5050 C.3    12  GLU12       0.0402
     21  CG        -7.2020   86.4730    6.6890 C.3    12  GLU12       0.1161
     22  CD        -8.1650   87.5690    6.2710 C.2    12  GLU12       0.3649
     23  OE1       -7.7350   88.4790    5.5270 O.co2  12  GLU12      -0.2457
     24  OE2       -9.3460   87.5300    6.7010 O.co2  12  GLU12      -0.2457
     25  N         -6.7770   83.0690    3.5040 N.am   13  GLY13      -0.1942
     26  CA        -6.2300   82.3640    2.3580 C.3    13  GLY13       0.2014
     27  C         -7.2610   82.0970    1.2770 C.2    13  GLY13       0.2639
     28  O         -6.9570   82.1850    0.0860 O.2    13  GLY13      -0.2714
     29  N         -8.4970   81.7800    1.6680 N.am   14  ARG14      -0.1963
     30  CA        -9.5510   81.6310    0.6700 C.3    14  ARG14       0.1729
     31  C         -9.8430   82.9510   -0.0100 C.2    14  ARG14       0.2616
     32  O        -10.0570   82.9970   -1.2260 O.2    14  ARG14      -0.2715
     33  CB       -10.8340   81.1150    1.3150 C.3    14  ARG14       0.0348
     34  CG       -10.9290   79.6230    1.4620 C.3    14  ARG14       0.0492
     35  CD       -12.3270   79.1930    1.8720 C.3    14  ARG14       0.2205
     36  NE       -13.3060   79.3320    0.7970 N.pl3  14  ARG14      -0.0865
     37  CZ       -14.6200   79.2160    0.9680 C.cat  14  ARG14       0.5346
     38  NH1      -15.1070   78.9710    2.1740 N.pl3  14  ARG14       0.1354
     39  NH2      -15.4480   79.3540   -0.0600 N.pl3  14  ARG14       0.1354
     40  N         -9.8690   84.0260    0.7760 N.am   15  LYS15      -0.1963
     41  CA       -10.1760   85.3570    0.2780 C.3    15  LYS15       0.1728
     42  C         -9.2520   85.7360   -0.8850 C.2    15  LYS15       0.2616
     43  O         -9.7000   86.3260   -1.8820 O.2    15  LYS15      -0.2715
     44  CB       -10.1050   86.3300    1.4620 C.3    15  LYS15       0.0311
     45  CG       -11.1040   87.4870    1.4390 C.3    15  LYS15       0.0038
     46  CD       -11.1410   88.1640    2.8130 C.3    15  LYS15       0.0206
     47  CE       -12.1930   89.2720    2.9090 C.3    15  LYS15       0.1093
     48  NZ       -12.3990   89.7220    4.3260 N.3    15  LYS15      -0.1314
     49  N         -7.9660   85.3710   -0.7930 N.am   16  ALA16      -0.1963
     50  CA        -6.9680   85.6740   -1.8180 C.3    16  ALA16       0.1728
     51  C         -6.8660   84.5740   -2.8820 C.2    16  ALA16       0.2616
     52  O         -6.0370   84.6690   -3.7980 O.2    16  ALA16      -0.2715
     53  CB        -5.5970   85.9130   -1.1700 C.3    16  ALA16       0.0334
     54  N         -7.6980   83.5410   -2.7800 N.am   17  ARG17      -0.1963
     55  CA        -7.7430   82.4430   -3.7400 C.3    17  ARG17       0.1729
     56  C         -6.3530   81.8510   -3.9710 C.2    17  ARG17       0.2617
     57  O         -6.0570   81.3430   -5.0490 O.2    17  ARG17      -0.2715
     58  CB        -8.3560   82.9290   -5.0610 C.3    17  ARG17       0.0348
     59  CG        -9.8880   83.0710   -5.1080 C.3    17  ARG17       0.0492
     60  CD       -10.2860   84.2780   -4.2420 C.3    17  ARG17       0.2205
     61  NE       -11.7050   84.6370   -4.1810 N.pl3  17  ARG17      -0.0865
     62  CZ       -12.2720   85.5910   -4.9260 C.cat  17  ARG17       0.5346
     63  NH1      -11.5540   86.2890   -5.8020 N.pl3  17  ARG17       0.1354
     64  NH2      -13.5620   85.8580   -4.7930 N.pl3  17  ARG17       0.1354
     65  N         -5.5070   81.8400   -2.9440 N.am   18  GLY18      -0.1940
     66  CA        -4.1820   81.2650   -3.0850 C.3    18  GLY18       0.2014
     67  C         -4.2320   79.7570   -3.1370 C.2    18  GLY18       0.2640
     68  O         -5.2880   79.1380   -2.9790 O.2    18  GLY18      -0.2714
     69  N         -3.0650   79.1500   -3.4030 N.am   19  THR19      -0.1936
     70  CA        -3.0200   77.7000   -3.6240 C.3    19  THR19       0.2028
     71  C         -3.1370   76.8730   -2.3480 C.2    19  THR19       0.2643
     72  O         -3.4130   75.6700   -2.4430 O.2    19  THR19      -0.2714
     73  CB        -1.7550   77.2930   -4.3750 C.3    19  THR19       0.1808
     74  OG1       -0.5980   77.6940   -3.6400 O.3    19  THR19      -0.2208
     75  CG2       -1.7350   77.9190   -5.7830 C.3    19  THR19       0.0379
     76  N         -2.9180   77.4810   -1.1640 N.am   20  GLY20      -0.1939
     77  CA        -2.9680   76.7910    0.1080 C.3    20  GLY20       0.2014
     78  C         -1.6260   76.4930    0.7380 C.2    20  GLY20       0.2639
     79  O         -1.5860   76.0370    1.8880 O.2    20  GLY20      -0.2714
     80  N         -0.5310   76.7550    0.0400 N.am   21  GLU21      -0.1963
     81  CA         0.7710   76.3240    0.5300 C.3    21  GLU21       0.1733
     82  C          1.1820   77.0660    1.8090 C.2    21  GLU21       0.2616
     83  O          1.6960   76.4520    2.7500 O.2    21  GLU21      -0.2715
     84  CB         1.8110   76.5250   -0.5760 C.3    21  GLU21       0.0429
     85  CG         2.5580   75.2610   -0.9550 C.3    21  GLU21       0.1163
     86  CD         3.4790   75.4420   -2.1360 C.2    21  GLU21       0.3649
     87  OE1        4.7120   75.3740   -1.9210 O.co2  21  GLU21      -0.2457
     88  OE2        2.9790   75.6550   -3.2670 O.co2  21  GLU21      -0.2457
     89  N          0.9380   78.3780    1.8820 N.am   22  LEU22      -0.1963
     90  CA         1.3200   79.1370    3.0670 C.3    22  LEU22       0.1728
     91  C          0.4890   78.7260    4.2770 C.2    22  LEU22       0.2616
     92  O          1.0120   78.6110    5.3930 O.2    22  LEU22      -0.2715
     93  CB         1.1680   80.6370    2.8100 C.3    22  LEU22       0.0311
     94  CG         1.6700   81.5010    3.9880 C.3    22  LEU22       0.0022
     95  CD1        3.1350   81.2930    4.2820 C.3    22  LEU22       0.0001
     96  CD2        1.3800   82.9690    3.7900 C.3    22  LEU22       0.0001
     97  N         -0.8130   78.5340    4.0730 N.am   23  THR23      -0.1951
     98  CA        -1.6860   78.0720    5.1410 C.3    23  THR23       0.1897
     99  C         -1.2110   76.7330    5.6850 C.2    23  THR23       0.2313
    100  O         -1.2630   76.4870    6.8980 O.2    23  THR23      -0.2863
    101  CB        -3.1100   77.9950    4.6100 C.3    23  THR23       0.1794
    102  OG1       -3.6230   79.3260    4.4740 O.3    23  THR23      -0.2208
    103  CG2       -4.0160   77.1760    5.5210 C.3    23  THR23       0.0378
    104  N          1.9510   77.5020    7.8890 N.3    26  LEU26      -0.1245
    105  CA         1.6260   78.0430    9.2120 C.3    26  LEU26       0.1561
    106  C          0.9990   76.9830   10.1070 C.2    26  LEU26       0.2260
    107  O          1.3200   76.9000   11.2960 O.2    26  LEU26      -0.2867
    108  CB         0.6930   79.2450    9.0860 C.3    26  LEU26       0.0270
    109  CG         1.3150   80.5150    8.4900 C.3    26  LEU26       0.0019
    110  CD1        0.2870   81.6340    8.4480 C.3    26  LEU26       0.0001
    111  CD2        2.5950   80.9460    9.2080 C.3    26  LEU26       0.0001
    112  N          7.2260   76.2550   -1.9900 N.3    87  LYS87      -0.1231
    113  CA         7.6930   77.5150   -2.5620 C.3    87  LYS87       0.1693
    114  C          8.2930   78.5030   -1.5570 C.2    87  LYS87       0.2592
    115  O          8.6300   79.6250   -1.9590 O.2    87  LYS87      -0.2718
    116  CB         6.5590   78.2220   -3.3260 C.3    87  LYS87       0.0285
    117  CG         5.5120   78.8480   -2.4330 C.3    87  LYS87       0.0035
    118  CD         4.6890   79.9230   -3.1460 C.3    87  LYS87       0.0206
    119  CE         3.6450   79.3540   -4.0610 C.3    87  LYS87       0.1093
    120  NZ         2.3650   79.0300   -3.4030 N.3    87  LYS87      -0.1314
    121  N          8.4630   78.1380   -0.2810 N.am   88  TYR88      -0.1976
    122  CA         8.8800   79.1140    0.7190 C.3    88  TYR88       0.1639
    123  C         10.2390   78.7940    1.3300 C.2    88  TYR88       0.2290
    124  O         10.6520   77.6280    1.4370 O.2    88  TYR88      -0.2864
    125  CB         7.8810   79.2120    1.8220 C.3    88  TYR88       0.0560
    126  CG         6.5690   79.7810    1.3890 C.ar   88  TYR88      -0.0198
    127  CD1        6.3960   81.1470    1.2010 C.ar   88  TYR88      -0.0009
    128  CD2        5.4890   78.9330    1.1520 C.ar   88  TYR88      -0.0009
    129  CE1        5.1650   81.6450    0.7840 C.ar   88  TYR88       0.0417
    130  CE2        4.2670   79.4170    0.7460 C.ar   88  TYR88       0.0417
    131  CZ         4.1000   80.7680    0.5520 C.ar   88  TYR88       0.1957
    132  OH         2.8620   81.2190    0.1340 O.3    88  TYR88      -0.2866
    133  N          1.8620   89.7430    9.2930 N.3   152  MET152     -0.1230
    134  CA         1.8040   89.5620    7.8490 C.3   152  MET152      0.1702
    135  C          1.5680   90.8970    7.1630 C.2   152  MET152      0.2592
    136  O          1.7350   91.9560    7.7780 O.2   152  MET152     -0.2718
    137  CB         0.7380   88.5340    7.4840 C.3   152  MET152      0.0401
    138  CG         1.1650   87.1290    7.8820 C.3   152  MET152      0.0596
    139  SD         0.0520   85.8130    7.3910 S.3   152  MET152     -0.1393
    140  CE        -1.4850   86.3610    8.1410 C.3   152  MET152      0.0692
    141  N          1.2600   90.8740    5.8720 N.am  153  ASP153     -0.1960
    142  CA         1.0890   92.1370    5.1700 C.3   153  ASP153      0.1840
    143  C         -0.0630   92.9440    5.7690 C.2   153  ASP153      0.2622
    144  O         -0.0000   94.1780    5.8380 O.2   153  ASP153     -0.2715
    145  CB         0.8820   91.8830    3.6800 C.3   153  ASP153      0.1450
    146  CG         1.1650   93.1130    2.8550 C.2   153  ASP153      0.3671
    147  OD1        2.3180   93.5980    2.9170 O.co2 153  ASP153     -0.2456
    148  OD2        0.2370   93.6050    2.1750 O.co2 153  ASP153     -0.2456
    149  N         -1.1270   92.2630    6.1990 N.am  154  CYS154     -0.1968
    150  CA        -2.2700   92.9660    6.7590 C.3   154  CYS154      0.1712
    151  C         -1.9330   93.6140    8.0950 C.2   154  CYS154      0.2296
    152  O         -2.5200   94.6420    8.4420 O.2   154  CYS154     -0.2864
    153  CB        -3.4480   91.9980    6.9260 C.3   154  CYS154      0.0983
    154  SG        -3.0390   90.3440    7.6590 S.3   154  CYS154     -0.0798
@<TRIPOS>BOND
     1    63    62    1
     2    75    73    1
     3    59    58    1
     4    59    60    1
     5    58    55    1
     6    57    56    2
     7    62    64    1
     8    62    61    2
     9    73    74    1
    10    73    70    1
    11    60    61    1
    12   119   120    1
    13   119   118    1
    14    56    55    1
    15    56    65   am
    16    52    51    2
    17    55    54    1
    18    70    69    1
    19    70    71    1
    20    69    67   am
    21   116   113    1
    22   116   117    1
    23    88    86   ar
    24   118   117    1
    25    67    66    1
    26    67    68    2
    27    66    65    1
    28    51    54   am
    29    51    50    1
    30   113   112    1
    31   113   114    1
    32    72    71    2
    33    71    76   am
    34    86    87   ar
    35    86    85    1
    36   115   114    2
    37    43    42    2
    38    50    53    1
    39    50    49    1
    40   114   121   am
    41    32    31    2
    42    76    77    1
    43    85    84    1
    44    42    49   am
    45    42    41    1
    46    84    81    1
    47   121   122    1
    48    39    37    1
    49    31    30    1
    50    31    40   am
    51    80    81    1
    52    80    78   am
    53    28    27    2
    54    77    78    1
    55   132   131    1
    56    41    40    1
    57    41    44    1
    58    81    82    1
    59   131   130   ar
    60   131   129   ar
    61    30    33    1
    62    30    29    1
    63   122   123    1
    64   122   125    1
    65    78    79    2
    66   130   128   ar
    67   129   127   ar
    68    36    37    2
    69    36    35    1
    70    37    38    1
    71   128   126   ar
    72   127   126   ar
    73    27    29   am
    74    27    26    1
    75    33    34    1
    76   123   124    2
    77   126   125    1
    78    45    44    1
    79    45    46    1
    80    34    35    1
    81    82    89   am
    82    82    83    2
    83    89    90    1
    84   148   146   ar
    85    26    25    1
    86    19    18    2
    87    93    90    1
    88    93    94    1
    89    46    47    1
    90   146   147   ar
    91   146   145    1
    92    47    48    1
    93    90    91    1
    94    18    25   am
    95    18    17    1
    96   145   142    1
    97    96    94    1
    98    94    95    1
    99    97    91   am
   100    97    98    1
   101    91    92    2
   102    11    10    2
   103   102   101    1
   104   101    98    1
   105   101   103    1
   106    17    16    1
   107    17    20    1
   108    98    99    1
   109   142   143    1
   110   142   141    1
   111    20    21    1
   112    23    22   ar
   113    10     9    1
   114    99   100    2
   115   143   144    2
   116   143   149   am
   117     4     3    2
   118   141   135   am
   119     9    12    1
   120     9     8    1
   121   149   150    1
   122    22    21    1
   123    22    24   ar
   124    12    13    1
   125   150   153    1
   126   150   151    1
   127    13    14    1
   128   153   154    1
   129     3     8   am
   130     3     2    1
   131   135   136    2
   132   135   134    1
   133   139   138    1
   134   139   140    1
   135    14    15    1
   136     6     5    1
   137   137   134    1
   138   137   138    1
   139   134   133    1
   140   104   105    1
   141   151   152    2
   142     2     5    1
   143     2     1    1
   144   110   109    1
   145   109   108    1
   146   109   111    1
   147     5     7    1
   148   108   105    1
   149   105   106    1
   150   106   107    2
