@<TRIPOS>MOLECULE
tmp/5pzuC00.pdb
 138 130 0 0 0
SMALL
GASTEIGER

@<TRIPOS>ATOM
      1  N          7.5130   51.4390   28.4120 N.3     9  VAL9       -0.1245
      2  CA         7.8610   52.6430   29.1640 C.3     9  VAL9        0.1561
      3  C          8.2410   53.7760   28.2220 C.2     9  VAL9        0.2260
      4  O          7.8330   54.9300   28.4150 O.2     9  VAL9       -0.2867
      5  CB         8.9890   52.3320   30.1660 C.3     9  VAL9        0.0252
      6  CG1        9.6940   53.6290   30.6250 C.3     9  VAL9        0.0019
      7  CG2        8.3990   51.5840   31.3680 C.3     9  VAL9        0.0019
      8  N          5.1590   55.3040   26.4700 N.3    12  GLU12      -0.1231
      9  CA         4.3940   56.1740   27.3600 C.3    12  GLU12       0.1699
     10  C          5.0820   57.5290   27.5450 C.2    12  GLU12       0.2592
     11  O          4.4190   58.5730   27.6060 O.2    12  GLU12      -0.2718
     12  CB         4.1790   55.4950   28.7130 C.3    12  GLU12       0.0402
     13  CG         3.1400   54.3950   28.6780 C.3    12  GLU12       0.1161
     14  CD         1.8310   54.8660   28.0610 C.2    12  GLU12       0.3649
     15  OE1        1.4380   54.3140   27.0150 O.co2  12  GLU12      -0.2457
     16  OE2        1.2150   55.8060   28.5990 O.co2  12  GLU12      -0.2457
     17  N          6.4080   57.5310   27.6510 N.am   13  GLY13      -0.1957
     18  CA         7.1320   58.7890   27.7570 C.3    13  GLY13       0.1869
     19  C          7.0490   59.6080   26.4790 C.2    13  GLY13       0.2309
     20  O          6.9770   60.8390   26.5180 O.2    13  GLY13      -0.2863
     21  N          3.5640   61.1500   26.3340 N.3    16  ALA16      -0.1245
     22  CA         3.4480   62.2310   27.2940 C.3    16  ALA16       0.1562
     23  C          4.3470   63.4150   26.9540 C.2    16  ALA16       0.2260
     24  O          4.2680   64.4500   27.6270 O.2    16  ALA16      -0.2867
     25  CB         3.7760   61.7170   28.7000 C.3    16  ALA16       0.0290
     26  N          7.4300   63.7160   27.4440 N.3    18  GLY18      -0.1210
     27  CA         8.4100   63.9090   28.4890 C.3    18  GLY18       0.1956
     28  C          9.8050   64.1150   27.9260 C.2    18  GLY18       0.2613
     29  O         10.0720   63.9570   26.7370 O.2    18  GLY18      -0.2717
     30  N         10.7060   64.5180   28.8110 N.am   19  THR19      -0.1938
     31  CA        12.1080   64.7150   28.4700 C.3    19  THR19       0.2028
     32  C         12.9250   63.4290   28.5130 C.2    19  THR19       0.2643
     33  O         14.1220   63.4690   28.2270 O.2    19  THR19      -0.2714
     34  CB        12.7300   65.7350   29.4150 C.3    19  THR19       0.1808
     35  OG1       12.7250   65.1930   30.7430 O.3    19  THR19      -0.2208
     36  CG2       11.9280   67.0410   29.3860 C.3    19  THR19       0.0379
     37  N         12.3350   62.3120   28.9090 N.am   20  GLY20      -0.1939
     38  CA        13.0640   61.0670   29.0020 C.3    20  GLY20       0.2014
     39  C         13.6610   60.7730   30.3640 C.2    20  GLY20       0.2639
     40  O         14.2400   59.6960   30.5490 O.2    20  GLY20      -0.2714
     41  N         13.5210   61.6810   31.3280 N.am   21  GLU21      -0.1963
     42  CA        14.1060   61.4610   32.6430 C.3    21  GLU21       0.1733
     43  C         13.3890   60.3360   33.3850 C.2    21  GLU21       0.2616
     44  O         14.0330   59.4430   33.9490 O.2    21  GLU21      -0.2715
     45  CB        14.0600   62.7530   33.4640 C.3    21  GLU21       0.0429
     46  CG        14.7450   62.5920   34.8000 C.3    21  GLU21       0.1163
     47  CD        14.9660   63.8930   35.5630 C.2    21  GLU21       0.3649
     48  OE1       14.2480   64.1180   36.5580 O.co2  21  GLU21      -0.2457
     49  OE2       15.8580   64.6750   35.1780 O.co2  21  GLU21      -0.2457
     50  N         12.0500   60.3700   33.4080 N.am   22  LEU22      -0.1963
     51  CA        11.3100   59.2820   34.0350 C.3    22  LEU22       0.1728
     52  C         11.5610   57.9620   33.3100 C.2    22  LEU22       0.2616
     53  O         11.6480   56.9060   33.9450 O.2    22  LEU22      -0.2715
     54  CB         9.8180   59.5990   34.0650 C.3    22  LEU22       0.0311
     55  CG         8.9470   58.5550   34.7640 C.3    22  LEU22       0.0022
     56  CD1        9.4420   58.2470   36.1970 C.3    22  LEU22       0.0001
     57  CD2        7.5130   59.0330   34.7500 C.3    22  LEU22       0.0001
     58  N         11.6880   58.0010   31.9790 N.am   23  THR23      -0.1951
     59  CA        12.0250   56.7860   31.2410 C.3    23  THR23       0.1897
     60  C         13.3670   56.2120   31.7030 C.2    23  THR23       0.2313
     61  O         13.5220   54.9870   31.8390 O.2    23  THR23      -0.2863
     62  CB        12.0330   57.0640   29.7330 C.3    23  THR23       0.1794
     63  OG1       10.6870   57.2750   29.2660 O.3    23  THR23      -0.2208
     64  CG2       12.6660   55.8950   28.9610 C.3    23  THR23       0.0378
     65  N         12.8510   54.5380   35.1550 N.3    26  LEU26      -0.1245
     66  CA        12.1640   53.2440   35.1090 C.3    26  LEU26       0.1561
     67  C         13.0300   52.1760   34.4550 C.2    26  LEU26       0.2260
     68  O         13.0070   51.0090   34.8780 O.2    26  LEU26      -0.2867
     69  CB        10.8150   53.3610   34.3780 C.3    26  LEU26       0.0270
     70  CG         9.7130   54.1440   35.0960 C.3    26  LEU26       0.0019
     71  CD1        8.5000   54.4170   34.1850 C.3    26  LEU26       0.0001
     72  CD2        9.2770   53.3870   36.3500 C.3    26  LEU26       0.0001
     73  N         14.6820   64.9730   39.1980 N.3    95  LYS95      -0.1231
     74  CA        13.5300   65.5940   39.8630 C.3    95  LYS95       0.1693
     75  C         12.6220   64.6370   40.6390 C.2    95  LYS95       0.2592
     76  O         11.6540   65.0940   41.2630 O.2    95  LYS95      -0.2718
     77  CB        12.7290   66.3920   38.8350 C.3    95  LYS95       0.0285
     78  CG        11.9480   65.6040   37.8310 C.3    95  LYS95       0.0035
     79  CD        11.1760   66.5780   36.9450 C.3    95  LYS95       0.0206
     80  CE        11.0810   66.0780   35.5260 C.3    95  LYS95       0.1093
     81  NZ        12.4290   65.7810   34.9550 N.3    95  LYS95      -0.1314
     82  N         12.9130   63.3410   40.6600 N.am   96  TYR96      -0.1976
     83  CA        11.9910   62.3700   41.2310 C.3    96  TYR96       0.1639
     84  C         12.4210   61.9000   42.6170 C.2    96  TYR96       0.2290
     85  O         13.6100   61.8630   42.9480 O.2    96  TYR96      -0.2864
     86  CB        11.8260   61.1650   40.3050 C.3    96  TYR96       0.0560
     87  CG        11.0790   61.5490   39.0560 C.ar   96  TYR96      -0.0198
     88  CD1        9.7010   61.7000   39.0740 C.ar   96  TYR96      -0.0009
     89  CD2       11.7570   61.7990   37.8670 C.ar   96  TYR96      -0.0009
     90  CE1        9.0110   62.0630   37.9180 C.ar   96  TYR96       0.0417
     91  CE2       11.0910   62.1810   36.7390 C.ar   96  TYR96       0.0417
     92  CZ         9.7180   62.3220   36.7650 C.ar   96  TYR96       0.1957
     93  OH         9.0600   62.6970   35.6160 O.3    96  TYR96      -0.2866
     94  N          7.1840   63.0670   42.0080 N.3   123  ARG123     -0.1245
     95  CA         7.9530   64.2380   41.6200 C.3   123  ARG123      0.1563
     96  C          8.2580   65.0490   42.8710 C.2   123  ARG123      0.2260
     97  O          7.4150   65.1750   43.7620 O.2   123  ARG123     -0.2867
     98  CB         7.1890   65.0880   40.6020 C.3   123  ARG123      0.0307
     99  CG         7.2540   64.5420   39.1870 C.3   123  ARG123      0.0489
    100  CD         7.0270   65.5990   38.1110 C.3   123  ARG123      0.2205
    101  NE         5.6490   65.5990   37.6220 N.pl3 123  ARG123     -0.0865
    102  CZ         5.1990   64.8470   36.6180 C.cat 123  ARG123      0.5346
    103  NH1        6.0060   64.0040   35.9700 N.pl3 123  ARG123      0.1354
    104  NH2        3.9230   64.9310   36.2610 N.pl3 123  ARG123      0.1354
    105  N          3.2980   59.4390   40.8620 N.3   143  VAL143     -0.1231
    106  CA         3.3830   59.4550   39.4040 C.3   143  VAL143      0.1692
    107  C          3.3520   58.0400   38.8300 C.2   143  VAL143      0.2591
    108  O          2.7450   57.7930   37.7850 O.2   143  VAL143     -0.2718
    109  CB         4.6660   60.1890   38.9750 C.3   143  VAL143      0.0266
    110  CG1        4.8780   60.0220   37.4750 C.3   143  VAL143      0.0020
    111  CG2        4.6040   61.6620   39.3710 C.3   143  VAL143      0.0020
    112  N          4.0250   57.1020   39.4900 N.am  144  ALA144     -0.1980
    113  CA         3.9980   55.7000   39.1020 C.3   144  ALA144      0.1597
    114  C          4.3020   54.8670   40.3350 C.2   144  ALA144      0.2287
    115  O          4.9710   55.3310   41.2620 O.2   144  ALA144     -0.2864
    116  CB         5.0120   55.3880   38.0020 C.3   144  ALA144      0.0319
    117  N          0.3640   53.3880   36.4920 N.3   160  MET160     -0.1230
    118  CA         0.4500   54.8030   36.1990 C.3   160  MET160      0.1702
    119  C         -0.9590   55.2820   35.8740 C.2   160  MET160      0.2592
    120  O         -1.9320   54.5260   35.9900 O.2   160  MET160     -0.2718
    121  CB         1.4190   55.0710   35.0380 C.3   160  MET160      0.0401
    122  CG         2.8390   54.5200   35.2100 C.3   160  MET160      0.0596
    123  SD         3.9680   54.9460   33.8500 S.3   160  MET160     -0.1393
    124  CE         3.0360   54.3380   32.4640 C.3   160  MET160      0.0692
    125  N         -1.0660   56.5400   35.4270 N.am  161  ASP161     -0.1960
    126  CA        -2.3650   57.0840   35.0570 C.3   161  ASP161      0.1840
    127  C         -3.0490   56.2450   33.9830 C.2   161  ASP161      0.2622
    128  O         -4.2830   56.1200   33.9810 O.2   161  ASP161     -0.2715
    129  CB        -2.1990   58.5280   34.5760 C.3   161  ASP161      0.1450
    130  CG        -3.5120   59.2820   34.5280 C.2   161  ASP161      0.3671
    131  OD1       -4.0570   59.6300   35.6000 O.co2 161  ASP161     -0.2456
    132  OD2       -4.0040   59.5080   33.4040 O.co2 161  ASP161     -0.2456
    133  N         -2.2750   55.6610   33.0630 N.am  162  CYS162     -0.1968
    134  CA        -2.8820   54.8670   31.9980 C.3   162  CYS162      0.1712
    135  C         -3.4210   53.5230   32.4870 C.2   162  CYS162      0.2296
    136  O         -3.9810   52.7740   31.6820 O.2   162  CYS162     -0.2864
    137  CB        -1.8790   54.6470   30.8580 C.3   162  CYS162      0.0983
    138  SG        -0.4620   53.5870   31.2480 S.3   162  CYS162     -0.0798
@<TRIPOS>BOND
     1    21    22    1
     2     8     9    1
     3    19    20    2
     4    19    18    1
     5    29    28    2
     6    23    22    1
     7    23    24    2
     8    15    14   ar
     9    22    25    1
    10     9    10    1
    11     9    12    1
    12    26    27    1
    13    10    11    2
    14    10    17   am
    15    17    18    1
    16    28    27    1
    17    28    30   am
    18    14    16   ar
    19    14    13    1
    20     3     4    2
    21     3     2    1
    22    33    32    2
    23     1     2    1
    24    31    32    1
    25    31    30    1
    26    31    34    1
    27    32    37   am
    28    13    12    1
    29    37    38    1
    30    64    62    1
    31    38    39    1
    32     2     5    1
    33    63    62    1
    34    36    34    1
    35    34    35    1
    36    62    59    1
    37     5     6    1
    38     5     7    1
    39    39    40    2
    40    39    41   am
    41   137   138    1
    42   137   134    1
    43    59    60    1
    44    59    58    1
    45    41    42    1
    46   136   135    2
    47    60    61    2
    48    58    52   am
    49   134   135    1
    50   134   133    1
    51   124   123    1
    52    42    43    1
    53    42    45    1
    54   133   127   am
    55    52    53    2
    56    52    51    1
    57    43    50   am
    58    43    44    2
    59   132   130   ar
    60    50    51    1
    61    45    46    1
    62   123   122    1
    63   128   127    2
    64   127   126    1
    65    51    54    1
    66    54    55    1
    67    71    70    1
    68    69    70    1
    69    69    66    1
    70    67    68    2
    71    67    66    1
    72   130   129    1
    73   130   131   ar
    74   129   126    1
    75    57    55    1
    76    55    56    1
    77    46    47    1
    78    81    80    1
    79   121   122    1
    80   121   118    1
    81   126   125    1
    82    70    72    1
    83    66    65    1
    84    49    47   ar
    85   125   119   am
    86    80    79    1
    87    47    48   ar
    88    93    92    1
    89   119   120    2
    90   119   118    1
    91   103   102    1
    92   118   117    1
    93   104   102    1
    94   102   101    2
    95    91    92   ar
    96    91    89   ar
    97    92    90   ar
    98    79    78    1
    99   110   109    1
   100   101   100    1
   101   108   107    2
   102    78    77    1
   103    89    87   ar
   104    90    88   ar
   105   116   113    1
   106   100    99    1
   107   107   106    1
   108   107   112   am
   109    77    74    1
   110   109   111    1
   111   109   106    1
   112    87    88   ar
   113    87    86    1
   114   113   112    1
   115   113   114    1
   116    99    98    1
   117    73    74    1
   118   106   105    1
   119    74    75    1
   120    86    83    1
   121   114   115    2
   122    98    95    1
   123    75    82   am
   124    75    76    2
   125    82    83    1
   126    83    84    1
   127    95    94    1
   128    95    96    1
   129    84    85    2
   130    96    97    2
