@<TRIPOS>MOLECULE
tmp/5pzvD01.pdb
 137 133 0 0 0
SMALL
GASTEIGER

@<TRIPOS>ATOM
      1  N         24.4480   11.4310   46.5270 N.3     9  VAL9       -0.1231
      2  CA        23.7250   10.1730   46.3650 C.3     9  VAL9        0.1692
      3  C         24.6780    9.0380   45.9980 C.2     9  VAL9        0.2591
      4  O         24.5320    7.9100   46.4860 O.2     9  VAL9       -0.2718
      5  CB        22.6090   10.3420   45.3180 C.3     9  VAL9        0.0266
      6  CG1       21.9940    8.9990   44.9760 C.3     9  VAL9        0.0020
      7  CG2       21.5390   11.3150   45.8320 C.3     9  VAL9        0.0020
      8  N         25.6670    9.3200   45.1400 N.am   10  MET10      -0.1979
      9  CA        26.6470    8.3070   44.7350 C.3    10  MET10       0.1605
     10  C         27.4450    7.7870   45.9190 C.2    10  MET10       0.2287
     11  O         27.6310    6.5760   46.0720 O.2    10  MET10      -0.2864
     12  CB        27.6040    8.8780   43.6950 C.3    10  MET10       0.0413
     13  CG        27.0220    8.9970   42.3240 C.3    10  MET10       0.0598
     14  SD        28.2830    9.5790   41.1940 S.3    10  MET10      -0.1393
     15  CE        29.2740    8.1140   41.0610 C.3    10  MET10       0.0692
     16  N         26.5940    7.8480   49.0590 N.3    12  GLU12      -0.1231
     17  CA        25.6770    7.0560   49.8700 C.3    12  GLU12       0.1699
     18  C         25.4300    5.6920   49.2430 C.2    12  GLU12       0.2593
     19  O         25.3490    4.6790   49.9500 O.2    12  GLU12      -0.2718
     20  CB        24.3570    7.8090   50.0460 C.3    12  GLU12       0.0402
     21  CG        24.4250    8.9470   51.0320 C.3    12  GLU12       0.1161
     22  CD        24.6810    8.4620   52.4420 C.2    12  GLU12       0.3649
     23  OE1       24.2670    7.3300   52.7700 O.co2  12  GLU12      -0.2457
     24  OE2       25.3070    9.2060   53.2220 O.co2  12  GLU12      -0.2457
     25  N         25.3280    5.6470   47.9120 N.am   13  GLY13      -0.1942
     26  CA        25.1470    4.3750   47.2330 C.3    13  GLY13       0.2014
     27  C         26.3640    3.4790   47.3400 C.2    13  GLY13       0.2638
     28  O         26.2370    2.2610   47.5070 O.2    13  GLY13      -0.2714
     29  N         27.5600    4.0640   47.2290 N.am   14  ARG14      -0.1977
     30  CA        28.7780    3.2780   47.3870 C.3    14  ARG14       0.1597
     31  C         28.9310    2.7640   48.8100 C.2    14  ARG14       0.2287
     32  O         29.4800    1.6790   49.0130 O.2    14  ARG14      -0.2864
     33  CB        30.0050    4.0980   46.9770 C.3    14  ARG14       0.0334
     34  CG        29.9840    4.4890   45.5140 C.3    14  ARG14       0.0492
     35  CD        31.1820    5.3120   45.0510 C.3    14  ARG14       0.2205
     36  NE        32.4330    4.5560   45.1050 N.pl3  14  ARG14      -0.0865
     37  CZ        33.6300    5.0580   44.8180 C.cat  14  ARG14       0.5346
     38  NH1       33.7430    6.3250   44.4550 N.pl3  14  ARG14       0.1354
     39  NH2       34.7150    4.2920   44.8910 N.pl3  14  ARG14       0.1354
     40  N         26.3050    1.9160   50.7140 N.3    16  ALA16      -0.1231
     41  CA        25.3470    0.8190   50.7670 C.3    16  ALA16       0.1694
     42  C         25.6970   -0.3190   49.8150 C.2    16  ALA16       0.2592
     43  O         25.0980   -1.3940   49.9210 O.2    16  ALA16      -0.2718
     44  CB        23.9370    1.3310   50.4570 C.3    16  ALA16       0.0304
     45  N         26.6360   -0.1070   48.8950 N.am   17  ARG17      -0.1966
     46  CA        27.0650   -1.1420   47.9530 C.3    17  ARG17       0.1729
     47  C         25.9000   -1.6780   47.1190 C.2    17  ARG17       0.2617
     48  O         25.8060   -2.8780   46.8490 O.2    17  ARG17      -0.2715
     49  CB        27.7900   -2.2870   48.6680 C.3    17  ARG17       0.0348
     50  CG        29.0690   -1.8860   49.3880 C.3    17  ARG17       0.0492
     51  CD        29.6930   -3.0890   50.0820 C.3    17  ARG17       0.2205
     52  NE        30.9580   -2.7680   50.7410 N.pl3  17  ARG17      -0.0865
     53  CZ        31.6830   -3.6430   51.4350 C.cat  17  ARG17       0.5346
     54  NH1       31.2680   -4.8970   51.5640 N.pl3  17  ARG17       0.1354
     55  NH2       32.8220   -3.2670   52.0020 N.pl3  17  ARG17       0.1354
     56  N         24.9890   -0.7930   46.7320 N.am   18  GLY18      -0.1940
     57  CA        23.9060   -1.1700   45.8540 C.3    18  GLY18       0.2014
     58  C         24.3520   -1.2320   44.4060 C.2    18  GLY18       0.2640
     59  O         25.4970   -0.9590   44.0580 O.2    18  GLY18      -0.2714
     60  N         23.4110   -1.6090   43.5450 N.am   19  THR19      -0.1936
     61  CA        23.6540   -1.7770   42.1160 C.3    19  THR19       0.2028
     62  C         23.7400   -0.4610   41.3420 C.2    19  THR19       0.2643
     63  O         24.1450   -0.4780   40.1730 O.2    19  THR19      -0.2714
     64  CB        22.5530   -2.6470   41.5030 C.3    19  THR19       0.1808
     65  OG1       21.5770   -1.8080   40.8780 O.3    19  THR19      -0.2208
     66  CG2       21.8670   -3.4910   42.5720 C.3    19  THR19       0.0379
     67  N         23.3370    0.6670   41.9320 N.am   20  GLY20      -0.1939
     68  CA        23.3280    1.9360   41.2320 C.3    20  GLY20       0.2014
     69  C         22.0070    2.3350   40.6090 C.2    20  GLY20       0.2639
     70  O         21.8880    3.4650   40.1250 O.2    20  GLY20      -0.2714
     71  N         20.9980    1.4670   40.6490 N.am   21  GLU21      -0.1963
     72  CA        19.7210    1.8060   40.0340 C.3    21  GLU21       0.1733
     73  C         19.0720    3.0000   40.7250 C.2    21  GLU21       0.2616
     74  O         18.5000    3.8790   40.0580 O.2    21  GLU21      -0.2715
     75  CB        18.7970    0.5940   40.0660 C.3    21  GLU21       0.0429
     76  CG        18.0590    0.3680   38.7760 C.3    21  GLU21       0.1163
     77  CD        17.3370   -0.9540   38.7510 C.2    21  GLU21       0.3649
     78  OE1       16.0930   -0.9550   38.8070 O.co2  21  GLU21      -0.2457
     79  OE2       18.0210   -1.9910   38.6820 O.co2  21  GLU21      -0.2457
     80  N         19.1490    3.0500   42.0620 N.am   22  LEU22      -0.1963
     81  CA        18.5470    4.1590   42.8030 C.3    22  LEU22       0.1728
     82  C         19.2500    5.4750   42.4920 C.2    22  LEU22       0.2616
     83  O         18.6080    6.5280   42.3590 O.2    22  LEU22      -0.2715
     84  CB        18.6080    3.8860   44.3040 C.3    22  LEU22       0.0311
     85  CG        17.8690    4.9650   45.1000 C.3    22  LEU22       0.0022
     86  CD1       16.4320    4.9980   44.6060 C.3    22  LEU22       0.0001
     87  CD2       17.9360    4.7410   46.6160 C.3    22  LEU22       0.0001
     88  N         20.5720    5.4270   42.3910 N.am   23  THR23      -0.1951
     89  CA        21.3380    6.5960   42.0000 C.3    23  THR23       0.1897
     90  C         20.9310    7.0800   40.6200 C.2    23  THR23       0.2313
     91  O         20.7640    8.2890   40.4110 O.2    23  THR23      -0.2863
     92  CB        22.8310    6.2820   42.0660 C.3    23  THR23       0.1794
     93  OG1       23.1870    6.0200   43.4340 O.3    23  THR23      -0.2208
     94  CG2       23.6640    7.4470   41.5410 C.3    23  THR23       0.0378
     95  N         13.5020   -1.7310   39.1180 N.3    94  LYS94      -0.1231
     96  CA        12.8890   -2.3490   40.2800 C.3    94  LYS94       0.1693
     97  C         12.0750   -1.3870   41.1480 C.2    94  LYS94       0.2592
     98  O         11.3930   -1.8470   42.0690 O.2    94  LYS94      -0.2718
     99  CB        13.9670   -3.0430   41.1070 C.3    94  LYS94       0.0285
    100  CG        15.0820   -2.1710   41.6270 C.3    94  LYS94       0.0035
    101  CD        15.9570   -3.0180   42.5500 C.3    94  LYS94       0.0206
    102  CE        17.2180   -2.3060   43.0210 C.3    94  LYS94       0.1093
    103  NZ        18.3430   -2.4670   42.0550 N.3    94  LYS94      -0.1314
    104  N         12.0470   -0.0900   40.8390 N.am   95  TYR95      -0.1976
    105  CA        11.4080    0.8730   41.7260 C.3    95  TYR95       0.1639
    106  C         10.0290    1.2820   41.2180 C.2    95  TYR95       0.2290
    107  O          9.7330    1.2070   40.0230 O.2    95  TYR95      -0.2864
    108  CB        12.2920    2.1080   41.9210 C.3    95  TYR95       0.0560
    109  CG        13.5230    1.7380   42.7090 C.ar   95  TYR95      -0.0198
    110  CD1       13.4490    1.4990   44.0810 C.ar   95  TYR95      -0.0009
    111  CD2       14.7410    1.5540   42.0760 C.ar   95  TYR95      -0.0009
    112  CE1       14.5780    1.1390   44.8060 C.ar   95  TYR95       0.0417
    113  CE2       15.8690    1.1970   42.7890 C.ar   95  TYR95       0.0417
    114  CZ        15.7860    0.9860   44.1460 C.ar   95  TYR95       0.1957
    115  OH        16.9240    0.6130   44.8260 O.3    95  TYR95      -0.2866
    116  N         15.9550   10.1100   53.0820 N.3   159  MET159     -0.1230
    117  CA        16.3140    8.6980   53.0170 C.3   159  MET159      0.1702
    118  C         16.6070    8.2150   54.4390 C.2   159  MET159      0.2592
    119  O         16.4320    8.9520   55.4220 O.2   159  MET159     -0.2718
    120  CB        17.5170    8.4690   52.0880 C.3   159  MET159      0.0401
    121  CG        17.2860    8.8230   50.6160 C.3   159  MET159      0.0596
    122  SD        18.7310    8.5310   49.5510 S.3   159  MET159     -0.1393
    123  CE        19.9350    9.6360   50.2790 C.3   159  MET159      0.0692
    124  N         17.0860    6.9690   54.5340 N.am  160  ASP160     -0.1960
    125  CA        17.4450    6.3960   55.8300 C.3   160  ASP160      0.1840
    126  C         18.4280    7.2810   56.5830 C.2   160  ASP160      0.2622
    127  O         18.3210    7.4360   57.8030 O.2   160  ASP160     -0.2715
    128  CB        18.0460    4.9960   55.6500 C.3   160  ASP160      0.1450
    129  CG        17.0200    3.8960   55.7690 C.2   160  ASP160      0.3671
    130  OD1       15.8510    4.1930   56.1080 O.co2 160  ASP160     -0.2456
    131  OD2       17.3880    2.7200   55.5520 O.co2 160  ASP160     -0.2456
    132  N         19.3830    7.8850   55.8720 N.am  161  CYS161     -0.1968
    133  CA        20.3850    8.7280   56.5250 C.3   161  CYS161      0.1712
    134  C         19.8240   10.0630   57.0310 C.2   161  CYS161      0.2296
    135  O         20.5850   10.8290   57.6320 O.2   161  CYS161     -0.2864
    136  CB        21.5600    8.9900   55.5770 C.3   161  CYS161      0.0983
    137  SG        21.1710    9.9790   54.0840 S.3   161  CYS161     -0.0798
@<TRIPOS>BOND
     1    79    77   ar
     2    77    76    1
     3    77    78   ar
     4    76    75    1
     5    95    96    1
     6   107   106    2
     7    72    75    1
     8    72    71    1
     9    72    73    1
    10    74    73    2
    11    70    69    2
    12    63    62    2
    13    96    99    1
    14    96    97    1
    15    91    90    2
    16    69    71   am
    17    69    68    1
    18    90    89    1
    19    73    80   am
    20   104    97   am
    21   104   105    1
    22    65    64    1
    23    15    14    1
    24    99   100    1
    25    97    98    2
    26    14    13    1
    27   106   105    1
    28    68    67    1
    29    62    67   am
    30    62    61    1
    31    64    61    1
    32    64    66    1
    33    94    92    1
    34   100   101    1
    35   105   108    1
    36   108   109    1
    37    89    92    1
    38    89    88    1
    39   103   102    1
    40    80    81    1
    41    92    93    1
    42   111   109   ar
    43   111   113   ar
    44    61    60    1
    45    13    12    1
    46    83    82    2
    47    88    82   am
    48    82    81    1
    49   101   102    1
    50   109   110   ar
    51   113   114   ar
    52    81    84    1
    53    60    58   am
    54    12     9    1
    55    59    58    2
    56   110   112   ar
    57   114   112   ar
    58   114   115    1
    59    84    85    1
    60    58    57    1
    61    38    37    1
    62    86    85    1
    63     9     8    1
    64     9    10    1
    65    37    39    1
    66    37    36    2
    67     6     5    1
    68    35    36    1
    69    35    34    1
    70    85    87    1
    71     8     3   am
    72     5     7    1
    73     5     2    1
    74    34    33    1
    75    57    56    1
    76    10    11    2
    77     3     2    1
    78     3     4    2
    79     2     1    1
    80    56    47   am
    81    48    47    2
    82    33    30    1
    83    47    46    1
    84    29    27   am
    85    29    30    1
    86    26    27    1
    87    26    25    1
    88    27    28    2
    89    30    31    1
    90    25    18   am
    91    46    49    1
    92    46    45    1
    93    49    50    1
    94    31    32    2
    95    45    42   am
    96    16    17    1
    97    18    17    1
    98    18    19    2
    99    50    51    1
   100   122   123    1
   101   122   121    1
   102    42    43    2
   103    42    41    1
   104    17    20    1
   105    20    21    1
   106    51    52    1
   107    44    41    1
   108   121   120    1
   109    40    41    1
   110    52    53    2
   111    21    22    1
   112    53    54    1
   113    53    55    1
   114   120   117    1
   115    22    23   ar
   116    22    24   ar
   117   117   116    1
   118   117   118    1
   119   137   136    1
   120   118   124   am
   121   118   119    2
   122   124   125    1
   123   131   129   ar
   124   136   133    1
   125   128   129    1
   126   128   125    1
   127   129   130   ar
   128   125   126    1
   129   132   133    1
   130   132   126   am
   131   133   134    1
   132   126   127    2
   133   134   135    2
