@<TRIPOS>MOLECULE
tmp/5pzwB01.pdb
 119 111 0 0 0
SMALL
GASTEIGER

@<TRIPOS>ATOM
      1  N         27.3260    8.4960   31.6810 N.3     9  VAL9       -0.1245
      2  CA        28.5330    8.0750   32.3930 C.3     9  VAL9        0.1561
      3  C         28.1960    7.0460   33.4530 C.2     9  VAL9        0.2260
      4  O         28.8970    6.0350   33.6170 O.2     9  VAL9       -0.2867
      5  CB        29.2420    9.2960   33.0030 C.3     9  VAL9        0.0252
      6  CG1       30.1950    8.8590   34.1050 C.3     9  VAL9        0.0019
      7  CG2       30.0070   10.0150   31.9230 C.3     9  VAL9        0.0019
      8  N         27.5390    3.6560   31.6930 N.3    12  GLU12      -0.1231
      9  CA        28.8100    3.0360   31.3200 C.3    12  GLU12       0.1699
     10  C         29.5090    2.4670   32.5460 C.2    12  GLU12       0.2592
     11  O         30.0980    1.3780   32.4910 O.2    12  GLU12      -0.2718
     12  CB        29.7290    4.0420   30.6200 C.3    12  GLU12       0.0402
     13  CG        29.3220    4.4080   29.2010 C.3    12  GLU12       0.1161
     14  CD        29.2020    3.1880   28.3080 C.2    12  GLU12       0.3649
     15  OE1       28.1270    3.0080   27.7130 O.co2  12  GLU12      -0.2457
     16  OE2       30.1690    2.4100   28.2080 O.co2  12  GLU12      -0.2457
     17  N         29.4440    3.1860   33.6670 N.am   13  GLY13      -0.1957
     18  CA        30.1090    2.7110   34.8650 C.3    13  GLY13       0.1869
     19  C         29.4700    1.4500   35.4010 C.2    13  GLY13       0.2309
     20  O         30.1630    0.5340   35.8510 O.2    13  GLY13      -0.2863
     21  N         30.7060   -1.5840   33.2520 N.3    16  ALA16      -0.1245
     22  CA        32.0300   -2.0600   33.6100 C.3    16  ALA16       0.1562
     23  C         32.0930   -2.6210   35.0200 C.2    16  ALA16       0.2260
     24  O         33.1430   -3.1380   35.4090 O.2    16  ALA16      -0.2867
     25  CB        33.0520   -0.9320   33.4660 C.3    16  ALA16       0.0290
     26  N         32.3650   -1.0920   37.7030 N.3    18  GLY18      -0.1210
     27  CA        33.3920   -0.3850   38.4290 C.3    18  GLY18       0.1956
     28  C         32.8920    0.0330   39.7940 C.2    18  GLY18       0.2613
     29  O         31.7170   -0.1110   40.1290 O.2    18  GLY18      -0.2717
     30  N         33.8100    0.5520   40.6030 N.am   19  THR19      -0.1938
     31  CA        33.4470    0.9530   41.9550 C.3    19  THR19       0.2028
     32  C         32.6560    2.2570   42.0050 C.2    19  THR19       0.2643
     33  O         32.1670    2.6170   43.0780 O.2    19  THR19      -0.2714
     34  CB        34.7020    1.0770   42.8220 C.3    19  THR19       0.1808
     35  OG1       35.5560    2.0940   42.2870 O.3    19  THR19      -0.2208
     36  CG2       35.4530   -0.2500   42.8760 C.3    19  THR19       0.0379
     37  N         32.5180    2.9670   40.8850 N.am   20  GLY20      -0.1939
     38  CA        31.9050    4.2790   40.8670 C.3    20  GLY20       0.2014
     39  C         32.8800    5.4370   40.9840 C.2    20  GLY20       0.2639
     40  O         32.4500    6.5880   40.9060 O.2    20  GLY20      -0.2714
     41  N         34.1810    5.1640   41.1380 N.am   21  GLU21      -0.1963
     42  CA        35.1550    6.2270   41.3660 C.3    21  GLU21       0.1733
     43  C         35.3290    7.1050   40.1300 C.2    21  GLU21       0.2616
     44  O         35.3770    8.3340   40.2330 O.2    21  GLU21      -0.2715
     45  CB        36.5030    5.6260   41.7840 C.3    21  GLU21       0.0429
     46  CG        37.4960    6.6750   42.2160 C.3    21  GLU21       0.1163
     47  CD        38.7410    6.1060   42.8740 C.2    21  GLU21       0.3649
     48  OE1       38.6900    5.0040   43.4560 O.co2  21  GLU21      -0.2457
     49  OE2       39.7710    6.8010   42.8460 O.co2  21  GLU21      -0.2457
     50  N         35.4640    6.4920   38.9540 N.am   22  LEU22      -0.1963
     51  CA        35.6130    7.2720   37.7290 C.3    22  LEU22       0.1728
     52  C         34.3430    8.0540   37.4300 C.2    22  LEU22       0.2616
     53  O         34.4020    9.1760   36.9190 O.2    22  LEU22      -0.2715
     54  CB        35.9650    6.3590   36.5470 C.3    22  LEU22       0.0311
     55  CG        36.2040    7.0270   35.1830 C.3    22  LEU22       0.0022
     56  CD1       37.4030    7.9590   35.2470 C.3    22  LEU22       0.0001
     57  CD2       36.4110    6.0110   34.0730 C.3    22  LEU22       0.0001
     58  N         33.1830    7.4740   37.7420 N.am   23  THR23      -0.1951
     59  CA        31.9330    8.1970   37.5350 C.3    23  THR23       0.1897
     60  C         31.8780    9.4550   38.3950 C.2    23  THR23       0.2313
     61  O         31.4200   10.5100   37.9360 O.2    23  THR23      -0.2863
     62  CB        30.7490    7.2750   37.8350 C.3    23  THR23       0.1794
     63  OG1       30.6880    6.2500   36.8340 O.3    23  THR23      -0.2208
     64  CG2       29.4070    8.0480   37.8600 C.3    23  THR23       0.0378
     65  N         34.1920   12.0340   36.7860 N.3    26  LEU26      -0.1245
     66  CA        33.5940   12.6430   35.6030 C.3    26  LEU26       0.1561
     67  C         32.4300   13.5550   35.9770 C.2    26  LEU26       0.2260
     68  O         32.2560   14.6150   35.3630 O.2    26  LEU26      -0.2867
     69  CB        33.1560   11.5650   34.6110 C.3    26  LEU26       0.0270
     70  CG        34.3440   10.8590   33.9450 C.3    26  LEU26       0.0019
     71  CD1       33.8820    9.6880   33.0970 C.3    26  LEU26       0.0001
     72  CD2       35.1690   11.8390   33.1260 C.3    26  LEU26       0.0001
     73  N         42.3770    7.1960   42.9060 N.3    94  LYS94      -0.1231
     74  CA        43.3640    6.4700   42.1150 C.3    94  LYS94       0.1693
     75  C         43.6680    7.0820   40.7500 C.2    94  LYS94       0.2592
     76  O         44.5080    6.5350   40.0300 O.2    94  LYS94      -0.2718
     77  CB        42.9280    5.0080   41.9490 C.3    94  LYS94       0.0285
     78  CG        41.6840    4.7670   41.1050 C.3    94  LYS94       0.0035
     79  CD        41.5270    3.2740   40.8210 C.3    94  LYS94       0.0206
     80  CE        40.0700    2.8210   40.8530 C.3    94  LYS94       0.1093
     81  NZ        39.4930    2.7390   42.2200 N.3    94  LYS94      -0.1314
     82  N         43.0240    8.1840   40.3620 N.am   95  TYR95      -0.1976
     83  CA        43.1940    8.6930   39.0060 C.3    95  TYR95       0.1639
     84  C         44.1070    9.9090   38.9530 C.2    95  TYR95       0.2290
     85  O         44.2380   10.6600   39.9200 O.2    95  TYR95      -0.2864
     86  CB        41.8560    9.0330   38.3690 C.3    95  TYR95       0.0560
     87  CG        41.0960    7.7870   38.0600 C.ar   95  TYR95      -0.0198
     88  CD1       41.4620    6.9780   36.9900 C.ar   95  TYR95      -0.0009
     89  CD2       40.0250    7.3950   38.8510 C.ar   95  TYR95      -0.0009
     90  CE1       40.7610    5.7980   36.7080 C.ar   95  TYR95       0.0417
     91  CE2       39.3220    6.2330   38.5790 C.ar   95  TYR95       0.0417
     92  CZ        39.6940    5.4400   37.5100 C.ar   95  TYR95       0.1957
     93  OH        38.9890    4.2870   37.2600 O.3    95  TYR95      -0.2866
     94  N         44.8290    6.1860   34.9920 N.3   122  ARG122     -0.1245
     95  CA        44.7770    5.4630   36.2520 C.3   122  ARG122      0.1563
     96  C         46.1880    5.2970   36.8100 C.2   122  ARG122      0.2260
     97  O         47.1150    4.9460   36.0710 O.2   122  ARG122     -0.2867
     98  CB        44.1290    4.0980   36.0230 C.3   122  ARG122      0.0307
     99  CG        43.9430    3.2110   37.2330 C.3   122  ARG122      0.0489
    100  CD        43.5660    1.7880   36.7970 C.3   122  ARG122      0.2205
    101  NE        42.4070    1.7350   35.9060 N.pl3 122  ARG122     -0.0865
    102  CZ        42.4850    1.6370   34.5780 C.cat 122  ARG122      0.5346
    103  NH1       43.6710    1.5920   33.9750 N.pl3 122  ARG122      0.1354
    104  NH2       41.3780    1.5940   33.8480 N.pl3 122  ARG122      0.1354
    105  N         42.5680    6.5090   30.1390 N.3   142  VAL142     -0.1245
    106  CA        41.2820    5.8840   30.4120 C.3   142  VAL142      0.1561
    107  C         40.1570    6.6700   29.7500 C.2   142  VAL142      0.2260
    108  O         39.1650    6.1000   29.2920 O.2   142  VAL142     -0.2867
    109  CB        41.0910    5.7820   31.9420 C.3   142  VAL142      0.0252
    110  CG1       39.7220    5.2550   32.2840 C.3   142  VAL142      0.0019
    111  CG2       42.1820    4.9240   32.5540 C.3   142  VAL142      0.0019
    112  N         36.1130    7.6230   25.2900 N.3   159  MET159     -0.1245
    113  CA        36.5030    6.5030   26.1420 C.3   159  MET159      0.1570
    114  C         36.6290    5.2790   25.2530 C.2   159  MET159      0.2261
    115  O         36.4810    5.3670   24.0320 O.2   159  MET159     -0.2867
    116  CB        35.4900    6.2670   27.2710 C.3   159  MET159      0.0387
    117  CG        35.2670    7.4730   28.1480 C.3   159  MET159      0.0595
    118  SD        34.3100    7.1060   29.6100 S.3   159  MET159     -0.1393
    119  CE        32.7360    6.7420   28.8720 C.3   159  MET159      0.0692
@<TRIPOS>BOND
     1   115   114    2
     2   114   113    1
     3   112   113    1
     4   113   116    1
     5   116   117    1
     6    15    14   ar
     7   117   118    1
     8    16    14   ar
     9    14    13    1
    10   119   118    1
    11    13    12    1
    12   108   107    2
    13   107   106    1
    14   105   106    1
    15   106   109    1
    16    12     9    1
    17     9     8    1
    18     9    10    1
    19     1     2    1
    20     7     5    1
    21   109   110    1
    22   109   111    1
    23     2     5    1
    24     2     3    1
    25    11    10    2
    26    10    17   am
    27     5     6    1
    28    71    70    1
    29    72    70    1
    30    21    22    1
    31     3     4    2
    32    25    22    1
    33    22    23    1
    34    17    18    1
    35   104   102    1
    36    70    69    1
    37   103   102    1
    38    57    55    1
    39   102   101    2
    40    69    66    1
    41    18    19    1
    42    94    95    1
    43    23    24    2
    44    55    56    1
    45    55    54    1
    46    68    67    2
    47    19    20    2
    48    66    67    1
    49    66    65    1
    50   101   100    1
    51    98    95    1
    52    98    99    1
    53    97    96    2
    54    95    96    1
    55    54    51    1
    56    90    88   ar
    57    90    92   ar
    58   100    99    1
    59    63    62    1
    60    53    52    2
    61    88    87   ar
    62    93    92    1
    63    52    51    1
    64    52    58   am
    65    92    91   ar
    66    59    58    1
    67    59    62    1
    68    59    60    1
    69    26    27    1
    70    51    50    1
    71    62    64    1
    72    61    60    2
    73    87    86    1
    74    87    89   ar
    75    86    83    1
    76    27    28    1
    77    91    89   ar
    78    84    83    1
    79    84    85    2
    80    50    43   am
    81    83    82    1
    82    28    29    2
    83    28    30   am
    84    76    75    2
    85    43    44    2
    86    43    42    1
    87    82    75   am
    88    30    31    1
    89    75    74    1
    90    79    80    1
    91    79    78    1
    92    80    81    1
    93    38    37    1
    94    38    39    1
    95    37    32   am
    96    40    39    2
    97    39    41   am
    98    78    77    1
    99    41    42    1
   100    42    45    1
   101    45    46    1
   102    77    74    1
   103    31    32    1
   104    31    34    1
   105    32    33    2
   106    74    73    1
   107    46    47    1
   108    35    34    1
   109    34    36    1
   110    49    47   ar
   111    47    48   ar
