@<TRIPOS>MOLECULE
tmp/5pzwB00.pdb
 122 117 0 0 0
SMALL
GASTEIGER

@<TRIPOS>ATOM
      1  N         27.3260    8.4960   31.6810 N.3     9  VAL9       -0.1231
      2  CA        28.5330    8.0750   32.3930 C.3     9  VAL9        0.1692
      3  C         28.1960    7.0460   33.4530 C.2     9  VAL9        0.2591
      4  O         28.8970    6.0350   33.6170 O.2     9  VAL9       -0.2718
      5  CB        29.2420    9.2960   33.0030 C.3     9  VAL9        0.0266
      6  CG1       30.1950    8.8590   34.1050 C.3     9  VAL9        0.0020
      7  CG2       30.0070   10.0150   31.9230 C.3     9  VAL9        0.0020
      8  N         27.1220    7.2940   34.1990 N.am   10  MET10      -0.1979
      9  CA        26.6960    6.3430   35.2110 C.3    10  MET10       0.1605
     10  C         26.4250    4.9810   34.6040 C.2    10  MET10       0.2287
     11  O         26.8200    3.9530   35.1660 O.2    10  MET10      -0.2864
     12  CB        25.4450    6.8610   35.9130 C.3    10  MET10       0.0413
     13  CG        24.9690    5.9650   37.0180 C.3    10  MET10       0.0598
     14  SD        26.0580    5.7770   38.4330 S.3    10  MET10      -0.1393
     15  CE        25.0130    4.6970   39.3940 C.3    10  MET10       0.0692
     16  N         27.5390    3.6560   31.6930 N.3    12  GLU12      -0.1231
     17  CA        28.8100    3.0360   31.3200 C.3    12  GLU12       0.1699
     18  C         29.5090    2.4670   32.5460 C.2    12  GLU12       0.2593
     19  O         30.0980    1.3780   32.4910 O.2    12  GLU12      -0.2718
     20  CB        29.7290    4.0420   30.6200 C.3    12  GLU12       0.0402
     21  CG        29.3220    4.4080   29.2010 C.3    12  GLU12       0.1161
     22  CD        29.2020    3.1880   28.3080 C.2    12  GLU12       0.3649
     23  OE1       28.1270    3.0080   27.7130 O.co2  12  GLU12      -0.2457
     24  OE2       30.1690    2.4100   28.2080 O.co2  12  GLU12      -0.2457
     25  N         29.4440    3.1860   33.6670 N.am   13  GLY13      -0.1942
     26  CA        30.1090    2.7110   34.8650 C.3    13  GLY13       0.2014
     27  C         29.4700    1.4500   35.4010 C.2    13  GLY13       0.2638
     28  O         30.1630    0.5340   35.8510 O.2    13  GLY13      -0.2714
     29  N         28.1410    1.3620   35.3010 N.am   14  ARG14      -0.1977
     30  CA        27.4350    0.1540   35.7050 C.3    14  ARG14       0.1597
     31  C         27.7530   -1.0160   34.7830 C.2    14  ARG14       0.2287
     32  O         27.7440   -2.1720   35.2250 O.2    14  ARG14      -0.2864
     33  CB        25.9290    0.4270   35.7250 C.3    14  ARG14       0.0334
     34  CG        25.4800    1.3900   36.8140 C.3    14  ARG14       0.0492
     35  CD        23.9810    1.6360   36.7220 C.3    14  ARG14       0.2205
     36  NE        23.1970    0.4950   37.1840 N.pl3  14  ARG14      -0.0865
     37  CZ        21.9250    0.2880   36.8520 C.cat  14  ARG14       0.5346
     38  NH1       21.3100    1.1450   36.0490 N.pl3  14  ARG14       0.1354
     39  NH2       21.2690   -0.7710   37.3210 N.pl3  14  ARG14       0.1354
     40  N         30.7060   -1.5840   33.2520 N.3    16  ALA16      -0.1231
     41  CA        32.0300   -2.0600   33.6100 C.3    16  ALA16       0.1694
     42  C         32.0930   -2.6210   35.0200 C.2    16  ALA16       0.2592
     43  O         33.1430   -3.1380   35.4090 O.2    16  ALA16      -0.2718
     44  CB        33.0520   -0.9320   33.4660 C.3    16  ALA16       0.0304
     45  N         31.0010   -2.5370   35.7850 N.am   17  ARG17      -0.1966
     46  CA        30.9780   -3.0040   37.1680 C.3    17  ARG17       0.1729
     47  C         32.1160   -2.3750   37.9640 C.2    17  ARG17       0.2617
     48  O         32.7950   -3.0340   38.7550 O.2    17  ARG17      -0.2715
     49  CB        31.0080   -4.5320   37.2580 C.3    17  ARG17       0.0348
     50  CG        29.7510   -5.2080   36.7310 C.3    17  ARG17       0.0492
     51  CD        29.8290   -6.7330   36.8700 C.3    17  ARG17       0.2205
     52  NE        30.9390   -7.3170   36.1250 N.pl3  17  ARG17      -0.0865
     53  CZ        30.8510   -7.7400   34.8690 C.cat  17  ARG17       0.5346
     54  NH1       29.6970   -7.6580   34.2200 N.pl3  17  ARG17       0.1354
     55  NH2       31.9110   -8.2550   34.2640 N.pl3  17  ARG17       0.1354
     56  N         32.3650   -1.0920   37.7030 N.am   18  GLY18      -0.1940
     57  CA        33.3920   -0.3850   38.4290 C.3    18  GLY18       0.2014
     58  C         32.8920    0.0330   39.7940 C.2    18  GLY18       0.2640
     59  O         31.7170   -0.1110   40.1290 O.2    18  GLY18      -0.2714
     60  N         33.8100    0.5520   40.6030 N.am   19  THR19      -0.1936
     61  CA        33.4470    0.9530   41.9550 C.3    19  THR19       0.2028
     62  C         32.6560    2.2570   42.0050 C.2    19  THR19       0.2643
     63  O         32.1670    2.6170   43.0780 O.2    19  THR19      -0.2714
     64  CB        34.7020    1.0770   42.8220 C.3    19  THR19       0.1808
     65  OG1       35.5560    2.0940   42.2870 O.3    19  THR19      -0.2208
     66  CG2       35.4530   -0.2500   42.8760 C.3    19  THR19       0.0379
     67  N         32.5180    2.9670   40.8850 N.am   20  GLY20      -0.1939
     68  CA        31.9050    4.2790   40.8670 C.3    20  GLY20       0.2014
     69  C         32.8800    5.4370   40.9840 C.2    20  GLY20       0.2639
     70  O         32.4500    6.5880   40.9060 O.2    20  GLY20      -0.2714
     71  N         34.1810    5.1640   41.1380 N.am   21  GLU21      -0.1963
     72  CA        35.1550    6.2270   41.3660 C.3    21  GLU21       0.1733
     73  C         35.3290    7.1050   40.1300 C.2    21  GLU21       0.2616
     74  O         35.3770    8.3340   40.2330 O.2    21  GLU21      -0.2715
     75  CB        36.5030    5.6260   41.7840 C.3    21  GLU21       0.0429
     76  CG        37.4960    6.6750   42.2160 C.3    21  GLU21       0.1163
     77  CD        38.7410    6.1060   42.8740 C.2    21  GLU21       0.3649
     78  OE1       38.6900    5.0040   43.4560 O.co2  21  GLU21      -0.2457
     79  OE2       39.7710    6.8010   42.8460 O.co2  21  GLU21      -0.2457
     80  N         35.4640    6.4920   38.9540 N.am   22  LEU22      -0.1963
     81  CA        35.6130    7.2720   37.7290 C.3    22  LEU22       0.1728
     82  C         34.3430    8.0540   37.4300 C.2    22  LEU22       0.2616
     83  O         34.4020    9.1760   36.9190 O.2    22  LEU22      -0.2715
     84  CB        35.9650    6.3590   36.5470 C.3    22  LEU22       0.0311
     85  CG        36.2040    7.0270   35.1830 C.3    22  LEU22       0.0022
     86  CD1       37.4030    7.9590   35.2470 C.3    22  LEU22       0.0001
     87  CD2       36.4110    6.0110   34.0730 C.3    22  LEU22       0.0001
     88  N         33.1830    7.4740   37.7420 N.am   23  THR23      -0.1951
     89  CA        31.9330    8.1970   37.5350 C.3    23  THR23       0.1897
     90  C         31.8780    9.4550   38.3950 C.2    23  THR23       0.2313
     91  O         31.4200   10.5100   37.9360 O.2    23  THR23      -0.2863
     92  CB        30.7490    7.2750   37.8350 C.3    23  THR23       0.1794
     93  OG1       30.6880    6.2500   36.8340 O.3    23  THR23      -0.2208
     94  CG2       29.4070    8.0480   37.8600 C.3    23  THR23       0.0378
     95  N         34.1920   12.0340   36.7860 N.3    26  LEU26      -0.1245
     96  CA        33.5940   12.6430   35.6030 C.3    26  LEU26       0.1561
     97  C         32.4300   13.5550   35.9770 C.2    26  LEU26       0.2260
     98  O         32.2560   14.6150   35.3630 O.2    26  LEU26      -0.2867
     99  CB        33.1560   11.5650   34.6110 C.3    26  LEU26       0.0270
    100  CG        34.3440   10.8590   33.9450 C.3    26  LEU26       0.0019
    101  CD1       33.8820    9.6880   33.0970 C.3    26  LEU26       0.0001
    102  CD2       35.1690   11.8390   33.1260 C.3    26  LEU26       0.0001
    103  N         43.0240    8.1840   40.3620 N.3    95  TYR95      -0.1241
    104  CA        43.1940    8.6930   39.0060 C.3    95  TYR95       0.1605
    105  C         44.1070    9.9090   38.9530 C.2    95  TYR95       0.2264
    106  O         44.2380   10.6600   39.9200 O.2    95  TYR95      -0.2867
    107  CB        41.8560    9.0330   38.3690 C.3    95  TYR95       0.0534
    108  CG        41.0960    7.7870   38.0600 C.ar   95  TYR95      -0.0201
    109  CD1       41.4620    6.9780   36.9900 C.ar   95  TYR95      -0.0009
    110  CD2       40.0250    7.3950   38.8510 C.ar   95  TYR95      -0.0009
    111  CE1       40.7610    5.7980   36.7080 C.ar   95  TYR95       0.0417
    112  CE2       39.3220    6.2330   38.5790 C.ar   95  TYR95       0.0417
    113  CZ        39.6940    5.4400   37.5100 C.ar   95  TYR95       0.1957
    114  OH        38.9890    4.2870   37.2600 O.3    95  TYR95      -0.2866
    115  N         36.1130    7.6230   25.2900 N.3   159  MET159     -0.1245
    116  CA        36.5030    6.5030   26.1420 C.3   159  MET159      0.1570
    117  C         36.6290    5.2790   25.2530 C.2   159  MET159      0.2261
    118  O         36.4810    5.3670   24.0320 O.2   159  MET159     -0.2867
    119  CB        35.4900    6.2670   27.2710 C.3   159  MET159      0.0387
    120  CG        35.2670    7.4730   28.1480 C.3   159  MET159      0.0595
    121  SD        34.3100    7.1060   29.6100 S.3   159  MET159     -0.1393
    122  CE        32.7360    6.7420   28.8720 C.3   159  MET159      0.0692
@<TRIPOS>BOND
     1   118   117    2
     2   117   116    1
     3   115   116    1
     4   116   119    1
     5   119   120    1
     6    23    22   ar
     7   120   121    1
     8    24    22   ar
     9    22    21    1
    10   122   121    1
    11    21    20    1
    12    20    17    1
    13    17    16    1
    14    17    18    1
    15     1     2    1
    16     7     5    1
    17     2     5    1
    18     2     3    1
    19    19    18    2
    20    18    25   am
    21     5     6    1
    22   101   100    1
    23   102   100    1
    24    40    41    1
    25     3     4    2
    26     3     8   am
    27    44    41    1
    28    41    42    1
    29    25    26    1
    30   100    99    1
    31    87    85    1
    32     8     9    1
    33    54    53    1
    34    55    53    1
    35    10    11    2
    36    10     9    1
    37    99    96    1
    38    31    32    2
    39    31    30    1
    40    26    27    1
    41    53    52    2
    42    42    43    2
    43    42    45   am
    44    85    86    1
    45    85    84    1
    46     9    12    1
    47    29    27   am
    48    29    30    1
    49    98    97    2
    50    27    28    2
    51    96    97    1
    52    96    95    1
    53    30    33    1
    54    33    34    1
    55    45    46    1
    56    12    13    1
    57    38    37    1
    58    52    51    1
    59    84    81    1
    60   111   109   ar
    61   111   113   ar
    62    35    34    1
    63    35    36    1
    64    50    51    1
    65    50    49    1
    66    93    92    1
    67    37    36    2
    68    37    39    1
    69    83    82    2
    70   109   108   ar
    71    13    14    1
    72    46    49    1
    73    46    47    1
    74   114   113    1
    75    82    81    1
    76    82    88   am
    77   113   112   ar
    78    89    88    1
    79    89    92    1
    80    89    90    1
    81    56    47   am
    82    56    57    1
    83    81    80    1
    84    92    94    1
    85    91    90    2
    86    47    48    2
    87   108   107    1
    88   108   110   ar
    89   107   104    1
    90    57    58    1
    91    14    15    1
    92   112   110   ar
    93   105   104    1
    94   105   106    2
    95    80    73   am
    96   104   103    1
    97    58    59    2
    98    58    60   am
    99    73    74    2
   100    73    72    1
   101    60    61    1
   102    68    67    1
   103    68    69    1
   104    67    62   am
   105    70    69    2
   106    69    71   am
   107    71    72    1
   108    72    75    1
   109    75    76    1
   110    61    62    1
   111    61    64    1
   112    62    63    2
   113    76    77    1
   114    65    64    1
   115    64    66    1
   116    79    77   ar
   117    77    78   ar
