@<TRIPOS>MOLECULE
tmp/5pzxA00.pdb
 141 132 0 0 0
SMALL
GASTEIGER

@<TRIPOS>ATOM
      1  N         30.4010    4.7660  -17.1500 N.3     8  PHE8       -0.1227
      2  CA        29.6910    5.6610  -18.0590 C.3     8  PHE8        0.1736
      3  C         30.5870    6.7910  -18.5510 C.2     8  PHE8        0.2595
      4  O         30.5670    7.1420  -19.7350 O.2     8  PHE8       -0.2718
      5  CB        28.4540    6.2080  -17.3510 C.3     8  PHE8        0.0547
      6  CG        27.8770    7.4300  -17.9780 C.ar    8  PHE8       -0.0202
      7  CD1       26.8540    7.3360  -18.8830 C.ar    8  PHE8       -0.0042
      8  CD2       28.3360    8.6920  -17.6140 C.ar    8  PHE8       -0.0042
      9  CE1       26.3190    8.4740  -19.4470 C.ar    8  PHE8       -0.0003
     10  CE2       27.8050    9.8310  -18.1740 C.ar    8  PHE8       -0.0003
     11  CZ        26.7870    9.7220  -19.0880 C.ar    8  PHE8       -0.0000
     12  N         31.3710    7.3820  -17.6580 N.am    9  VAL9       -0.1966
     13  CA        32.2500    8.4650  -18.0710 C.3     9  VAL9        0.1727
     14  C         33.3050    7.9670  -19.0560 C.2     9  VAL9        0.2616
     15  O         33.6020    8.6450  -20.0440 O.2     9  VAL9       -0.2715
     16  CB        32.8780    9.1300  -16.8310 C.3     9  VAL9        0.0290
     17  CG1       34.0620   10.0200  -17.2170 C.3     9  VAL9        0.0023
     18  CG2       31.8030    9.9080  -16.0450 C.3     9  VAL9        0.0023
     19  N         33.8670    6.7690  -18.8310 N.am   10  MET10      -0.1977
     20  CA        34.9050    6.2640  -19.7400 C.3    10  MET10       0.1605
     21  C         34.3310    5.9600  -21.1180 C.2    10  MET10       0.2287
     22  O         34.9400    6.2850  -22.1440 O.2    10  MET10      -0.2864
     23  CB        35.5630    5.0090  -19.1770 C.3    10  MET10       0.0413
     24  CG        36.5190    5.2090  -18.0270 C.3    10  MET10       0.0598
     25  SD        36.9560    3.5750  -17.3440 S.3    10  MET10      -0.1393
     26  CE        37.8140    4.0180  -15.8480 C.3    10  MET10       0.0692
     27  N         31.7980    7.4320  -22.5890 N.3    12  GLU12      -0.1231
     28  CA        31.6030    8.6940  -23.2770 C.3    12  GLU12       0.1699
     29  C         32.9340    9.3180  -23.6340 C.2    12  GLU12       0.2593
     30  O         33.0440   10.0090  -24.6500 O.2    12  GLU12      -0.2718
     31  CB        30.8050    9.6310  -22.3850 C.3    12  GLU12       0.0402
     32  CG        29.4500    9.0650  -21.9840 C.3    12  GLU12       0.1161
     33  CD        28.4670    8.9940  -23.1140 C.2    12  GLU12       0.3649
     34  OE1       28.2020   10.0510  -23.7280 O.co2  12  GLU12      -0.2457
     35  OE2       27.9620    7.8780  -23.3810 O.co2  12  GLU12      -0.2457
     36  N         33.9550    9.0790  -22.8120 N.am   13  GLY13      -0.1942
     37  CA        35.2590    9.6590  -23.0800 C.3    13  GLY13       0.2014
     38  C         35.9100    9.0330  -24.2870 C.2    13  GLY13       0.2638
     39  O         36.5880    9.7150  -25.0590 O.2    13  GLY13      -0.2714
     40  N         35.7150    7.7260  -24.4730 N.am   14  ARG14      -0.1977
     41  CA        36.2230    7.0750  -25.6760 C.3    14  ARG14       0.1597
     42  C         35.3920    7.4700  -26.8870 C.2    14  ARG14       0.2287
     43  O         35.9450    7.8400  -27.9240 O.2    14  ARG14      -0.2864
     44  CB        36.2390    5.5540  -25.4970 C.3    14  ARG14       0.0334
     45  CG        37.4040    5.0780  -24.6330 C.3    14  ARG14       0.0492
     46  CD        37.4910    3.5730  -24.5050 C.3    14  ARG14       0.2205
     47  NE        37.9150    2.9030  -25.7310 N.pl3  14  ARG14      -0.0865
     48  CZ        37.9020    1.5830  -25.8760 C.cat  14  ARG14       0.5346
     49  NH1       37.4850    0.8200  -24.8740 N.pl3  14  ARG14       0.1354
     50  NH2       38.3040    1.0200  -27.0010 N.pl3  14  ARG14       0.1354
     51  N         33.9350   10.0840  -27.5410 N.3    16  ALA16      -0.1245
     52  CA        34.3050   11.4220  -27.9610 C.3    16  ALA16       0.1562
     53  C         35.7890   11.5390  -28.2690 C.2    16  ALA16       0.2260
     54  O         36.2360   12.6130  -28.6810 O.2    16  ALA16      -0.2867
     55  CB        33.9050   12.4250  -26.8830 C.3    16  ALA16       0.0290
     56  N         38.5050   11.7920  -26.4250 N.3    18  GLY18      -0.1210
     57  CA        39.1960   12.8140  -25.6700 C.3    18  GLY18       0.1956
     58  C         40.5080   12.3280  -25.0660 C.2    18  GLY18       0.2613
     59  O         40.8830   11.1580  -25.1570 O.2    18  GLY18      -0.2717
     60  N         41.2150   13.2700  -24.4360 N.am   19  THR19      -0.1938
     61  CA        42.5420   12.9990  -23.8990 C.3    19  THR19       0.2028
     62  C         42.5010   12.1840  -22.6180 C.2    19  THR19       0.2642
     63  O         43.5170   11.5860  -22.2380 O.2    19  THR19      -0.2714
     64  CB        43.2750   14.3130  -23.5920 C.3    19  THR19       0.1808
     65  OG1       42.5680   15.0540  -22.5730 O.3    19  THR19      -0.2208
     66  CG2       43.3870   15.1600  -24.8430 C.3    19  THR19       0.0379
     67  N         41.3540   12.1520  -21.9510 N.am   20  GLY20      -0.1954
     68  CA        41.2510   11.5570  -20.6460 C.3    20  GLY20       0.1869
     69  C         41.3850   12.5230  -19.4830 C.2    20  GLY20       0.2309
     70  O         41.1110   12.1290  -18.3500 O.2    20  GLY20      -0.2863
     71  N         39.5180   15.0330  -18.7230 N.3    22  LEU22      -0.1231
     72  CA        38.2380   15.3120  -18.0890 C.3    22  LEU22       0.1693
     73  C         37.7620   14.1150  -17.2760 C.2    22  LEU22       0.2592
     74  O         37.3330   14.2710  -16.1270 O.2    22  LEU22      -0.2718
     75  CB        37.1990   15.7100  -19.1300 C.3    22  LEU22       0.0284
     76  CG        35.8900   16.0940  -18.4550 C.3    22  LEU22       0.0019
     77  CD1       36.1590   17.1050  -17.3420 C.3    22  LEU22       0.0001
     78  CD2       34.9020   16.6600  -19.4640 C.3    22  LEU22       0.0001
     79  N         37.9220   12.9060  -17.8140 N.am   23  THR23      -0.1953
     80  CA        37.5230   11.7240  -17.0640 C.3    23  THR23       0.1897
     81  C         38.2810   11.6260  -15.7410 C.2    23  THR23       0.2313
     82  O         37.6790   11.3510  -14.6940 O.2    23  THR23      -0.2863
     83  CB        37.7220   10.4830  -17.9340 C.3    23  THR23       0.1794
     84  OG1       36.6870   10.4390  -18.9230 O.3    23  THR23      -0.2208
     85  CG2       37.6300    9.2460  -17.1230 C.3    23  THR23       0.0378
     86  N         36.5010   13.9850  -13.2070 N.3    26  LEU26      -0.1245
     87  CA        35.2650   13.5300  -12.5730 C.3    26  LEU26       0.1561
     88  C         35.5150   12.3730  -11.6190 C.2    26  LEU26       0.2260
     89  O         34.9090   12.3140  -10.5410 O.2    26  LEU26      -0.2867
     90  CB        34.2260   13.1580  -13.6270 C.3    26  LEU26       0.0270
     91  CG        33.4920   14.3580  -14.2230 C.3    26  LEU26       0.0019
     92  CD1       32.5160   13.8970  -15.2700 C.3    26  LEU26       0.0001
     93  CD2       32.7340   15.1340  -13.1550 C.3    26  LEU26       0.0001
     94  N         44.0960   21.5460  -17.6850 N.3    96  LYS96      -0.1231
     95  CA        43.4760   22.5040  -18.5940 C.3    96  LYS96       0.1693
     96  C         42.0680   22.9240  -18.1850 C.2    96  LYS96       0.2592
     97  O         41.3860   23.5900  -18.9670 O.2    96  LYS96      -0.2718
     98  CB        43.4480   21.9060  -20.0050 C.3    96  LYS96       0.0285
     99  CG        42.3910   20.8180  -20.1630 C.3    96  LYS96       0.0035
    100  CD        42.0200   20.5280  -21.6080 C.3    96  LYS96       0.0206
    101  CE        42.8190   19.3360  -22.1430 C.3    96  LYS96       0.1093
    102  NZ        42.1000   18.0230  -22.0160 N.3    96  LYS96      -0.1314
    103  N         41.6090   22.5700  -16.9920 N.am   97  TYR97      -0.1976
    104  CA        40.2190   22.8060  -16.6240 C.3    97  TYR97       0.1639
    105  C         40.1310   23.6650  -15.3720 C.2    97  TYR97       0.2290
    106  O         40.9920   23.6140  -14.4840 O.2    97  TYR97      -0.2864
    107  CB        39.4630   21.4890  -16.3850 C.3    97  TYR97       0.0560
    108  CG        39.1480   20.7440  -17.6450 C.ar   97  TYR97      -0.0198
    109  CD1       38.1260   21.1650  -18.4780 C.ar   97  TYR97      -0.0009
    110  CD2       39.8940   19.6320  -18.0190 C.ar   97  TYR97      -0.0009
    111  CE1       37.8490   20.4910  -19.6470 C.ar   97  TYR97       0.0417
    112  CE2       39.6230   18.9550  -19.1790 C.ar   97  TYR97       0.0417
    113  CZ        38.6010   19.3930  -19.9930 C.ar   97  TYR97       0.1957
    114  OH        38.3150   18.7360  -21.1630 O.3    97  TYR97      -0.2866
    115  N         30.6640   20.6820  -17.9390 N.3   145  ALA145     -0.1245
    116  CA        29.7960   19.7940  -17.1740 C.3   145  ALA145      0.1562
    117  C         29.4840   20.4380  -15.8340 C.2   145  ALA145      0.2260
    118  O         30.1590   21.3710  -15.3920 O.2   145  ALA145     -0.2867
    119  CB        30.4040   18.4070  -16.9560 C.3   145  ALA145      0.0290
    120  N         24.7380   14.3250  -12.5620 N.3   159  LEU159     -0.1245
    121  CA        25.7350   14.8230  -13.4940 C.3   159  LEU159      0.1561
    122  C         24.9980   15.3790  -14.7050 C.2   159  LEU159      0.2260
    123  O         24.1490   14.6990  -15.2830 O.2   159  LEU159     -0.2867
    124  CB        26.6910   13.7160  -13.9110 C.3   159  LEU159      0.0270
    125  CG        27.7370   14.2430  -14.8820 C.3   159  LEU159      0.0019
    126  CD1       28.4420   15.3970  -14.2170 C.3   159  LEU159      0.0001
    127  CD2       28.7200   13.1540  -15.2860 C.3   159  LEU159      0.0001
    128  N         25.5810   17.2550  -18.4330 N.3   161  MET161     -0.1245
    129  CA        26.4730   17.6230  -19.5230 C.3   161  MET161      0.1570
    130  C         25.6230   17.8940  -20.7610 C.2   161  MET161      0.2261
    131  O         24.3920   17.7730  -20.7300 O.2   161  MET161     -0.2867
    132  CB        27.5010   16.5120  -19.7620 C.3   161  MET161      0.0387
    133  CG        26.8990   15.1160  -19.6000 C.3   161  MET161      0.0595
    134  SD        28.1010   13.7770  -19.4940 S.3   161  MET161     -0.1393
    135  CE        28.8500   13.8660  -21.1230 C.3   161  MET161      0.0692
    136  N         25.0870   16.2190  -23.4030 N.3   163  CYS163     -0.1235
    137  CA        24.2310   15.1100  -23.8060 C.3   163  CYS163      0.1677
    138  C         22.9830   15.0110  -22.9220 C.2   163  CYS163      0.2270
    139  O         21.9280   14.5780  -23.3950 O.2   163  CYS163     -0.2867
    140  CB        25.0310   13.7960  -23.8330 C.3   163  CYS163      0.0956
    141  SG        25.6820   13.0990  -22.2900 S.3   163  CYS163     -0.0801
@<TRIPOS>BOND
     1    54    53    2
     2    53    52    1
     3    52    51    1
     4    52    55    1
     5    43    42    2
     6    50    48    1
     7    42    41    1
     8    56    57    1
     9    48    47    2
    10    48    49    1
    11    47    46    1
    12    41    44    1
    13    41    40    1
    14    57    58    1
    15    44    45    1
    16    59    58    2
    17    58    60   am
    18    39    38    2
    19    66    64    1
    20    30    29    2
    21    45    46    1
    22    40    38   am
    23    60    61    1
    24    38    37    1
    25    61    64    1
    26    61    62    1
    27   140   137    1
    28   140   141    1
    29   137   136    1
    30   137   138    1
    31    34    33   ar
    32    29    28    1
    33    29    36   am
    34    64    65    1
    35   139   138    2
    36    35    33   ar
    37    28    27    1
    38    28    31    1
    39    33    32    1
    40    37    36    1
    41    62    63    2
    42    62    67   am
    43    31    32    1
    44    22    21    2
    45   101   102    1
    46   101   100    1
    47    67    68    1
    48   100    99    1
    49   114   113    1
    50   135   134    1
    51    21    20    1
    52   130   131    2
    53   130   129    1
    54    68    69    1
    55    99    98    1
    56    15    14    2
    57    98    95    1
    58   113   111   ar
    59   113   112   ar
    60   132   133    1
    61   132   129    1
    62    20    23    1
    63    20    19    1
    64     4     3    2
    65   111   109   ar
    66   133   134    1
    67   129   128    1
    68    69    70    2
    69    78    76    1
    70     9    11   ar
    71     9     7   ar
    72   112   110   ar
    73    23    24    1
    74    75    76    1
    75    75    72    1
    76    11    10   ar
    77    14    19   am
    78    14    13    1
    79    97    96    2
    80    84    83    1
    81     7     6   ar
    82    71    72    1
    83    95    96    1
    84    95    94    1
    85     3     2    1
    86     3    12   am
    87   109   108   ar
    88    76    77    1
    89    96   103   am
    90    10     8   ar
    91    72    73    1
    92    13    12    1
    93    13    16    1
    94     2     5    1
    95     2     1    1
    96    24    25    1
    97   110   108   ar
    98     6     8   ar
    99     6     5    1
   100   115   116    1
   101    83    85    1
   102    83    80    1
   103    79    73   am
   104    79    80    1
   105   108   107    1
   106    25    26    1
   107    73    74    2
   108    17    16    1
   109   116   119    1
   110   116   117    1
   111    80    81    1
   112   103   104    1
   113    16    18    1
   114   104   107    1
   115   104   105    1
   116   117   118    2
   117    81    82    2
   118   105   106    2
   119   127   125    1
   120   123   122    2
   121    92    91    1
   122   125   126    1
   123   125   124    1
   124   122   121    1
   125    91    90    1
   126    91    93    1
   127   124   121    1
   128    90    87    1
   129   121   120    1
   130    86    87    1
   131    87    88    1
   132    88    89    2
