@<TRIPOS>MOLECULE
tmp/5pzzF00.pdb
 127 121 0 0 0
SMALL
GASTEIGER

@<TRIPOS>ATOM
      1  N         -7.8370   64.4710    6.7460 N.3     9  VAL9       -0.1231
      2  CA        -8.9560   65.0570    6.0220 C.3     9  VAL9        0.1692
      3  C         -8.4650   66.1070    5.0250 C.2     9  VAL9        0.2591
      4  O         -9.0300   66.2520    3.9300 O.2     9  VAL9       -0.2718
      5  CB        -9.9870   65.5910    7.0340 C.3     9  VAL9        0.0266
      6  CG1      -10.8660   66.6410    6.4270 C.3     9  VAL9        0.0020
      7  CG2      -10.8600   64.4350    7.5030 C.3     9  VAL9        0.0020
      8  N         -7.3780   66.8170    5.3560 N.am   10  MET10      -0.1979
      9  CA        -6.8150   67.7870    4.4210 C.3    10  MET10       0.1605
     10  C         -6.2100   67.0910    3.2080 C.2    10  MET10       0.2287
     11  O         -6.2360   67.6310    2.1000 O.2    10  MET10      -0.2864
     12  CB        -5.7470   68.6320    5.1060 C.3    10  MET10       0.0413
     13  CG        -6.2610   69.6890    6.0580 C.3    10  MET10       0.0598
     14  SD        -4.8140   70.3820    6.8760 S.3    10  MET10      -0.1393
     15  CE        -5.5530   71.3820    8.1430 C.3    10  MET10       0.0692
     16  N         -7.2120   64.1350    1.8410 N.3    12  GLU12      -0.1231
     17  CA        -8.3110   63.7010    0.9770 C.3    12  GLU12       0.1699
     18  C         -9.0070   64.8790    0.3090 C.2    12  GLU12       0.2593
     19  O         -9.3640   64.8080   -0.8730 O.2    12  GLU12      -0.2718
     20  CB        -9.3340   62.8870    1.7660 C.3    12  GLU12       0.0402
     21  CG        -8.8450   61.5590    2.2580 C.3    12  GLU12       0.1161
     22  CD        -8.5820   60.6240    1.1080 C.2    12  GLU12       0.3649
     23  OE1       -9.5000   60.4590    0.2770 O.co2  12  GLU12      -0.2457
     24  OE2       -7.4650   60.0740    1.0230 O.co2  12  GLU12      -0.2457
     25  N         -9.1980   65.9760    1.0350 N.am   13  GLY13      -0.1942
     26  CA        -9.8220   67.1350    0.4250 C.3    13  GLY13       0.2014
     27  C         -8.9730   67.7130   -0.6850 C.2    13  GLY13       0.2638
     28  O         -9.5000   68.2400   -1.6690 O.2    13  GLY13      -0.2714
     29  N         -7.6530   67.5860   -0.5670 N.am   14  ARG14      -0.1977
     30  CA        -6.7820   68.0720   -1.6240 C.3    14  ARG14       0.1597
     31  C         -6.6670   67.0820   -2.7770 C.2    14  ARG14       0.2287
     32  O         -6.5390   67.5100   -3.9300 O.2    14  ARG14      -0.2864
     33  CB        -5.4080   68.4290   -1.0600 C.3    14  ARG14       0.0334
     34  CG        -5.4240   69.7540   -0.2930 C.3    14  ARG14       0.0492
     35  CD        -4.0230   70.1960    0.0610 C.3    14  ARG14       0.2205
     36  NE        -3.3220   70.5150   -1.1770 N.pl3  14  ARG14      -0.0865
     37  CZ        -2.0240   70.7650   -1.2790 C.cat  14  ARG14       0.5346
     38  NH1       -1.2510   70.7380   -0.2040 N.pl3  14  ARG14       0.1354
     39  NH2       -1.5020   71.0450   -2.4690 N.pl3  14  ARG14       0.1354
     40  N         -9.1410   65.3570   -3.8990 N.3    16  ALA16      -0.1231
     41  CA       -10.3650   65.6180   -4.6370 C.3    16  ALA16       0.1694
     42  C        -10.5070   67.0670   -5.0820 C.2    16  ALA16       0.2592
     43  O        -11.4310   67.3680   -5.8420 O.2    16  ALA16      -0.2718
     44  CB       -11.5660   65.1920   -3.7880 C.3    16  ALA16       0.0304
     45  N         -9.6170   67.9600   -4.6480 N.am   17  ARG17      -0.1966
     46  CA        -9.6660   69.3860   -5.0130 C.3    17  ARG17       0.1729
     47  C        -11.0260   70.0320   -4.7080 C.2    17  ARG17       0.2617
     48  O        -11.5980   70.7490   -5.5310 O.2    17  ARG17      -0.2715
     49  CB        -9.2800   69.6060   -6.4790 C.3    17  ARG17       0.0348
     50  CG        -7.8480   69.2390   -6.8230 C.3    17  ARG17       0.0492
     51  CD        -7.5730   69.4760   -8.2990 C.3    17  ARG17       0.2205
     52  NE        -7.7150   70.9010   -8.6190 N.pl3  17  ARG17      -0.0865
     53  CZ        -6.7110   71.7760   -8.6730 C.cat  17  ARG17       0.5346
     54  NH1       -5.4670   71.3810   -8.4300 N.pl3  17  ARG17       0.1354
     55  NH2       -6.9500   73.0520   -8.9640 N.pl3  17  ARG17       0.1354
     56  N        -11.5410   69.7840   -3.5010 N.am   18  GLY18      -0.1940
     57  CA       -12.7920   70.3810   -3.0760 C.3    18  GLY18       0.2014
     58  C        -12.6050   71.8040   -2.5770 C.2    18  GLY18       0.2640
     59  O        -11.4970   72.3400   -2.5320 O.2    18  GLY18      -0.2714
     60  N        -13.7250   72.4350   -2.1980 N.am   19  THR19      -0.1936
     61  CA       -13.6640   73.8290   -1.7540 C.3    19  THR19       0.2028
     62  C        -13.0290   73.9880   -0.3820 C.2    19  THR19       0.2642
     63  O        -12.6600   75.1110   -0.0240 O.2    19  THR19      -0.2714
     64  CB       -15.0460   74.4790   -1.7030 C.3    19  THR19       0.1808
     65  OG1      -15.8430   73.8210   -0.7130 O.3    19  THR19      -0.2208
     66  CG2      -15.7320   74.4530   -3.0590 C.3    19  THR19       0.0379
     67  N        -12.9440   72.9160    0.4120 N.am   20  GLY20      -0.1954
     68  CA       -12.3860   72.9700    1.7510 C.3    20  GLY20       0.1869
     69  C        -13.3970   73.0220    2.8820 C.2    20  GLY20       0.2309
     70  O        -12.9960   72.8930    4.0480 O.2    20  GLY20      -0.2863
     71  N        -15.8990   70.8640    3.7130 N.3    22  LEU22      -0.1231
     72  CA       -16.0480   69.6110    4.4540 C.3    22  LEU22       0.1693
     73  C        -14.9030   69.4410    5.4410 C.2    22  LEU22       0.2592
     74  O        -15.1070   68.9860    6.5710 O.2    22  LEU22      -0.2718
     75  CB       -16.1420   68.3930    3.5220 C.3    22  LEU22       0.0284
     76  CG       -16.2750   67.0810    4.3290 C.3    22  LEU22       0.0019
     77  CD1      -17.5520   67.1130    5.1460 C.3    22  LEU22       0.0001
     78  CD2      -16.2180   65.8340    3.4730 C.3    22  LEU22       0.0001
     79  N        -13.6890   69.7920    5.0260 N.am   23  THR23      -0.1953
     80  CA       -12.5720   69.7890    5.9550 C.3    23  THR23       0.1897
     81  C        -12.8460   70.7330    7.1290 C.2    23  THR23       0.2313
     82  O        -12.5300   70.4100    8.2810 O.2    23  THR23      -0.2863
     83  CB       -11.2860   70.1500    5.2020 C.3    23  THR23       0.1794
     84  OG1      -10.8160   68.9990    4.4870 O.3    23  THR23      -0.2208
     85  CG2      -10.2050   70.5510    6.1230 C.3    23  THR23       0.0378
     86  N        -15.5900   68.8600    9.3530 N.3    26  LEU26      -0.1245
     87  CA       -15.0540   67.7420   10.1100 C.3    26  LEU26       0.1561
     88  C        -14.0940   68.2140   11.1910 C.2    26  LEU26       0.2260
     89  O        -14.1010   67.6810   12.3100 O.2    26  LEU26      -0.2867
     90  CB       -14.3680   66.7720    9.1490 C.3    26  LEU26       0.0270
     91  CG       -15.2820   66.0440    8.1610 C.3    26  LEU26       0.0019
     92  CD1      -14.4520   65.2480    7.1480 C.3    26  LEU26       0.0001
     93  CD2      -16.2280   65.1450    8.8880 C.3    26  LEU26       0.0001
     94  N        -23.6330   72.1540    3.8670 N.3    95  TYR95      -0.1241
     95  CA       -23.8260   70.8260    4.4420 C.3    95  TYR95       0.1605
     96  C        -24.9230   70.8110    5.5040 C.2    95  TYR95       0.2264
     97  O        -25.1420   71.7970    6.2110 O.2    95  TYR95      -0.2867
     98  CB       -22.5040   70.2890    5.0160 C.3    95  TYR95       0.0534
     99  CG       -21.5000   69.9530    3.9230 C.ar   95  TYR95      -0.0201
    100  CD1      -21.6990   68.8600    3.0790 C.ar   95  TYR95      -0.0009
    101  CD2      -20.3630   70.7320    3.7290 C.ar   95  TYR95      -0.0009
    102  CE1      -20.7970   68.5560    2.0680 C.ar   95  TYR95       0.0417
    103  CE2      -19.4540   70.4350    2.7270 C.ar   95  TYR95       0.0417
    104  CZ       -19.6750   69.3460    1.8960 C.ar   95  TYR95       0.1957
    105  OH       -18.7760   69.0430    0.8900 O.3    95  TYR95      -0.2866
    106  N        -16.2760   57.5040    4.8660 N.3   159  MET159     -0.1230
    107  CA       -16.4780   58.2990    3.6630 C.3   159  MET159      0.1702
    108  C        -16.4780   57.4060    2.4280 C.2   159  MET159      0.2592
    109  O        -16.5160   56.1730    2.5410 O.2   159  MET159     -0.2718
    110  CB       -15.3980   59.3800    3.5550 C.3   159  MET159      0.0401
    111  CG       -15.4910   60.4300    4.6520 C.3   159  MET159      0.0596
    112  SD       -14.4040   61.8530    4.4540 S.3   159  MET159     -0.1393
    113  CE       -12.7760   61.0990    4.3610 C.3   159  MET159      0.0692
    114  N        -16.4340   58.0240    1.2440 N.am  160  ASP160     -0.1960
    115  CA       -16.3980   57.2430    0.0170 C.3   160  ASP160      0.1840
    116  C        -15.1750   56.3560   -0.0390 C.2   160  ASP160      0.2622
    117  O        -15.2440   55.2290   -0.5430 O.2   160  ASP160     -0.2715
    118  CB       -16.3480   58.1700   -1.1900 C.3   160  ASP160      0.1450
    119  CG       -16.8210   57.5070   -2.4470 C.2   160  ASP160      0.3671
    120  OD1      -17.8180   56.7730   -2.3340 O.co2 160  ASP160     -0.2456
    121  OD2      -16.1810   57.6760   -3.5260 O.co2 160  ASP160     -0.2456
    122  N        -14.0740   56.8210    0.5320 N.am  161  CYS161     -0.1968
    123  CA       -12.8270   56.0790    0.5420 C.3   161  CYS161      0.1712
    124  C        -12.7770   54.9880    1.5990 C.2   161  CYS161      0.2296
    125  O        -11.7580   54.2950    1.6860 O.2   161  CYS161     -0.2864
    126  CB       -11.6550   57.0430    0.7440 C.3   161  CYS161      0.0983
    127  SG       -11.5690   57.8220    2.3900 S.3   161  CYS161     -0.0798
@<TRIPOS>BOND
     1    55    53    1
     2    53    52    2
     3    53    54    1
     4    52    51    1
     5    51    50    1
     6    50    49    1
     7    49    46    1
     8    43    42    2
     9    48    47    2
    10    42    45   am
    11    42    41    1
    12    46    47    1
    13    46    45    1
    14    47    56   am
    15    41    40    1
    16    41    44    1
    17    32    31    2
    18   121   119   ar
    19    56    57    1
    20    57    58    1
    21    66    64    1
    22    31    30    1
    23    58    59    2
    24    58    60   am
    25    39    37    1
    26   119   120   ar
    27   119   118    1
    28    60    61    1
    29    61    64    1
    30    61    62    1
    31    64    65    1
    32    28    27    2
    33    30    33    1
    34    30    29    1
    35    37    36    2
    36    37    38    1
    37   118   115    1
    38    36    35    1
    39    33    34    1
    40    19    18    2
    41    27    29   am
    42    27    26    1
    43   117   116    2
    44    62    63    2
    45    62    67   am
    46    34    35    1
    47   116   115    1
    48   116   122   am
    49   115   114    1
    50    23    22   ar
    51    18    17    1
    52    18    25   am
    53    67    68    1
    54    26    25    1
    55   122   123    1
    56   123   126    1
    57   123   124    1
    58   126   127    1
    59   105   104    1
    60    17    20    1
    61    17    16    1
    62    24    22   ar
    63    22    21    1
    64   114   108   am
    65   124   125    2
    66    68    69    1
    67    20    21    1
    68   104   102   ar
    69   104   103   ar
    70   102   100   ar
    71    11    10    2
    72   108   109    2
    73   108   107    1
    74   103   101   ar
    75    69    70    2
    76   100    99   ar
    77    10     9    1
    78    78    76    1
    79    75    76    1
    80    75    72    1
    81   110   107    1
    82   110   111    1
    83   107   106    1
    84    71    72    1
    85   101    99   ar
    86    94    95    1
    87    99    98    1
    88     4     3    2
    89    76    77    1
    90   113   112    1
    91     9    12    1
    92     9     8    1
    93    95    98    1
    94    95    96    1
    95   112   111    1
    96    72    73    1
    97    84    83    1
    98     3     8   am
    99     3     2    1
   100    79    73   am
   101    79    80    1
   102    12    13    1
   103    83    80    1
   104    83    85    1
   105    73    74    2
   106    96    97    2
   107    80    81    1
   108     2     1    1
   109     2     5    1
   110    13    14    1
   111     6     5    1
   112    14    15    1
   113     5     7    1
   114    81    82    2
   115    92    91    1
   116    91    93    1
   117    91    90    1
   118    90    87    1
   119    86    87    1
   120    87    88    1
   121    88    89    2
