@<TRIPOS>MOLECULE
tmp/5q00A00.pdb
 132 124 0 0 0
SMALL
GASTEIGER

@<TRIPOS>ATOM
      1  N         32.2400    7.5540  -17.4750 N.3     9  VAL9       -0.1231
      2  CA        33.0630    8.6840  -17.8730 C.3     9  VAL9        0.1692
      3  C         34.1380    8.2190  -18.8450 C.2     9  VAL9        0.2591
      4  O         34.4230    8.8880  -19.8430 O.2     9  VAL9       -0.2718
      5  CB        33.6290    9.3890  -16.6210 C.3     9  VAL9        0.0266
      6  CG1       34.8320   10.2400  -16.9470 C.3     9  VAL9        0.0020
      7  CG2       32.5550   10.2710  -16.0310 C.3     9  VAL9        0.0020
      8  N         34.7410    7.0610  -18.5790 N.am   10  MET10      -0.1979
      9  CA        35.7240    6.5100  -19.5090 C.3    10  MET10       0.1605
     10  C         35.1280    6.2890  -20.8990 C.2    10  MET10       0.2287
     11  O         35.7730    6.6100  -21.9050 O.2    10  MET10      -0.2864
     12  CB        36.2900    5.1990  -18.9740 C.3    10  MET10       0.0413
     13  CG        37.2360    5.3040  -17.8070 C.3    10  MET10       0.0598
     14  SD        37.7290    3.6180  -17.3500 S.3    10  MET10      -0.1393
     15  CE        38.5840    3.8550  -15.8060 C.3    10  MET10       0.0692
     16  N         32.4570    7.7560  -22.3570 N.3    12  GLU12      -0.1231
     17  CA        32.1680    9.0250  -23.0120 C.3    12  GLU12       0.1699
     18  C         33.4490    9.6860  -23.4870 C.2    12  GLU12       0.2593
     19  O         33.4950   10.2690  -24.5760 O.2    12  GLU12      -0.2718
     20  CB        31.4040    9.9520  -22.0580 C.3    12  GLU12       0.0402
     21  CG        29.9940    9.4910  -21.7250 C.3    12  GLU12       0.1161
     22  CD        29.1370    9.2810  -22.9510 C.2    12  GLU12       0.3649
     23  OE1       29.2500   10.0820  -23.9040 O.co2  12  GLU12      -0.2457
     24  OE2       28.3590    8.3020  -22.9670 O.co2  12  GLU12      -0.2457
     25  N         34.4960    9.6220  -22.6720 N.am   13  GLY13      -0.1942
     26  CA        35.7620   10.1780  -23.0890 C.3    13  GLY13       0.2014
     27  C         36.3320    9.4180  -24.2590 C.2    13  GLY13       0.2638
     28  O         36.9640   10.0070  -25.1370 O.2    13  GLY13      -0.2714
     29  N         36.0950    8.1080  -24.3050 N.am   14  ARG14      -0.1977
     30  CA        36.6020    7.3250  -25.4210 C.3    14  ARG14       0.1597
     31  C         35.8660    7.6640  -26.7130 C.2    14  ARG14       0.2287
     32  O         36.4790    7.7000  -27.7850 O.2    14  ARG14      -0.2864
     33  CB        36.4990    5.8290  -25.1140 C.3    14  ARG14       0.0334
     34  CG        37.5300    5.3100  -24.1110 C.3    14  ARG14       0.0492
     35  CD        37.4280    3.7950  -23.9730 C.3    14  ARG14       0.2205
     36  NE        37.9670    3.1030  -25.1430 N.pl3  14  ARG14      -0.0865
     37  CZ        37.6560    1.8610  -25.4960 C.cat  14  ARG14       0.5346
     38  NH1       36.7810    1.1600  -24.7850 N.pl3  14  ARG14       0.1354
     39  NH2       38.2080    1.3250  -26.5720 N.pl3  14  ARG14       0.1354
     40  N         34.5840   10.6080  -27.6070 N.3    16  ALA16      -0.1245
     41  CA        35.0970   11.8980  -28.0510 C.3    16  ALA16       0.1562
     42  C         36.5860   11.8880  -28.3580 C.2    16  ALA16       0.2260
     43  O         37.1020   12.9100  -28.8160 O.2    16  ALA16      -0.2867
     44  CB        34.7980   12.9600  -26.9950 C.3    16  ALA16       0.0290
     45  N         39.1670   11.9460  -26.3290 N.3    18  GLY18      -0.1210
     46  CA        39.9000   12.9020  -25.5290 C.3    18  GLY18       0.1956
     47  C         41.1710   12.3200  -24.9490 C.2    18  GLY18       0.2613
     48  O         41.4850   11.1450  -25.1210 O.2    18  GLY18      -0.2717
     49  N         41.9360   13.1920  -24.2890 N.am   19  THR19      -0.1938
     50  CA        43.2340   12.8470  -23.7140 C.3    19  THR19       0.2028
     51  C         43.1590   12.1000  -22.3810 C.2    19  THR19       0.2642
     52  O         44.1690   11.5500  -21.9360 O.2    19  THR19      -0.2714
     53  CB        44.0320   14.1150  -23.5080 C.3    19  THR19       0.1808
     54  OG1       43.2040   15.0710  -22.8170 O.3    19  THR19      -0.2208
     55  CG2       44.5080   14.6440  -24.8450 C.3    19  THR19       0.0379
     56  N         42.0160   12.1100  -21.7100 N.am   20  GLY20      -0.1954
     57  CA        41.9040   11.5340  -20.3960 C.3    20  GLY20       0.1869
     58  C         42.1010   12.5050  -19.2530 C.2    20  GLY20       0.2309
     59  O         41.8950   12.1210  -18.1000 O.2    20  GLY20      -0.2863
     60  N         40.3490   15.2330  -18.4940 N.3    22  LEU22      -0.1231
     61  CA        39.0640   15.5020  -17.8620 C.3    22  LEU22       0.1693
     62  C         38.5650   14.2860  -17.0810 C.2    22  LEU22       0.2592
     63  O         38.0590   14.4220  -15.9580 O.2    22  LEU22      -0.2718
     64  CB        38.0280   15.9210  -18.9140 C.3    22  LEU22       0.0284
     65  CG        36.6390   16.1480  -18.2870 C.3    22  LEU22       0.0019
     66  CD1       36.7000   17.2980  -17.2920 C.3    22  LEU22       0.0001
     67  CD2       35.5650   16.4250  -19.2940 C.3    22  LEU22       0.0001
     68  N         38.6850   13.0930  -17.6650 N.am   23  THR23      -0.1953
     69  CA        38.2890   11.8790  -16.9640 C.3    23  THR23       0.1897
     70  C         39.0790   11.7080  -15.6690 C.2    23  THR23       0.2313
     71  O         38.5210   11.3190  -14.6420 O.2    23  THR23      -0.2863
     72  CB        38.4300   10.6770  -17.9080 C.3    23  THR23       0.1794
     73  OG1       37.3030   10.6710  -18.7910 O.3    23  THR23      -0.2208
     74  CG2       38.4650    9.3310  -17.1660 C.3    23  THR23       0.0378
     75  N         37.3890   14.0170  -13.3510 N.3    26  LEU26      -0.1245
     76  CA        36.0890   13.5780  -12.8360 C.3    26  LEU26       0.1561
     77  C         36.2450   12.4390  -11.8520 C.2    26  LEU26       0.2260
     78  O         35.4750   12.3350  -10.8930 O.2    26  LEU26      -0.2867
     79  CB        35.1360   13.1720  -13.9530 C.3    26  LEU26       0.0270
     80  CG        34.6300   14.3600  -14.7580 C.3    26  LEU26       0.0019
     81  CD1       33.7000   13.8750  -15.8690 C.3    26  LEU26       0.0001
     82  CD2       33.9580   15.3230  -13.8280 C.3    26  LEU26       0.0001
     83  N         44.7580   21.5600  -17.6560 N.3    96  LYS96      -0.1231
     84  CA        44.1150   22.5840  -18.4650 C.3    96  LYS96       0.1693
     85  C         42.7450   23.0360  -17.9620 C.2    96  LYS96       0.2592
     86  O         42.1000   23.8390  -18.6340 O.2    96  LYS96      -0.2718
     87  CB        43.9980   22.0670  -19.8940 C.3    96  LYS96       0.0285
     88  CG        43.1030   20.8450  -20.0500 C.3    96  LYS96       0.0035
     89  CD        42.9510   20.4380  -21.5280 C.3    96  LYS96       0.0206
     90  CE        43.7580   19.1700  -21.8640 C.3    96  LYS96       0.1093
     91  NZ        42.9750   17.8820  -21.8320 N.3    96  LYS96      -0.1314
     92  N         42.2980   22.6010  -16.7850 N.am   97  TYR97      -0.1976
     93  CA        40.9160   22.8400  -16.3820 C.3    97  TYR97       0.1639
     94  C         40.8320   23.7440  -15.1550 C.2    97  TYR97       0.2290
     95  O         41.7110   23.7440  -14.2840 O.2    97  TYR97      -0.2864
     96  CB        40.1810   21.5150  -16.1280 C.3    97  TYR97       0.0560
     97  CG        39.9420   20.7210  -17.4100 C.ar   97  TYR97      -0.0198
     98  CD1       39.0250   21.1540  -18.3660 C.ar   97  TYR97      -0.0009
     99  CD2       40.6210   19.5320  -17.6560 C.ar   97  TYR97      -0.0009
    100  CE1       38.8130   20.4370  -19.5430 C.ar   97  TYR97       0.0417
    101  CE2       40.4100   18.8110  -18.8210 C.ar   97  TYR97       0.0417
    102  CZ        39.5100   19.2660  -19.7610 C.ar   97  TYR97       0.1957
    103  OH        39.3000   18.5430  -20.9120 O.3    97  TYR97      -0.2866
    104  N         32.2960   23.1390  -19.2110 N.3   144  VAL144     -0.1245
    105  CA        32.5470   21.8610  -19.8610 C.3   144  VAL144      0.1561
    106  C         31.8170   20.7430  -19.1360 C.2   144  VAL144      0.2260
    107  O         31.2930   19.8140  -19.7510 O.2   144  VAL144     -0.2867
    108  CB        34.0740   21.6120  -19.9040 C.3   144  VAL144      0.0252
    109  CG1       34.4230   20.2510  -20.4880 C.3   144  VAL144      0.0019
    110  CG2       34.7920   22.7330  -20.6270 C.3   144  VAL144      0.0019
    111  N         26.7020   17.2180  -18.5250 N.3   161  MET161     -0.1230
    112  CA        27.6010   17.4790  -19.6500 C.3   161  MET161      0.1702
    113  C         26.7270   17.7310  -20.8790 C.2   161  MET161      0.2592
    114  O         25.4970   17.8120  -20.7790 O.2   161  MET161     -0.2718
    115  CB        28.5700   16.3080  -19.8610 C.3   161  MET161      0.0401
    116  CG        29.5280   16.0540  -18.6990 C.3   161  MET161      0.0596
    117  SD        30.6310   14.6330  -18.9190 S.3   161  MET161     -0.1393
    118  CE        29.4310   13.3230  -18.9760 C.3   161  MET161      0.0692
    119  N         27.3670   17.8570  -22.0540 N.am  162  ASP162     -0.1960
    120  CA        26.6250   18.0430  -23.3040 C.3   162  ASP162      0.1840
    121  C         25.7220   16.8540  -23.6110 C.2   162  ASP162      0.2622
    122  O         24.5970   17.0240  -24.0910 O.2   162  ASP162     -0.2715
    123  CB        27.5930   18.2990  -24.4550 C.3   162  ASP162      0.1450
    124  CG        27.5520   19.7370  -24.9430 C.2   162  ASP162      0.3671
    125  OD1       26.9840   20.6010  -24.2370 O.co2 162  ASP162     -0.2456
    126  OD2       28.1150   20.0070  -26.0220 O.co2 162  ASP162     -0.2456
    127  N         26.1740   15.6440  -23.3040 N.am  163  CYS163     -0.1968
    128  CA        25.3420   14.4810  -23.5790 C.3   163  CYS163      0.1712
    129  C         24.1220   14.3960  -22.6690 C.2   163  CYS163      0.2296
    130  O         23.2840   13.5220  -22.8900 O.2   163  CYS163     -0.2864
    131  CB        26.1730   13.2030  -23.4600 C.3   163  CYS163      0.0983
    132  SG        26.8940   12.9180  -21.8220 S.3   163  CYS163     -0.0798
@<TRIPOS>BOND
     1    43    42    2
     2    42    41    1
     3    41    40    1
     4    41    44    1
     5    32    31    2
     6    31    30    1
     7    39    37    1
     8    45    46    1
     9   126   124   ar
    10    46    47    1
    11    37    36    2
    12    37    38    1
    13    30    33    1
    14    30    29    1
    15    36    35    1
    16    28    27    2
    17    48    47    2
    18    33    34    1
    19    47    49   am
    20   124   123    1
    21   124   125   ar
    22    55    53    1
    23    19    18    2
    24   123   120    1
    25    29    27   am
    26    49    50    1
    27    27    26    1
    28    34    35    1
    29   122   121    2
    30    23    22   ar
    31    50    53    1
    32    50    51    1
    33   121   120    1
    34   121   127   am
    35   128   131    1
    36   128   127    1
    37   128   129    1
    38    53    54    1
    39    18    17    1
    40    18    25   am
    41   131   132    1
    42   120   119    1
    43    26    25    1
    44    17    16    1
    45    17    20    1
    46    24    22   ar
    47    22    21    1
    48   130   129    2
    49    51    52    2
    50    51    56   am
    51    20    21    1
    52   119   113   am
    53    11    10    2
    54    90    91    1
    55    90    89    1
    56    56    57    1
    57    89    88    1
    58   103   102    1
    59    10     9    1
    60   113   114    2
    61   113   112    1
    62   110   108    1
    63   109   108    1
    64    57    58    1
    65    88    87    1
    66   108   105    1
    67    87    84    1
    68   105   104    1
    69   105   106    1
    70   115   112    1
    71   115   116    1
    72     4     3    2
    73   102   100   ar
    74   102   101   ar
    75   107   106    2
    76   112   111    1
    77   100    98   ar
    78     9    12    1
    79     9     8    1
    80    67    65    1
    81    58    59    2
    82   118   117    1
    83    12    13    1
    84   117   116    1
    85    64    65    1
    86    64    61    1
    87     3     8   am
    88     3     2    1
    89   101    99   ar
    90    73    72    1
    91    86    85    2
    92    60    61    1
    93    84    85    1
    94    84    83    1
    95    98    97   ar
    96    65    66    1
    97    85    92   am
    98    72    74    1
    99    72    69    1
   100     2     1    1
   101     2     5    1
   102    61    62    1
   103    13    14    1
   104    68    62   am
   105    68    69    1
   106    99    97   ar
   107    97    96    1
   108    14    15    1
   109    62    63    2
   110    69    70    1
   111     6     5    1
   112    92    93    1
   113     5     7    1
   114    93    96    1
   115    93    94    1
   116    81    80    1
   117    70    71    2
   118    94    95    2
   119    80    79    1
   120    80    82    1
   121    79    76    1
   122    75    76    1
   123    76    77    1
   124    77    78    2
