@<TRIPOS>MOLECULE
tmp/5q01A00.pdb
 170 164 0 0 0
SMALL
GASTEIGER

@<TRIPOS>ATOM
      1  N         30.3860    5.2720  -17.1550 N.3     8  PHE8       -0.1227
      2  CA        29.6660    6.2770  -17.9500 C.3     8  PHE8        0.1736
      3  C         30.6030    7.3720  -18.4600 C.2     8  PHE8        0.2595
      4  O         30.5300    7.7890  -19.6220 O.2     8  PHE8       -0.2718
      5  CB        28.5410    6.8640  -17.0880 C.3     8  PHE8        0.0547
      6  CG        27.8090    8.0170  -17.6990 C.ar    8  PHE8       -0.0202
      7  CD1       26.7210    7.8100  -18.5160 C.ar    8  PHE8       -0.0042
      8  CD2       28.1680    9.3120  -17.3950 C.ar    8  PHE8       -0.0042
      9  CE1       26.0330    8.8710  -19.0590 C.ar    8  PHE8       -0.0003
     10  CE2       27.4810   10.3710  -17.9260 C.ar    8  PHE8       -0.0003
     11  CZ        26.4120   10.1490  -18.7630 C.ar    8  PHE8       -0.0000
     12  N         31.4690    7.8740  -17.5840 N.am    9  VAL9       -0.1966
     13  CA        32.3860    8.9350  -17.9660 C.3     9  VAL9        0.1727
     14  C         33.4580    8.4160  -18.9240 C.2     9  VAL9        0.2616
     15  O         33.8450    9.1110  -19.8680 O.2     9  VAL9       -0.2715
     16  CB        32.9830    9.5720  -16.7020 C.3     9  VAL9        0.0290
     17  CG1       34.1220   10.4750  -17.0410 C.3     9  VAL9        0.0023
     18  CG2       31.9030   10.3990  -16.0060 C.3     9  VAL9        0.0023
     19  N         33.9450    7.1900  -18.7160 N.am   10  MET10      -0.1977
     20  CA        34.9430    6.6480  -19.6350 C.3    10  MET10       0.1605
     21  C         34.3510    6.4340  -21.0170 C.2    10  MET10       0.2287
     22  O         35.0710    6.5190  -22.0120 O.2    10  MET10      -0.2864
     23  CB        35.5470    5.3340  -19.1270 C.3    10  MET10       0.0413
     24  CG        36.5950    5.4730  -18.0330 C.3    10  MET10       0.0598
     25  SD        37.2940    3.8580  -17.5520 S.3    10  MET10      -0.1393
     26  CE        38.0710    4.2720  -16.0070 C.3    10  MET10       0.0692
     27  N         31.7290    8.2320  -22.4500 N.3    12  GLU12      -0.1231
     28  CA        31.5590    9.5270  -23.1170 C.3    12  GLU12       0.1699
     29  C         32.9030   10.1230  -23.4990 C.2    12  GLU12       0.2593
     30  O         33.0510   10.7080  -24.5810 O.2    12  GLU12      -0.2718
     31  CB        30.8160   10.5010  -22.2020 C.3    12  GLU12       0.0402
     32  CG        29.3610   10.1730  -21.9350 C.3    12  GLU12       0.1161
     33  CD        28.5030   10.2790  -23.1770 C.2    12  GLU12       0.3649
     34  OE1       28.8780   11.0290  -24.0960 O.co2  12  GLU12      -0.2457
     35  OE2       27.4460    9.6200  -23.2310 O.co2  12  GLU12      -0.2457
     36  N         33.9000    9.9490  -22.6310 N.am   13  GLY13      -0.1942
     37  CA        35.2210   10.4730  -22.9080 C.3    13  GLY13       0.2014
     38  C         35.8490    9.8060  -24.1130 C.2    13  GLY13       0.2638
     39  O         36.5910   10.4400  -24.8650 O.2    13  GLY13      -0.2714
     40  N         35.5760    8.5100  -24.3030 N.am   14  ARG14      -0.1977
     41  CA        36.1020    7.8120  -25.4770 C.3    14  ARG14       0.1597
     42  C         35.3870    8.2200  -26.7700 C.2    14  ARG14       0.2287
     43  O         36.0280    8.3310  -27.8150 O.2    14  ARG14      -0.2864
     44  CB        36.0340    6.2980  -25.2690 C.3    14  ARG14       0.0334
     45  CG        37.0740    5.7790  -24.2800 C.3    14  ARG14       0.0492
     46  CD        37.0900    4.2790  -24.2420 C.3    14  ARG14       0.2205
     47  NE        37.5550    3.7490  -25.5160 N.pl3  14  ARG14      -0.0865
     48  CZ        37.5300    2.4630  -25.8450 C.cat  14  ARG14       0.5346
     49  NH1       37.0580    1.5650  -24.9940 N.pl3  14  ARG14       0.1354
     50  NH2       37.9870    2.0780  -27.0250 N.pl3  14  ARG14       0.1354
     51  N         34.2750   11.2090  -27.4960 N.3    16  ALA16      -0.1231
     52  CA        34.8540   12.4910  -27.8650 C.3    16  ALA16       0.1694
     53  C         36.3360   12.3890  -28.1860 C.2    16  ALA16       0.2592
     54  O         36.9080   13.3560  -28.6900 O.2    16  ALA16      -0.2718
     55  CB        34.6520   13.5110  -26.7430 C.3    16  ALA16       0.0304
     56  N         36.9810   11.2720  -27.8670 N.am   17  ARG17      -0.1966
     57  CA        38.3900   11.1020  -28.1850 C.3    17  ARG17       0.1729
     58  C         39.2060   12.2410  -27.5860 C.2    17  ARG17       0.2617
     59  O         40.0640   12.8200  -28.2500 O.2    17  ARG17      -0.2715
     60  CB        38.5920   11.0300  -29.7020 C.3    17  ARG17       0.0348
     61  CG        37.8790    9.8500  -30.3900 C.3    17  ARG17       0.0492
     62  CD        38.0280    9.8800  -31.9240 C.3    17  ARG17       0.2205
     63  NE        39.3570    9.4660  -32.3750 N.pl3  17  ARG17      -0.0865
     64  CZ        39.7020    8.1980  -32.5950 C.cat  17  ARG17       0.5346
     65  NH1       38.8120    7.2280  -32.4230 N.pl3  17  ARG17       0.1354
     66  NH2       40.9350    7.8950  -32.9850 N.pl3  17  ARG17       0.1354
     67  N         38.8780   12.6150  -26.3410 N.am   18  GLY18      -0.1940
     68  CA        39.6290   13.6180  -25.6100 C.3    18  GLY18       0.2014
     69  C         40.9090   13.0690  -25.0100 C.2    18  GLY18       0.2640
     70  O         41.2270   11.8850  -25.1150 O.2    18  GLY18      -0.2714
     71  N         41.6450   13.9550  -24.3330 N.am   19  THR19      -0.1936
     72  CA        42.9400   13.5700  -23.7770 C.3    19  THR19       0.2028
     73  C         42.8040   12.6950  -22.5370 C.2    19  THR19       0.2643
     74  O         43.7200   11.9160  -22.2300 O.2    19  THR19      -0.2714
     75  CB        43.7560   14.8070  -23.3910 C.3    19  THR19       0.1808
     76  OG1       43.1380   15.4570  -22.2680 O.3    19  THR19      -0.2208
     77  CG2       43.8200   15.7760  -24.5550 C.3    19  THR19       0.0379
     78  N         41.6720   12.7880  -21.8410 N.am   20  GLY20      -0.1939
     79  CA        41.4820   12.1430  -20.5600 C.3    20  GLY20       0.2014
     80  C         41.5300   13.0730  -19.3710 C.2    20  GLY20       0.2639
     81  O         41.2960   12.6170  -18.2510 O.2    20  GLY20      -0.2714
     82  N         41.7670   14.3710  -19.5820 N.am   21  GLU21      -0.1963
     83  CA        41.9010   15.3070  -18.4710 C.3    21  GLU21       0.1733
     84  C         40.5790   15.5270  -17.7540 C.2    21  GLU21       0.2616
     85  O         40.5410   15.6050  -16.5200 O.2    21  GLU21      -0.2715
     86  CB        42.4210   16.6500  -18.9770 C.3    21  GLU21       0.0429
     87  CG        43.8530   16.9530  -18.6460 C.3    21  GLU21       0.1163
     88  CD        44.0470   18.4150  -18.3480 C.2    21  GLU21       0.3649
     89  OE1       43.0550   19.0740  -17.9850 O.co2  21  GLU21      -0.2457
     90  OE2       45.1800   18.9090  -18.4840 O.co2  21  GLU21      -0.2457
     91  N         39.4840   15.6140  -18.5030 N.am   22  LEU22      -0.1963
     92  CA        38.1950   15.8700  -17.8740 C.3    22  LEU22       0.1728
     93  C         37.6760   14.6500  -17.1030 C.2    22  LEU22       0.2616
     94  O         37.0420   14.8040  -16.0540 O.2    22  LEU22      -0.2715
     95  CB        37.1950   16.3230  -18.9390 C.3    22  LEU22       0.0311
     96  CG        35.8390   16.7490  -18.3950 C.3    22  LEU22       0.0022
     97  CD1       36.0380   17.9220  -17.4710 C.3    22  LEU22       0.0001
     98  CD2       34.8890   17.0940  -19.5150 C.3    22  LEU22       0.0001
     99  N         37.9320   13.4320  -17.6000 N.am   23  THR23      -0.1951
    100  CA        37.5320   12.2250  -16.8760 C.3    23  THR23       0.1897
    101  C         38.3270   12.0590  -15.5880 C.2    23  THR23       0.2313
    102  O         37.7560   11.7450  -14.5400 O.2    23  THR23      -0.2863
    103  CB        37.6740   10.9890  -17.7670 C.3    23  THR23       0.1794
    104  OG1       36.5850   10.9430  -18.6860 O.3    23  THR23      -0.2208
    105  CG2       37.6630    9.7270  -16.9530 C.3    23  THR23       0.0378
    106  N         36.7010   14.4900  -13.1690 N.3    26  LEU26      -0.1245
    107  CA        35.4500   14.0460  -12.5740 C.3    26  LEU26       0.1561
    108  C         35.6590   12.8580  -11.6480 C.2    26  LEU26       0.2260
    109  O         34.9150   12.6910  -10.6770 O.2    26  LEU26      -0.2867
    110  CB        34.4490   13.6870  -13.6690 C.3    26  LEU26       0.0270
    111  CG        33.8340   14.8370  -14.4450 C.3    26  LEU26       0.0019
    112  CD1       33.1020   14.2440  -15.6040 C.3    26  LEU26       0.0001
    113  CD2       32.9000   15.6400  -13.5820 C.3    26  LEU26       0.0001
    114  N         43.9200   22.3980  -17.6210 N.3    96  LYS96      -0.1231
    115  CA        43.3040   23.4050  -18.4640 C.3    96  LYS96       0.1693
    116  C         41.9340   23.8430  -17.9690 C.2    96  LYS96       0.2592
    117  O         41.2800   24.6510  -18.6420 O.2    96  LYS96      -0.2718
    118  CB        43.2130   22.8980  -19.9080 C.3    96  LYS96       0.0285
    119  CG        42.3680   21.6340  -20.1410 C.3    96  LYS96       0.0035
    120  CD        42.3160   21.2900  -21.6460 C.3    96  LYS96       0.0206
    121  CE        41.3250   20.1740  -21.9950 C.3    96  LYS96       0.1093
    122  NZ        41.9370   18.8100  -21.9350 N.3    96  LYS96      -0.1314
    123  N         41.5080   23.3920  -16.7860 N.am   97  TYR97      -0.1976
    124  CA        40.1450   23.6430  -16.3370 C.3    97  TYR97       0.1639
    125  C         40.0760   24.5780  -15.1270 C.2    97  TYR97       0.2290
    126  O         41.0220   24.7090  -14.3430 O.2    97  TYR97      -0.2864
    127  CB        39.4310   22.3280  -16.0310 C.3    97  TYR97       0.0560
    128  CG        39.0570   21.6050  -17.2760 C.ar   97  TYR97      -0.0198
    129  CD1       37.9580   22.0090  -18.0020 C.ar   97  TYR97      -0.0009
    130  CD2       39.8330   20.5520  -17.7710 C.ar   97  TYR97      -0.0009
    131  CE1       37.6100   21.3650  -19.1730 C.ar   97  TYR97       0.0417
    132  CE2       39.4920   19.8970  -18.9520 C.ar   97  TYR97       0.0417
    133  CZ        38.3750   20.3140  -19.6420 C.ar   97  TYR97       0.1957
    134  OH        37.9950   19.7300  -20.8150 O.3    97  TYR97      -0.2866
    135  N         31.3430   23.8050  -19.3080 N.3   144  VAL144     -0.1231
    136  CA        31.5330   22.4790  -19.8980 C.3   144  VAL144      0.1692
    137  C         30.6030   21.4470  -19.2580 C.2   144  VAL144      0.2591
    138  O         30.0490   20.5850  -19.9480 O.2   144  VAL144     -0.2718
    139  CB        33.0010   22.0430  -19.7650 C.3   144  VAL144      0.0266
    140  CG1       33.1910   20.6660  -20.3740 C.3   144  VAL144      0.0020
    141  CG2       33.9110   23.0500  -20.4130 C.3   144  VAL144      0.0020
    142  N         30.4340   21.5120  -17.9340 N.am  145  ALA145     -0.1980
    143  CA        29.6160   20.5850  -17.1560 C.3   145  ALA145      0.1597
    144  C         29.3200   21.2380  -15.8150 C.2   145  ALA145      0.2287
    145  O         29.9690   22.2120  -15.4270 O.2   145  ALA145     -0.2864
    146  CB        30.2980   19.2230  -16.9500 C.3   145  ALA145      0.0319
    147  N         24.7320   14.8430  -12.6480 N.3   159  LEU159     -0.1245
    148  CA        25.7470   15.3830  -13.5490 C.3   159  LEU159      0.1561
    149  C         25.0370   15.8890  -14.7930 C.2   159  LEU159      0.2260
    150  O         24.2590   15.1480  -15.4100 O.2   159  LEU159     -0.2867
    151  CB        26.7850   14.3280  -13.9160 C.3   159  LEU159      0.0270
    152  CG        28.0920   14.7520  -14.5770 C.3   159  LEU159      0.0019
    153  CD1       28.8470   15.7410  -13.6960 C.3   159  LEU159      0.0001
    154  CD2       28.9480   13.5260  -14.8770 C.3   159  LEU159      0.0001
    155  N         25.4880   17.9390  -18.5440 N.3   161  MET161     -0.1230
    156  CA        26.4330   18.2630  -19.5980 C.3   161  MET161      0.1702
    157  C         25.6680   18.6900  -20.8400 C.2   161  MET161      0.2592
    158  O         24.4580   18.9340  -20.7960 O.2   161  MET161     -0.2718
    159  CB        27.3360   17.0520  -19.8240 C.3   161  MET161      0.0401
    160  CG        26.5640   15.8240  -20.1800 C.3   161  MET161      0.0596
    161  SD        27.7210   14.5010  -20.5010 S.3   161  MET161     -0.1393
    162  CE        28.5220   15.0880  -22.0070 C.3   161  MET161      0.0692
    163  N         26.3920   18.7860  -21.9580 N.am  162  ASP162     -0.1974
    164  CA        25.7960   19.2920  -23.1860 C.3   162  ASP162      0.1709
    165  C         24.6300   18.4220  -23.6390 C.2   162  ASP162      0.2293
    166  O         23.6240   18.9320  -24.1400 O.2   162  ASP162     -0.2864
    167  CB        26.8600   19.3700  -24.2730 C.3   162  ASP162      0.1436
    168  CG        26.7870   20.6550  -25.0610 C.2   162  ASP162      0.3671
    169  OD1       26.1490   21.6150  -24.5720 O.co2 162  ASP162     -0.2456
    170  OD2       27.3710   20.7040  -26.1640 O.co2 162  ASP162     -0.2456
@<TRIPOS>BOND
     1    66    64    1
     2    64    65    1
     3    64    63    2
     4    63    62    1
     5    62    61    1
     6    61    60    1
     7    60    57    1
     8    54    53    2
     9    59    58    2
    10    53    56   am
    11    53    52    1
    12    57    56    1
    13    57    58    1
    14    52    51    1
    15    52    55    1
    16    43    42    2
    17    58    67   am
    18    50    48    1
    19    42    41    1
    20    67    68    1
    21   170   168   ar
    22    48    47    2
    23    48    49    1
    24    68    69    1
    25    47    46    1
    26    41    44    1
    27    41    40    1
    28    44    45    1
    29    70    69    2
    30   168   169   ar
    31   168   167    1
    32    69    71   am
    33    39    38    2
    34    30    29    2
    35    77    75    1
    36    71    72    1
    37    40    38   am
    38    45    46    1
    39   167   164    1
    40   166   165    2
    41    38    37    1
    42    34    33   ar
    43    72    75    1
    44    72    73    1
    45   165   164    1
    46    29    28    1
    47    29    36   am
    48    75    76    1
    49    35    33   ar
    50   164   163    1
    51    33    32    1
    52    28    27    1
    53    28    31    1
    54    37    36    1
    55    73    74    2
    56    73    78   am
    57    31    32    1
    58    22    21    2
    59   162   161    1
    60   121   122    1
    61   121   120    1
    62   163   157   am
    63    78    79    1
    64   120   119    1
    65    21    20    1
    66   157   158    2
    67   157   156    1
    68   134   133    1
    69    79    80    1
    70   161   160    1
    71   141   139    1
    72   140   139    1
    73   160   159    1
    74   119   118    1
    75   138   137    2
    76   118   115    1
    77   136   139    1
    78   136   135    1
    79   136   137    1
    80    15    14    2
    81   159   156    1
    82   133   131   ar
    83   133   132   ar
    84    20    23    1
    85    20    19    1
    86     4     3    2
    87   156   155    1
    88    82    80   am
    89    82    83    1
    90    98    96    1
    91    80    81    2
    92   137   142   am
    93   131   129   ar
    94    23    24    1
    95     9    11   ar
    96     9     7   ar
    97    86    87    1
    98    86    83    1
    99   132   130   ar
   100    95    96    1
   101    95    92    1
   102    14    19   am
   103    14    13    1
   104    11    10   ar
   105   104   103    1
   106    87    88    1
   107   117   116    2
   108     7     6   ar
   109    91    92    1
   110    91    84   am
   111    90    88   ar
   112    83    84    1
   113   115   116    1
   114   115   114    1
   115     3     2    1
   116     3    12   am
   117    96    97    1
   118    88    89   ar
   119    24    25    1
   120   129   128   ar
   121   116   123   am
   122    13    12    1
   123    13    16    1
   124     2     1    1
   125     2     5    1
   126   142   143    1
   127    10     8   ar
   128    92    93    1
   129   130   128   ar
   130   103   105    1
   131   103   100    1
   132    84    85    2
   133     6     8   ar
   134     6     5    1
   135    99    93   am
   136    99   100    1
   137    25    26    1
   138   128   127    1
   139   143   146    1
   140   143   144    1
   141    93    94    2
   142    17    16    1
   143   100   101    1
   144   123   124    1
   145    16    18    1
   146   124   127    1
   147   124   125    1
   148   144   145    2
   149   112   111    1
   150   101   102    2
   151   150   149    2
   152   125   126    2
   153   154   152    1
   154   149   148    1
   155   152   151    1
   156   152   153    1
   157   111   110    1
   158   111   113    1
   159   151   148    1
   160   110   107    1
   161   148   147    1
   162   106   107    1
   163   107   108    1
   164   108   109    2
