@<TRIPOS>MOLECULE
tmp/5q02C01.pdb
 137 133 0 0 0
SMALL
GASTEIGER

@<TRIPOS>ATOM
      1  N          6.8820   51.3830   28.1320 N.3     9  VAL9       -0.1231
      2  CA         7.1020   52.6420   28.8330 C.3     9  VAL9        0.1692
      3  C          7.5740   53.7270   27.8700 C.2     9  VAL9        0.2591
      4  O          7.1340   54.8790   27.9530 O.2     9  VAL9       -0.2718
      5  CB         8.1060   52.4400   29.9820 C.3     9  VAL9        0.0266
      6  CG1        8.5000   53.7720   30.5790 C.3     9  VAL9        0.0020
      7  CG2        7.5050   51.5220   31.0620 C.3     9  VAL9        0.0020
      8  N          8.4810   53.3900   26.9520 N.am   10  MET10      -0.1979
      9  CA         8.8910   54.3710   25.9560 C.3    10  MET10       0.1605
     10  C          7.7100   54.8300   25.1200 C.2    10  MET10       0.2287
     11  O          7.6080   56.0140   24.7730 O.2    10  MET10      -0.2864
     12  CB         9.9680   53.8050   25.0430 C.3    10  MET10       0.0413
     13  CG        11.3340   53.7220   25.6530 C.3    10  MET10       0.0598
     14  SD        12.3380   52.9800   24.3850 S.3    10  MET10      -0.1393
     15  CE        13.8020   52.4830   25.2360 C.3    10  MET10       0.0692
     16  N          4.3630   54.8230   26.0060 N.3    12  GLU12      -0.1231
     17  CA         3.5610   55.7200   26.8300 C.3    12  GLU12       0.1699
     18  C          4.2670   57.0540   27.0290 C.2    12  GLU12       0.2593
     19  O          3.6160   58.1030   27.0700 O.2    12  GLU12      -0.2718
     20  CB         3.2490   55.0740   28.1790 C.3    12  GLU12       0.0402
     21  CG         2.3420   53.8540   28.0970 C.3    12  GLU12       0.1161
     22  CD         0.9350   54.2030   27.6380 C.2    12  GLU12       0.3649
     23  OE1        0.2800   53.3480   27.0150 O.co2  12  GLU12      -0.2457
     24  OE2        0.4800   55.3280   27.9150 O.co2  12  GLU12      -0.2457
     25  N          5.5980   57.0330   27.1250 N.am   13  GLY13      -0.1942
     26  CA         6.3300   58.2630   27.3350 C.3    13  GLY13       0.2014
     27  C          6.2560   59.1820   26.1330 C.2    13  GLY13       0.2638
     28  O          6.0710   60.3960   26.2810 O.2    13  GLY13      -0.2714
     29  N          6.3740   58.6170   24.9260 N.am   14  ARG14      -0.1977
     30  CA         6.2700   59.4330   23.7230 C.3    14  ARG14       0.1597
     31  C          4.8450   59.9280   23.5070 C.2    14  ARG14       0.2287
     32  O          4.6450   61.0740   23.0940 O.2    14  ARG14      -0.2864
     33  CB         6.7710   58.6540   22.5070 C.3    14  ARG14       0.0334
     34  CG         8.2490   58.3150   22.5750 C.3    14  ARG14       0.0492
     35  CD         8.7690   57.7340   21.2670 C.3    14  ARG14       0.2205
     36  NE         8.7490   58.7290   20.1960 N.pl3  14  ARG14      -0.0865
     37  CZ         8.7360   58.4420   18.8960 C.cat  14  ARG14       0.5346
     38  NH1        8.7240   57.1810   18.4920 N.pl3  14  ARG14       0.1354
     39  NH2        8.7230   59.4190   18.0000 N.pl3  14  ARG14       0.1354
     40  N          2.6790   60.7070   25.8740 N.3    16  ALA16      -0.1231
     41  CA         2.4990   61.8050   26.8090 C.3    16  ALA16       0.1694
     42  C          3.5010   62.9290   26.5930 C.2    16  ALA16       0.2592
     43  O          3.3760   63.9690   27.2490 O.2    16  ALA16      -0.2718
     44  CB         2.5910   61.2920   28.2520 C.3    16  ALA16       0.0304
     45  N          4.4870   62.7330   25.7060 N.am   17  ARG17      -0.1966
     46  CA         5.5010   63.7400   25.3730 C.3    17  ARG17       0.1729
     47  C          6.2800   64.2300   26.5930 C.2    17  ARG17       0.2617
     48  O          6.5940   65.4160   26.7130 O.2    17  ARG17      -0.2715
     49  CB         4.8880   64.9180   24.6110 C.3    17  ARG17       0.0348
     50  CG         4.4680   64.5590   23.2000 C.3    17  ARG17       0.0492
     51  CD         4.0640   65.7830   22.4040 C.3    17  ARG17       0.2205
     52  NE         3.8930   65.4700   20.9890 N.pl3  17  ARG17      -0.0865
     53  CZ         4.8470   65.6250   20.0760 C.cat  17  ARG17       0.5346
     54  NH1        6.0370   66.0910   20.4330 N.pl3  17  ARG17       0.1354
     55  NH2        4.6130   65.3180   18.8070 N.pl3  17  ARG17       0.1354
     56  N          6.5960   63.3180   27.5080 N.am   18  GLY18      -0.1940
     57  CA         7.4780   63.6450   28.6110 C.3    18  GLY18       0.2014
     58  C          8.9300   63.7290   28.1730 C.2    18  GLY18       0.2640
     59  O          9.2960   63.4220   27.0360 O.2    18  GLY18      -0.2714
     60  N          9.7880   64.1450   29.1090 N.am   19  THR19      -0.1936
     61  CA        11.1980   64.3320   28.7900 C.3    19  THR19       0.2028
     62  C         11.9800   63.0250   28.7220 C.2    19  THR19       0.2643
     63  O         13.1020   63.0350   28.2140 O.2    19  THR19      -0.2714
     64  CB        11.8750   65.2370   29.8170 C.3    19  THR19       0.1808
     65  OG1       11.8850   64.5820   31.1010 O.3    19  THR19      -0.2208
     66  CG2       11.1630   66.5970   29.9110 C.3    19  THR19       0.0379
     67  N         11.4340   61.9130   29.2250 N.am   20  GLY20      -0.1939
     68  CA        12.1460   60.6470   29.2640 C.3    20  GLY20       0.2014
     69  C         12.7230   60.2810   30.6150 C.2    20  GLY20       0.2639
     70  O         13.1980   59.1520   30.7860 O.2    20  GLY20      -0.2714
     71  N         12.6820   61.2020   31.5770 N.am   21  GLU21      -0.1963
     72  CA        13.3020   60.9680   32.8740 C.3    21  GLU21       0.1733
     73  C         12.6250   59.8170   33.6240 C.2    21  GLU21       0.2616
     74  O         13.3060   58.9730   34.2190 O.2    21  GLU21      -0.2715
     75  CB        13.2730   62.2650   33.6930 C.3    21  GLU21       0.0429
     76  CG        14.1910   62.2500   34.8910 C.3    21  GLU21       0.1163
     77  CD        14.4900   63.6480   35.4370 C.2    21  GLU21       0.3649
     78  OE1       14.8270   63.7510   36.6220 O.co2  21  GLU21      -0.2457
     79  OE2       14.3920   64.6450   34.6950 O.co2  21  GLU21      -0.2457
     80  N         11.2880   59.7580   33.6070 N.am   22  LEU22      -0.1963
     81  CA        10.6050   58.6510   34.2750 C.3    22  LEU22       0.1728
     82  C         10.9280   57.3120   33.6110 C.2    22  LEU22       0.2616
     83  O         11.0560   56.2890   34.2930 O.2    22  LEU22      -0.2715
     84  CB         9.0940   58.8920   34.3000 C.3    22  LEU22       0.0311
     85  CG         8.2790   57.7980   35.0050 C.3    22  LEU22       0.0022
     86  CD1        8.6930   57.6550   36.4790 C.3    22  LEU22       0.0001
     87  CD2        6.7790   58.0920   34.8990 C.3    22  LEU22       0.0001
     88  N         11.0480   57.2980   32.2770 N.am   23  THR23      -0.1951
     89  CA        11.4680   56.0910   31.5710 C.3    23  THR23       0.1897
     90  C         12.8620   55.6610   32.0090 C.2    23  THR23       0.2313
     91  O         13.1110   54.4700   32.2190 O.2    23  THR23      -0.2863
     92  CB        11.4370   56.3330   30.0570 C.3    23  THR23       0.1794
     93  OG1       10.0800   56.4190   29.6040 O.3    23  THR23      -0.2208
     94  CG2       12.1570   55.2300   29.3080 C.3    23  THR23       0.0378
     95  N         14.4520   64.5780   39.2130 N.3    95  LYS95      -0.1231
     96  CA        13.2940   65.2270   39.8230 C.3    95  LYS95       0.1693
     97  C         12.4140   64.3070   40.6620 C.2    95  LYS95       0.2592
     98  O         11.4840   64.8060   41.3070 O.2    95  LYS95      -0.2718
     99  CB        12.4310   65.8910   38.7430 C.3    95  LYS95       0.0285
    100  CG        11.7980   64.9440   37.7680 C.3    95  LYS95       0.0035
    101  CD        11.1910   65.7200   36.5900 C.3    95  LYS95       0.0206
    102  CE        10.6970   64.7730   35.4930 C.3    95  LYS95       0.1093
    103  NZ        10.0920   65.4630   34.3050 N.3    95  LYS95      -0.1314
    104  N         12.6800   62.9990   40.7000 N.am   96  TYR96      -0.1976
    105  CA        11.7670   62.0620   41.3460 C.3    96  TYR96       0.1639
    106  C         12.2530   61.5970   42.7150 C.2    96  TYR96       0.2290
    107  O         13.4540   61.5150   42.9920 O.2    96  TYR96      -0.2864
    108  CB        11.5200   60.8270   40.4680 C.3    96  TYR96       0.0560
    109  CG        10.7230   61.1680   39.2420 C.ar   96  TYR96      -0.0198
    110  CD1        9.3660   61.4580   39.3310 C.ar   96  TYR96      -0.0009
    111  CD2       11.3330   61.2400   38.0010 C.ar   96  TYR96      -0.0009
    112  CE1        8.6290   61.7970   38.1960 C.ar   96  TYR96       0.0417
    113  CE2       10.6160   61.5600   36.8730 C.ar   96  TYR96       0.0417
    114  CZ         9.2730   61.8420   36.9760 C.ar   96  TYR96       0.1957
    115  OH         8.5810   62.1720   35.8500 O.3    96  TYR96      -0.2866
    116  N          0.3690   53.0460   36.6120 N.3   160  MET160     -0.1230
    117  CA         0.5320   54.4500   36.2690 C.3   160  MET160      0.1702
    118  C         -0.8560   54.9940   35.9570 C.2   160  MET160      0.2592
    119  O         -1.8690   54.3160   36.1680 O.2   160  MET160     -0.2718
    120  CB         1.5010   54.6220   35.0850 C.3   160  MET160      0.0401
    121  CG         2.9180   54.1090   35.3400 C.3   160  MET160      0.0596
    122  SD         4.1520   54.4260   34.0490 S.3   160  MET160     -0.1393
    123  CE         3.5870   53.4020   32.7010 C.3   160  MET160      0.0692
    124  N         -0.9060   56.2360   35.4650 N.am  161  ASP161     -0.1960
    125  CA        -2.1840   56.8350   35.0760 C.3   161  ASP161      0.1840
    126  C         -2.8800   56.0420   33.9800 C.2   161  ASP161      0.2622
    127  O         -4.1160   56.0460   33.9040 O.2   161  ASP161     -0.2715
    128  CB        -1.9880   58.2920   34.6250 C.3   161  ASP161      0.1450
    129  CG        -1.9360   59.2500   35.7930 C.2   161  ASP161      0.3671
    130  OD1       -2.7470   59.0740   36.7260 O.co2 161  ASP161     -0.2456
    131  OD2       -1.0900   60.1700   35.7860 O.co2 161  ASP161     -0.2456
    132  N         -2.1170   55.4080   33.0890 N.am  162  CYS162     -0.1968
    133  CA        -2.7370   54.6070   32.0310 C.3   162  CYS162      0.1712
    134  C         -3.3520   53.2970   32.5260 C.2   162  CYS162      0.2296
    135  O         -3.9770   52.5980   31.7210 O.2   162  CYS162     -0.2864
    136  CB        -1.7220   54.3030   30.9320 C.3   162  CYS162      0.0983
    137  SG        -0.2580   53.3900   31.4930 S.3   162  CYS162     -0.0798
@<TRIPOS>BOND
     1    39    37    1
     2    38    37    1
     3    55    53    1
     4    37    36    2
     5    53    54    1
     6    53    52    2
     7    36    35    1
     8    52    51    1
     9    35    34    1
    10    51    50    1
    11    33    34    1
    12    33    30    1
    13    32    31    2
    14    50    49    1
    15    31    30    1
    16    30    29    1
    17    14    15    1
    18    14    13    1
    19    49    46    1
    20    11    10    2
    21    29    27   am
    22    12    13    1
    23    12     9    1
    24    10     9    1
    25    46    45    1
    26    46    47    1
    27    45    42   am
    28    40    41    1
    29     9     8    1
    30    16    17    1
    31    27    28    2
    32    27    26    1
    33    42    41    1
    34    42    43    2
    35    47    48    2
    36    47    56   am
    37    41    44    1
    38    17    18    1
    39    17    20    1
    40     8     3   am
    41    23    22   ar
    42    18    19    2
    43    18    25   am
    44    59    58    2
    45    25    26    1
    46    56    57    1
    47    22    24   ar
    48    22    21    1
    49     3     4    2
    50     3     2    1
    51    21    20    1
    52     1     2    1
    53    58    57    1
    54    58    60   am
    55    63    62    2
    56    62    61    1
    57    62    67   am
    58    61    60    1
    59    61    64    1
    60     2     5    1
    61    67    68    1
    62    68    69    1
    63    94    92    1
    64    93    92    1
    65    64    66    1
    66    64    65    1
    67     5     6    1
    68     5     7    1
    69    92    89    1
    70    69    70    2
    71    69    71   am
    72   136   137    1
    73   136   133    1
    74    89    90    1
    75    89    88    1
    76    71    72    1
    77   135   134    2
    78    90    91    2
    79   133   134    1
    80   133   132    1
    81    88    82   am
    82   123   122    1
    83    72    73    1
    84    72    75    1
    85   132   126   am
    86    80    73   am
    87    80    81    1
    88    82    81    1
    89    82    83    2
    90    73    74    2
    91    75    76    1
    92   127   126    2
    93   126   125    1
    94   122   121    1
    95    81    84    1
    96    84    85    1
    97   103   102    1
    98   128   125    1
    99   128   129    1
   100    79    77   ar
   101    76    77    1
   102    87    85    1
   103    85    86    1
   104   125   124    1
   105   120   121    1
   106   120   117    1
   107    77    78   ar
   108   124   118   am
   109   102   101    1
   110   131   129   ar
   111   129   130   ar
   112   115   114    1
   113   118   119    2
   114   118   117    1
   115   117   116    1
   116   101   100    1
   117   113   114   ar
   118   113   111   ar
   119   114   112   ar
   120   100    99    1
   121   111   109   ar
   122   112   110   ar
   123    99    96    1
   124    95    96    1
   125   109   110   ar
   126   109   108    1
   127    96    97    1
   128   108   105    1
   129    97   104   am
   130    97    98    2
   131   104   105    1
   132   105   106    1
   133   106   107    2
