@<TRIPOS>MOLECULE
tmp/5q03F00.pdb
 133 127 0 0 0
SMALL
GASTEIGER

@<TRIPOS>ATOM
      1  N         -7.6730   66.4320    6.6000 N.3     9  VAL9       -0.1231
      2  CA        -8.8120   67.0440    5.9210 C.3     9  VAL9        0.1692
      3  C         -8.3620   68.0980    4.9070 C.2     9  VAL9        0.2591
      4  O         -8.9840   68.2650    3.8490 O.2     9  VAL9       -0.2718
      5  CB        -9.7890   67.6230    6.9650 C.3     9  VAL9        0.0266
      6  CG1      -10.8760   68.4530    6.3120 C.3     9  VAL9        0.0020
      7  CG2      -10.4470   66.4820    7.7540 C.3     9  VAL9        0.0020
      8  N         -7.3140   68.8630    5.2220 N.am   10  MET10      -0.1979
      9  CA        -6.8400   69.8460    4.2500 C.3    10  MET10       0.1605
     10  C         -6.2680   69.1630    3.0090 C.2    10  MET10       0.2287
     11  O         -6.4390   69.6540    1.8890 O.2    10  MET10      -0.2864
     12  CB        -5.8180   70.7790    4.8940 C.3    10  MET10       0.0413
     13  CG        -6.4320   71.8030    5.8480 C.3    10  MET10       0.0598
     14  SD        -5.2470   72.9670    6.5750 S.3    10  MET10      -0.1393
     15  CE        -3.9900   71.8710    7.2320 C.3    10  MET10       0.0692
     16  N         -7.1370   66.1010    1.8230 N.3    12  GLU12      -0.1231
     17  CA        -8.2670   65.5980    1.0530 C.3    12  GLU12       0.1699
     18  C         -8.9760   66.7350    0.3150 C.2    12  GLU12       0.2593
     19  O         -9.4170   66.5680   -0.8310 O.2    12  GLU12      -0.2718
     20  CB        -9.2360   64.8390    1.9670 C.3    12  GLU12       0.0402
     21  CG        -8.7150   63.4950    2.4870 C.3    12  GLU12       0.1161
     22  CD        -8.6000   62.4450    1.3720 C.2    12  GLU12       0.3649
     23  OE1       -9.3500   62.5460    0.3850 O.co2  12  GLU12      -0.2457
     24  OE2       -7.7810   61.5070    1.4810 O.co2  12  GLU12      -0.2457
     25  N         -9.0420   67.9110    0.9350 N.am   13  GLY13      -0.1942
     26  CA        -9.7020   69.0370    0.3030 C.3    13  GLY13       0.2014
     27  C         -8.9100   69.6370   -0.8350 C.2    13  GLY13       0.2638
     28  O         -9.4780   70.0060   -1.8670 O.2    13  GLY13      -0.2714
     29  N         -7.5960   69.7850   -0.6540 N.am   14  ARG14      -0.1977
     30  CA        -6.7870   70.3030   -1.7470 C.3    14  ARG14       0.1597
     31  C         -6.7660   69.3300   -2.9120 C.2    14  ARG14       0.2287
     32  O         -6.7040   69.7500   -4.0720 O.2    14  ARG14      -0.2864
     33  CB        -5.3660   70.6160   -1.2830 C.3    14  ARG14       0.0334
     34  CG        -5.2540   71.7680   -0.2920 C.3    14  ARG14       0.0492
     35  CD        -3.7900   72.1060   -0.1450 C.3    14  ARG14       0.2205
     36  NE        -3.2970   72.6780   -1.3960 N.pl3  14  ARG14      -0.0865
     37  CZ        -2.0160   72.8030   -1.7150 C.cat  14  ARG14       0.5346
     38  NH1       -1.0840   72.3700   -0.8860 N.pl3  14  ARG14       0.1354
     39  NH2       -1.6710   73.3410   -2.8780 N.pl3  14  ARG14       0.1354
     40  N         -9.2600   67.5880   -3.8930 N.3    16  ALA16      -0.1245
     41  CA       -10.5590   67.7500   -4.5240 C.3    16  ALA16       0.1562
     42  C        -10.8160   69.1640   -5.0240 C.2    16  ALA16       0.2260
     43  O        -11.8930   69.4210   -5.5750 O.2    16  ALA16      -0.2867
     44  CB       -11.6610   67.3390   -3.5470 C.3    16  ALA16       0.0290
     45  N        -11.5750   71.9630   -3.5230 N.3    18  GLY18      -0.1210
     46  CA       -12.7060   72.6540   -2.9410 C.3    18  GLY18       0.1956
     47  C        -12.3670   74.0700   -2.5030 C.2    18  GLY18       0.2613
     48  O        -11.2180   74.5110   -2.5640 O.2    18  GLY18      -0.2717
     49  N        -13.4090   74.8110   -2.1000 N.am   19  THR19      -0.1938
     50  CA       -13.2150   76.1930   -1.6740 C.3    19  THR19       0.2028
     51  C        -12.6830   76.3150   -0.2600 C.2    19  THR19       0.2643
     52  O        -12.2520   77.4080    0.1170 O.2    19  THR19      -0.2714
     53  CB       -14.5050   77.0140   -1.7380 C.3    19  THR19       0.1808
     54  OG1      -15.4390   76.5200   -0.7680 O.3    19  THR19      -0.2208
     55  CG2      -15.0990   76.9900   -3.1280 C.3    19  THR19       0.0379
     56  N        -12.7830   75.2660    0.5580 N.am   20  GLY20      -0.1939
     57  CA       -12.3310   75.3340    1.9370 C.3    20  GLY20       0.2014
     58  C        -13.4140   75.5020    2.9850 C.2    20  GLY20       0.2639
     59  O        -13.1000   75.4500    4.1850 O.2    20  GLY20      -0.2714
     60  N        -14.6720   75.6990    2.5740 N.am   21  GLU21      -0.1963
     61  CA       -15.7410   75.8790    3.5510 C.3    21  GLU21       0.1733
     62  C        -15.9010   74.6310    4.4130 C.2    21  GLU21       0.2616
     63  O        -16.0890   74.7320    5.6350 O.2    21  GLU21      -0.2715
     64  CB       -17.0560   76.2140    2.8430 C.3    21  GLU21       0.0429
     65  CG       -17.4900   77.6650    2.9880 C.3    21  GLU21       0.1163
     66  CD       -18.8470   77.9500    2.3570 C.2    21  GLU21       0.3649
     67  OE1      -19.8880   77.6330    2.9780 O.co2  21  GLU21      -0.2457
     68  OE2      -18.8660   78.5020    1.2340 O.co2  21  GLU21      -0.2457
     69  N        -15.8050   73.4420    3.7950 N.am   22  LEU22      -0.1963
     70  CA       -15.9520   72.2000    4.5520 C.3    22  LEU22       0.1728
     71  C        -14.8020   71.9990    5.5430 C.2    22  LEU22       0.2616
     72  O        -15.0080   71.4570    6.6360 O.2    22  LEU22      -0.2715
     73  CB       -16.0590   71.0130    3.5980 C.3    22  LEU22       0.0311
     74  CG       -16.1940   69.6530    4.2950 C.3    22  LEU22       0.0022
     75  CD1      -17.4450   69.6050    5.1590 C.3    22  LEU22       0.0001
     76  CD2      -16.2020   68.5270    3.2830 C.3    22  LEU22       0.0001
     77  N        -13.5810   72.3930    5.1650 N.am   23  THR23      -0.1951
     78  CA       -12.4560   72.3080    6.0880 C.3    23  THR23       0.1897
     79  C        -12.6440   73.2390    7.2910 C.2    23  THR23       0.2313
     80  O        -12.3410   72.8640    8.4260 O.2    23  THR23      -0.2863
     81  CB       -11.1560   72.6090    5.3410 C.3    23  THR23       0.1794
     82  OG1      -10.7370   71.4410    4.6210 O.3    23  THR23      -0.2208
     83  CG2      -10.0630   73.0250    6.2960 C.3    23  THR23       0.0378
     84  N        -22.7230   77.2690    3.0770 N.3    94  LYS94      -0.1231
     85  CA       -23.5050   76.4300    2.1780 C.3    94  LYS94       0.1693
     86  C        -23.8590   75.0440    2.7220 C.2    94  LYS94       0.2592
     87  O        -24.4830   74.2660    1.9940 O.2    94  LYS94      -0.2718
     88  CB       -22.7600   76.3000    0.8350 C.3    94  LYS94       0.0285
     89  CG       -21.4170   75.5800    0.9210 C.3    94  LYS94       0.0035
     90  CD       -20.5660   75.7950   -0.3340 C.3    94  LYS94       0.0206
     91  CE       -19.2310   75.0510   -0.2310 C.3    94  LYS94       0.1093
     92  NZ       -18.2250   75.4870   -1.2390 N.3    94  LYS94      -0.1314
     93  N        -23.5350   74.7180    3.9790 N.am   95  TYR95      -0.1976
     94  CA       -23.7280   73.3610    4.4840 C.3    95  TYR95       0.1639
     95  C        -24.8210   73.2770    5.5450 C.2    95  TYR95       0.2290
     96  O        -25.1420   74.2630    6.2190 O.2    95  TYR95      -0.2864
     97  CB       -22.4340   72.7940    5.0590 C.3    95  TYR95       0.0560
     98  CG       -21.3900   72.5130    4.0190 C.ar   95  TYR95      -0.0198
     99  CD1      -21.4760   71.3910    3.1950 C.ar   95  TYR95      -0.0009
    100  CD2      -20.3190   73.3750    3.8530 C.ar   95  TYR95      -0.0009
    101  CE1      -20.5130   71.1390    2.2440 C.ar   95  TYR95       0.0417
    102  CE2      -19.3630   73.1380    2.9120 C.ar   95  TYR95       0.0417
    103  CZ       -19.4530   72.0260    2.1010 C.ar   95  TYR95       0.1957
    104  OH       -18.4640   71.8240    1.1570 O.3    95  TYR95      -0.2866
    105  N        -22.4910   63.9650    2.7410 N.3   142  VAL142     -0.1245
    106  CA       -21.1500   64.3420    2.3070 C.3   142  VAL142      0.1561
    107  C        -20.1010   63.8560    3.3040 C.2   142  VAL142      0.2260
    108  O        -19.0400   63.3590    2.9170 O.2   142  VAL142     -0.2867
    109  CB       -21.0880   65.8810    2.1260 C.3   142  VAL142      0.0252
    110  CG1      -19.6630   66.3570    1.8850 C.3   142  VAL142      0.0019
    111  CG2      -21.9990   66.3390    0.9890 C.3   142  VAL142      0.0019
    112  N        -16.0930   59.6120    4.9340 N.3   159  MET159     -0.1230
    113  CA       -16.3740   60.4140    3.7380 C.3   159  MET159      0.1702
    114  C        -16.3130   59.4900    2.5180 C.2   159  MET159      0.2592
    115  O        -16.3060   58.2610    2.6400 O.2   159  MET159     -0.2718
    116  CB       -15.4050   61.5940    3.5730 C.3   159  MET159      0.0401
    117  CG       -15.0790   62.3990    4.8310 C.3   159  MET159      0.0596
    118  SD       -14.1180   63.8820    4.4270 S.3   159  MET159     -0.1393
    119  CE       -12.4520   63.2920    4.7360 C.3   159  MET159      0.0692
    120  N        -16.2900   60.0790    1.3180 N.am  160  ASP160     -0.1960
    121  CA       -16.2520   59.2590    0.1070 C.3   160  ASP160      0.1840
    122  C        -15.0120   58.3730    0.0540 C.2   160  ASP160      0.2622
    123  O        -15.0730   57.2550   -0.4640 O.2   160  ASP160     -0.2715
    124  CB       -16.3210   60.1340   -1.1430 C.3   160  ASP160      0.1450
    125  CG       -16.3880   59.3080   -2.4210 C.2   160  ASP160      0.3671
    126  OD1      -17.4610   58.7120   -2.6730 O.co2 160  ASP160     -0.2456
    127  OD2      -15.3720   59.2390   -3.1570 O.co2 160  ASP160     -0.2456
    128  N        -13.8810   58.8500    0.5790 N.am  161  CYS161     -0.1968
    129  CA       -12.6400   58.0830    0.5710 C.3   161  CYS161      0.1712
    130  C        -12.6190   56.9230    1.5680 C.2   161  CYS161      0.2296
    131  O        -11.6370   56.1700    1.5810 O.2   161  CYS161     -0.2864
    132  CB       -11.4630   59.0170    0.8430 C.3   161  CYS161      0.0983
    133  SG       -11.5530   59.8760    2.4350 S.3   161  CYS161     -0.0798
@<TRIPOS>BOND
     1    43    42    2
     2    42    41    1
     3    41    40    1
     4    41    44    1
     5    32    31    2
     6    45    46    1
     7   127   125   ar
     8    55    53    1
     9    46    47    1
    10    31    30    1
    11    39    37    1
    12   126   125   ar
    13    48    47    2
    14    47    49   am
    15   125   124    1
    16    49    50    1
    17    28    27    2
    18    30    33    1
    19    30    29    1
    20    53    50    1
    21    53    54    1
    22    37    36    2
    23    37    38    1
    24    50    51    1
    25    36    35    1
    26    33    34    1
    27    92    91    1
    28   124   121    1
    29    27    29   am
    30    27    26    1
    31    19    18    2
    32   123   122    2
    33    90    91    1
    34    90    89    1
    35    34    35    1
    36    51    52    2
    37    51    56   am
    38   122   121    1
    39   122   128   am
    40   121   120    1
    41    26    25    1
    42    18    25   am
    43    18    17    1
    44    23    22   ar
    45    56    57    1
    46   129   128    1
    47   129   132    1
    48   129   130    1
    49    88    89    1
    50    88    85    1
    51   132   133    1
    52   111   109    1
    53    17    16    1
    54    17    20    1
    55   104   103    1
    56    68    66   ar
    57   120   114   am
    58    22    24   ar
    59    22    21    1
    60   130   131    2
    61   110   109    1
    62    11    10    2
    63    57    58    1
    64    20    21    1
    65    87    86    2
    66   103   101   ar
    67   103   102   ar
    68   109   106    1
    69    85    86    1
    70    85    84    1
    71   101    99   ar
    72   106   105    1
    73   106   107    1
    74    66    67   ar
    75    66    65    1
    76   114   115    2
    77   114   113    1
    78    60    58   am
    79    60    61    1
    80    86    93   am
    81    64    65    1
    82    64    61    1
    83   102   100   ar
    84   108   107    2
    85    58    59    2
    86    10     9    1
    87    99    98   ar
    88    76    74    1
    89    61    62    1
    90   116   113    1
    91   116   117    1
    92    73    74    1
    93    73    70    1
    94   113   112    1
    95    69    62   am
    96    69    70    1
    97     4     3    2
    98   100    98   ar
    99    93    94    1
   100    98    97    1
   101     9    12    1
   102     9     8    1
   103    74    75    1
   104    62    63    2
   105   118   119    1
   106   118   117    1
   107    94    97    1
   108    94    95    1
   109    70    71    1
   110    82    81    1
   111    12    13    1
   112     3     8   am
   113     3     2    1
   114    77    71   am
   115    77    78    1
   116    81    78    1
   117    81    83    1
   118    71    72    2
   119    95    96    2
   120    13    14    1
   121     2     1    1
   122     2     5    1
   123    78    79    1
   124     6     5    1
   125    14    15    1
   126     5     7    1
   127    79    80    2
