@<TRIPOS>MOLECULE
tmp/5q04B00.pdb
 129 122 0 0 0
SMALL
GASTEIGER

@<TRIPOS>ATOM
      1  N         21.0770    1.9010   28.1380 N.3     9  VAL9       -0.1231
      2  CA        19.7810    1.3510   28.5270 C.3     9  VAL9        0.1692
      3  C         19.9570    0.2810   29.5970 C.2     9  VAL9        0.2591
      4  O         19.2030    0.2240   30.5760 O.2     9  VAL9       -0.2718
      5  CB        19.0340    0.8150   27.2900 C.3     9  VAL9        0.0266
      6  CG1       17.8420   -0.0590   27.7140 C.3     9  VAL9        0.0020
      7  CG2       18.5800    1.9780   26.3570 C.3     9  VAL9        0.0020
      8  N         20.9750   -0.5640   29.4520 N.am   10  MET10      -0.1979
      9  CA        21.2620   -1.5460   30.4920 C.3    10  MET10       0.1605
     10  C         21.4890   -0.8750   31.8440 C.2    10  MET10       0.2287
     11  O         20.9010   -1.2830   32.8530 O.2    10  MET10      -0.2864
     12  CB        22.4870   -2.3730   30.0870 C.3    10  MET10       0.0413
     13  CG        22.1880   -3.6050   29.2420 C.3    10  MET10       0.0598
     14  SD        23.7300   -4.3100   28.6350 S.3    10  MET10      -0.1393
     15  CE        23.2890   -4.8420   27.0120 C.3    10  MET10       0.0692
     16  N         20.5970    2.2050   32.9870 N.3    12  GLU12      -0.1231
     17  CA        19.3450    2.7520   33.5110 C.3    12  GLU12       0.1699
     18  C         18.4300    1.6360   33.9930 C.2    12  GLU12       0.2593
     19  O         17.9090    1.6740   35.1170 O.2    12  GLU12      -0.2718
     20  CB        18.6160    3.5630   32.4290 C.3    12  GLU12       0.0402
     21  CG        19.2640    4.8740   31.9870 C.3    12  GLU12       0.1161
     22  CD        19.2050    5.9510   33.0610 C.2    12  GLU12       0.3649
     23  OE1       18.0780    6.3550   33.4370 O.co2  12  GLU12      -0.2457
     24  OE2       20.2800    6.3940   33.5250 O.co2  12  GLU12      -0.2457
     25  N         18.2930    0.5930   33.1810 N.am   13  GLY13      -0.1942
     26  CA        17.4090   -0.4960   33.5320 C.3    13  GLY13       0.2014
     27  C         17.8290   -1.2040   34.7970 C.2    13  GLY13       0.2638
     28  O         16.9840   -1.6550   35.5710 O.2    13  GLY13      -0.2714
     29  N         19.1380   -1.3370   35.0200 N.am   14  ARG14      -0.1977
     30  CA        19.5730   -1.9940   36.2430 C.3    14  ARG14       0.1597
     31  C         19.3350   -1.0910   37.4330 C.2    14  ARG14       0.2287
     32  O         18.9000   -1.5500   38.4990 O.2    14  ARG14      -0.2864
     33  CB        21.0410   -2.3800   36.1270 C.3    14  ARG14       0.0334
     34  CG        21.2750   -3.5430   35.1680 C.3    14  ARG14       0.0492
     35  CD        22.7310   -3.9470   35.1130 C.3    14  ARG14       0.2205
     36  NE        23.2060   -4.2810   36.4510 N.pl3  14  ARG14      -0.0865
     37  CZ        24.4630   -4.5760   36.7520 C.cat  14  ARG14       0.5346
     38  NH1       25.3810   -4.5760   35.8000 N.pl3  14  ARG14       0.1354
     39  NH2       24.7990   -4.8640   38.0060 N.pl3  14  ARG14       0.1354
     40  N         16.8780    0.9520   37.6750 N.3    16  ALA16      -0.1245
     41  CA        15.4430    0.8940   37.9300 C.3    16  ALA16       0.1562
     42  C         14.9750   -0.4660   38.4370 C.2    16  ALA16       0.2260
     43  O         13.7780   -0.6240   38.7020 O.2    16  ALA16      -0.2867
     44  CB        14.6720    1.2700   36.6670 C.3    16  ALA16       0.0290
     45  N         14.3740   -3.2580   37.0150 N.3    18  GLY18      -0.1210
     46  CA        13.3280   -3.8250   36.1850 C.3    18  GLY18       0.1956
     47  C         13.6490   -5.2220   35.6830 C.2    18  GLY18       0.2613
     48  O         14.7530   -5.7340   35.8570 O.2    18  GLY18      -0.2717
     49  N         12.6610   -5.8390   35.0220 N.am   19  THR19      -0.1938
     50  CA        12.8150   -7.2310   34.6170 C.3    19  THR19       0.2028
     51  C         13.7360   -7.4120   33.4200 C.2    19  THR19       0.2643
     52  O         14.3210   -8.4890   33.2640 O.2    19  THR19      -0.2714
     53  CB        11.4530   -7.8570   34.2910 C.3    19  THR19       0.1808
     54  OG1       10.8420   -7.1620   33.1990 O.3    19  THR19      -0.2208
     55  CG2       10.5290   -7.8100   35.4990 C.3    19  THR19       0.0379
     56  N         13.9240   -6.3850   32.6030 N.am   20  GLY20      -0.1939
     57  CA        14.7020   -6.5040   31.3900 C.3    20  GLY20       0.2014
     58  C         13.8840   -6.5310   30.1210 C.2    20  GLY20       0.2639
     59  O         14.4730   -6.4620   29.0330 O.2    20  GLY20      -0.2714
     60  N         12.5510   -6.6290   30.2110 N.am   21  GLU21      -0.1963
     61  CA        11.7560   -6.7050   28.9880 C.3    21  GLU21       0.1733
     62  C         11.9500   -5.4650   28.1300 C.2    21  GLU21       0.2616
     63  O         12.1270   -5.5760   26.9150 O.2    21  GLU21      -0.2715
     64  CB        10.2720   -6.9150   29.3150 C.3    21  GLU21       0.0429
     65  CG         9.8170   -8.3700   29.1280 C.3    21  GLU21       0.1163
     66  CD         8.3060   -8.5860   29.2450 C.2    21  GLU21       0.3649
     67  OE1        7.5610   -8.2880   28.2950 O.co2  21  GLU21      -0.2457
     68  OE2        7.8660   -9.0970   30.2960 O.co2  21  GLU21      -0.2457
     69  N         11.9910   -4.2810   28.7470 N.am   22  LEU22      -0.1963
     70  CA        12.1180   -3.0630   27.9530 C.3    22  LEU22       0.1728
     71  C         13.4900   -2.9800   27.2860 C.2    22  LEU22       0.2616
     72  O         13.5930   -2.6100   26.1040 O.2    22  LEU22      -0.2715
     73  CB        11.8500   -1.8230   28.8200 C.3    22  LEU22       0.0311
     74  CG        11.9620   -0.4960   28.0420 C.3    22  LEU22       0.0022
     75  CD1       11.0130   -0.4500   26.8580 C.3    22  LEU22       0.0001
     76  CD2       11.8180    0.7480   28.9080 C.3    22  LEU22       0.0001
     77  N         14.5400   -3.3720   28.0090 N.am   23  THR23      -0.1951
     78  CA        15.8780   -3.4060   27.4280 C.3    23  THR23       0.1897
     79  C         15.9560   -4.3560   26.2380 C.2    23  THR23       0.2313
     80  O         16.5500   -4.0130   25.2110 O.2    23  THR23      -0.2863
     81  CB        16.8890   -3.8000   28.4980 C.3    23  THR23       0.1794
     82  OG1       17.0040   -2.7160   29.4100 O.3    23  THR23      -0.2208
     83  CG2       18.2520   -4.0520   27.8920 C.3    23  THR23       0.0378
     84  N          4.9350   -7.7910   27.4930 N.3    94  LYS94      -0.1231
     85  CA         3.9420   -6.9340   28.1210 C.3    94  LYS94       0.1693
     86  C          3.8660   -5.5630   27.4820 C.2    94  LYS94       0.2592
     87  O          3.1950   -4.6810   28.0260 O.2    94  LYS94      -0.2718
     88  CB         4.2080   -6.7850   29.6210 C.3    94  LYS94       0.0285
     89  CG         5.4770   -6.0280   29.9910 C.3    94  LYS94       0.0035
     90  CD         5.6720   -6.0390   31.5140 C.3    94  LYS94       0.0206
     91  CE         6.9890   -5.4110   31.9410 C.3    94  LYS94       0.1093
     92  NZ         7.2970   -5.6160   33.3870 N.3    94  LYS94      -0.1314
     93  N          4.5550   -5.3420   26.3690 N.am   95  TYR95      -0.1976
     94  CA         4.6360   -4.0010   25.8160 C.3    95  TYR95       0.1639
     95  C          3.8850   -3.8660   24.5000 C.2    95  TYR95       0.2290
     96  O          3.8150   -4.7970   23.6910 O.2    95  TYR95      -0.2864
     97  CB         6.0870   -3.5660   25.6380 C.3    95  TYR95       0.0560
     98  CG         6.7560   -3.2020   26.9450 C.ar   95  TYR95      -0.0198
     99  CD1        6.4300   -2.0210   27.6100 C.ar   95  TYR95      -0.0009
    100  CD2        7.6990   -4.0420   27.5210 C.ar   95  TYR95      -0.0009
    101  CE1        7.0420   -1.6810   28.8100 C.ar   95  TYR95       0.0417
    102  CE2        8.3190   -3.7120   28.7100 C.ar   95  TYR95       0.0417
    103  CZ         7.9910   -2.5320   29.3480 C.ar   95  TYR95       0.1957
    104  OH         8.6100   -2.2190   30.5250 O.3    95  TYR95      -0.2866
    105  N          2.9890    0.2380   28.1220 N.3   122  ARG122     -0.1245
    106  CA         2.7660   -1.0180   28.8140 C.3   122  ARG122      0.1563
    107  C          1.3300   -1.4700   28.5910 C.2   122  ARG122      0.2260
    108  O          0.4030   -0.6570   28.5620 O.2   122  ARG122     -0.2867
    109  CB         3.0600   -0.8960   30.3100 C.3   122  ARG122      0.0307
    110  CG         3.2080   -2.2070   31.0430 C.3   122  ARG122      0.0489
    111  CD         3.5290   -1.9440   32.5060 C.3   122  ARG122      0.2205
    112  NE         4.8350   -1.3170   32.6880 N.pl3 122  ARG122     -0.0865
    113  CZ         5.8660   -1.9070   33.2810 C.cat 122  ARG122      0.5346
    114  NH1        5.7370   -3.1340   33.7590 N.pl3 122  ARG122      0.1354
    115  NH2        7.0220   -1.2700   33.4040 N.pl3 122  ARG122      0.1354
    116  N         12.6790    9.1190   27.7440 N.3   159  MET159     -0.1245
    117  CA        12.1240    8.3650   28.8720 C.3   159  MET159      0.1570
    118  C         11.9190    9.3170   30.0480 C.2   159  MET159      0.2261
    119  O         12.0080   10.5400   29.9130 O.2   159  MET159     -0.2867
    120  CB        13.0260    7.1800   29.2480 C.3   159  MET159      0.0387
    121  CG        13.1980    6.1590   28.1450 C.3   159  MET159      0.0595
    122  SD        14.2680    4.7670   28.5910 S.3   159  MET159     -0.1393
    123  CE        15.8300    5.6200   28.7930 C.3   159  MET159      0.0692
    124  N         13.9260    9.6510   32.5630 N.3   161  CYS161     -0.1235
    125  CA        15.2220   10.2620   32.8370 C.3   161  CYS161      0.1677
    126  C         15.5580   11.4140   31.8910 C.2   161  CYS161      0.2270
    127  O         16.5130   12.1500   32.1610 O.2   161  CYS161     -0.2867
    128  CB        16.3320    9.1970   32.7810 C.3   161  CYS161      0.0956
    129  SG        16.6640    8.4940   31.1450 S.3   161  CYS161     -0.0801
@<TRIPOS>BOND
     1    96    95    2
     2    95    94    1
     3    80    79    2
     4    97    94    1
     5    97    98    1
     6    94    93    1
     7    72    71    2
     8    79    78    1
     9     7     5    1
    10    93    86   am
    11    75    74    1
    12    63    62    2
    13    98   100   ar
    14    98    99   ar
    15    15    14    1
    16    71    70    1
    17    71    77   am
    18     5     6    1
    19     5     2    1
    20    78    77    1
    21    78    81    1
    22    86    87    2
    23    86    85    1
    24    84    85    1
    25   100   102   ar
    26    99   101   ar
    27   116   117    1
    28    83    81    1
    29    70    69    1
    30    70    73    1
    31    74    73    1
    32    74    76    1
    33    85    88    1
    34   105   106    1
    35    62    69   am
    36    62    61    1
    37     1     2    1
    38   121   122    1
    39   121   120    1
    40    67    66   ar
    41    81    82    1
    42     2     3    1
    43   108   107    2
    44   107   106    1
    45   122   123    1
    46    14    13    1
    47   102   103   ar
    48   101   103   ar
    49   106   109    1
    50   117   120    1
    51   117   118    1
    52    61    64    1
    53    61    60    1
    54    59    58    2
    55    65    66    1
    56    65    64    1
    57    13    12    1
    58    66    68   ar
    59   103   104    1
    60     8     3   am
    61     8     9    1
    62     3     4    2
    63    88    89    1
    64   119   118    2
    65    89    90    1
    66    12     9    1
    67    58    60   am
    68    58    57    1
    69   109   110    1
    70     9    10    1
    71   110   111    1
    72   129   128    1
    73    57    56    1
    74    90    91    1
    75    10    11    2
    76   126   127    2
    77   126   125    1
    78    91    92    1
    79    21    20    1
    80    21    22    1
    81    20    17    1
    82   111   112    1
    83   124   125    1
    84    56    51   am
    85   112   113    2
    86   128   125    1
    87    16    17    1
    88    22    23   ar
    89    22    24   ar
    90    25    26    1
    91    25    18   am
    92    54    53    1
    93    52    51    2
    94   113   115    1
    95   113   114    1
    96    51    50    1
    97    17    18    1
    98    26    27    1
    99    18    19    2
   100    53    50    1
   101    53    55    1
   102    50    49    1
   103    27    29   am
   104    27    28    2
   105    29    30    1
   106    49    47   am
   107    35    34    1
   108    35    36    1
   109    34    33    1
   110    47    48    2
   111    47    46    1
   112    38    37    1
   113    33    30    1
   114    46    45    1
   115    30    31    1
   116    36    37    2
   117    44    41    1
   118    37    39    1
   119    31    32    2
   120    40    41    1
   121    41    42    1
   122    42    43    2
