@<TRIPOS>MOLECULE
tmp/5q05D01.pdb
 163 156 0 0 0
SMALL
GASTEIGER

@<TRIPOS>ATOM
      1  N         23.1930  -13.0510   24.9830 N.3     9  VAL9       -0.1231
      2  CA        23.7630  -12.9250   26.3170 C.3     9  VAL9        0.1692
      3  C         22.7040  -12.4400   27.2960 C.2     9  VAL9        0.2591
      4  O         22.5780  -12.9560   28.4210 O.2     9  VAL9       -0.2718
      5  CB        24.9820  -11.9910   26.2530 C.3     9  VAL9        0.0266
      6  CG1       25.4550  -11.6130   27.6090 C.3     9  VAL9        0.0020
      7  CG2       26.1080  -12.6690   25.4770 C.3     9  VAL9        0.0020
      8  N         21.8860  -11.4830   26.8620 N.am   10  MET10      -0.1979
      9  CA        20.8010  -11.0210   27.7110 C.3    10  MET10       0.1605
     10  C         19.8800  -12.1700   28.0780 C.2    10  MET10       0.2287
     11  O         19.4950  -12.3190   29.2400 O.2    10  MET10      -0.2864
     12  CB        19.9980   -9.9320   27.0030 C.3    10  MET10       0.0413
     13  CG        20.6850   -8.5880   26.8070 C.3    10  MET10       0.0598
     14  SD        19.4620   -7.4560   26.1030 S.3    10  MET10      -0.1393
     15  CE        20.4650   -6.0680   25.6220 C.3    10  MET10       0.0692
     16  N         20.5530  -15.4400   28.1500 N.3    12  GLU12      -0.1231
     17  CA        21.2310  -16.3230   29.0960 C.3    12  GLU12       0.1699
     18  C         21.3290  -15.6770   30.4720 C.2    12  GLU12       0.2593
     19  O         21.1980  -16.3600   31.4940 O.2    12  GLU12      -0.2718
     20  CB        22.6250  -16.6680   28.5700 C.3    12  GLU12       0.0402
     21  CG        22.5810  -17.4740   27.2870 C.3    12  GLU12       0.1161
     22  CD        22.1200  -18.9040   27.5220 C.2    12  GLU12       0.3649
     23  OE1       22.7070  -19.5690   28.4020 O.co2  12  GLU12      -0.2457
     24  OE2       21.1680  -19.3550   26.8500 O.co2  12  GLU12      -0.2457
     25  N         21.5380  -14.3550   30.5210 N.am   13  GLY13      -0.1942
     26  CA        21.6070  -13.6800   31.8040 C.3    13  GLY13       0.2014
     27  C         20.2980  -13.7470   32.5660 C.2    13  GLY13       0.2638
     28  O         20.2770  -14.0540   33.7580 O.2    13  GLY13      -0.2714
     29  N         19.1850  -13.4940   31.8820 N.am   14  ARG14      -0.1977
     30  CA        17.8910  -13.5850   32.5440 C.3    14  ARG14       0.1597
     31  C         17.6060  -15.0150   32.9950 C.2    14  ARG14       0.2287
     32  O         17.0520  -15.2280   34.0800 O.2    14  ARG14      -0.2864
     33  CB        16.7880  -13.0630   31.6250 C.3    14  ARG14       0.0334
     34  CG        16.8630  -11.5410   31.4180 C.3    14  ARG14       0.0492
     35  CD        15.5970  -10.9810   30.7960 C.3    14  ARG14       0.2205
     36  NE        14.4750  -11.0820   31.7250 N.pl3  14  ARG14      -0.0865
     37  CZ        13.1960  -10.9210   31.3930 C.cat  14  ARG14       0.5346
     38  NH1       12.8530  -10.6530   30.1390 N.pl3  14  ARG14       0.1354
     39  NH2       12.2570  -11.0390   32.3250 N.pl3  14  ARG14       0.1354
     40  N         19.7670  -17.1740   34.0980 N.3    16  ALA16      -0.1231
     41  CA        20.5420  -17.3450   35.3140 C.3    16  ALA16       0.1694
     42  C         20.1350  -16.3740   36.4140 C.2    16  ALA16       0.2592
     43  O         20.5440  -16.5730   37.5630 O.2    16  ALA16      -0.2718
     44  CB        22.0360  -17.1630   35.0210 C.3    16  ALA16       0.0304
     45  N         19.3400  -15.3500   36.0920 N.am   17  ARG17      -0.1966
     46  CA        18.8860  -14.3500   37.0630 C.3    17  ARG17       0.1729
     47  C         20.0500  -13.6070   37.7170 C.2    17  ARG17       0.2617
     48  O         20.0010  -13.2670   38.8980 O.2    17  ARG17      -0.2715
     49  CB        17.9710  -14.9630   38.1320 C.3    17  ARG17       0.0348
     50  CG        16.7100  -15.5900   37.5760 C.3    17  ARG17       0.0492
     51  CD        15.8830  -16.2670   38.6460 C.3    17  ARG17       0.2205
     52  NE        14.5720  -16.6390   38.1220 N.pl3  17  ARG17      -0.0865
     53  CZ        13.4970  -15.8570   38.1760 C.cat  17  ARG17       0.5346
     54  NH1       13.5760  -14.6560   38.7340 N.pl3  17  ARG17       0.1354
     55  NH2       12.3430  -16.2740   37.6700 N.pl3  17  ARG17       0.1354
     56  N         21.0930  -13.3280   36.9470 N.am   18  GLY18      -0.1940
     57  CA        22.2270  -12.5760   37.4470 C.3    18  GLY18       0.2014
     58  C         21.9480  -11.0840   37.4770 C.2    18  GLY18       0.2640
     59  O         20.9030  -10.6060   37.0430 O.2    18  GLY18      -0.2714
     60  N         22.9140  -10.3310   38.0110 N.am   19  THR19      -0.1936
     61  CA        22.6970   -8.9010   38.2120 C.3    19  THR19       0.2028
     62  C         22.7290   -8.0990   36.9180 C.2    19  THR19       0.2643
     63  O         22.1800   -6.9920   36.8810 O.2    19  THR19      -0.2714
     64  CB        23.7300   -8.3370   39.1880 C.3    19  THR19       0.1808
     65  OG1       25.0520   -8.5110   38.6560 O.3    19  THR19      -0.2208
     66  CG2       23.6140   -9.0180   40.5400 C.3    19  THR19       0.0379
     67  N         23.3480   -8.6280   35.8630 N.am   20  GLY20      -0.1939
     68  CA        23.5370   -7.9150   34.6180 C.3    20  GLY20       0.2014
     69  C         24.9630   -7.5080   34.3450 C.2    20  GLY20       0.2639
     70  O         25.2730   -7.1280   33.2070 O.2    20  GLY20      -0.2714
     71  N         25.8490   -7.6240   35.3350 N.am   21  GLU21      -0.1963
     72  CA        27.2300   -7.1790   35.1710 C.3    21  GLU21       0.1733
     73  C         27.9560   -7.9380   34.0620 C.2    21  GLU21       0.2616
     74  O         28.6720   -7.3280   33.2540 O.2    21  GLU21      -0.2715
     75  CB        27.9630   -7.3450   36.5000 C.3    21  GLU21       0.0429
     76  CG        29.1380   -6.4190   36.7230 C.3    21  GLU21       0.1163
     77  CD        29.4640   -6.2400   38.2050 C.2    21  GLU21       0.3649
     78  OE1       30.6580   -6.1600   38.5620 O.co2  21  GLU21      -0.2457
     79  OE2       28.5220   -6.1890   39.0210 O.co2  21  GLU21      -0.2457
     80  N         27.7980   -9.2670   33.9960 N.am   22  LEU22      -0.1963
     81  CA        28.5260  -10.0190   32.9650 C.3    22  LEU22       0.1728
     82  C         28.0470   -9.6370   31.5670 C.2    22  LEU22       0.2616
     83  O         28.8500   -9.5050   30.6480 O.2    22  LEU22      -0.2715
     84  CB        28.3830  -11.5290   33.1770 C.3    22  LEU22       0.0311
     85  CG        29.0830  -12.4480   32.1610 C.3    22  LEU22       0.0022
     86  CD1       30.5940  -12.2640   32.1620 C.3    22  LEU22       0.0001
     87  CD2       28.7120  -13.9210   32.3750 C.3    22  LEU22       0.0001
     88  N         26.7460   -9.4160   31.4120 N.am   23  THR23      -0.1951
     89  CA        26.2100   -8.9320   30.1580 C.3    23  THR23       0.1897
     90  C         26.7830   -7.5570   29.8220 C.2    23  THR23       0.2313
     91  O         27.1220   -7.2850   28.6610 O.2    23  THR23      -0.2863
     92  CB        24.6880   -8.8900   30.2440 C.3    23  THR23       0.1794
     93  OG1       24.1830  -10.2300   30.1950 O.3    23  THR23      -0.2208
     94  CG2       24.0870   -8.0700   29.0800 C.3    23  THR23       0.0378
     95  N         30.4420   -8.2000   28.5640 N.3    26  LEU26      -0.1245
     96  CA        30.5460   -8.7920   27.2300 C.3    26  LEU26       0.1561
     97  C         30.0580   -7.8260   26.1510 C.2    26  LEU26       0.2260
     98  O         30.5750   -7.8270   25.0260 O.2    26  LEU26      -0.2867
     99  CB        29.7690  -10.1040   27.1820 C.3    26  LEU26       0.0270
    100  CG        30.3560  -11.3120   27.9260 C.3    26  LEU26       0.0019
    101  CD1       29.2970  -12.3860   28.0510 C.3    26  LEU26       0.0001
    102  CD2       31.5770  -11.8790   27.1760 C.3    26  LEU26       0.0001
    103  N         32.9980   -6.9230   39.4780 N.3    94  LYS94      -0.1231
    104  CA        33.3540   -8.1600   40.1530 C.3    94  LYS94       0.1693
    105  C         34.1820   -9.1240   39.3000 C.2    94  LYS94       0.2592
    106  O         34.4570  -10.2380   39.7550 O.2    94  LYS94      -0.2718
    107  CB        32.0910   -8.8680   40.6370 C.3    94  LYS94       0.0285
    108  CG        31.1780   -9.3370   39.5220 C.3    94  LYS94       0.0035
    109  CD        30.0350  -10.2330   40.0330 C.3    94  LYS94       0.0206
    110  CE        28.7650   -9.4890   40.3850 C.3    94  LYS94       0.1093
    111  NZ        27.6020  -10.3890   40.0520 N.3    94  LYS94      -0.1314
    112  N         34.5920   -8.7460   38.0870 N.am   95  TYR95      -0.1976
    113  CA        35.2530   -9.7080   37.2210 C.3    95  TYR95       0.1639
    114  C         36.7000   -9.3340   36.9340 C.2    95  TYR95       0.2290
    115  O         37.0720   -8.1560   36.9230 O.2    95  TYR95      -0.2864
    116  CB        34.5030   -9.8750   35.9280 C.3    95  TYR95       0.0560
    117  CG        33.1620  -10.5040   36.1390 C.ar   95  TYR95      -0.0198
    118  CD1       33.0410  -11.8580   36.4360 C.ar   95  TYR95      -0.0009
    119  CD2       32.0110   -9.7480   36.0260 C.ar   95  TYR95      -0.0009
    120  CE1       31.7980  -12.4300   36.6270 C.ar   95  TYR95       0.0417
    121  CE2       30.7850  -10.3070   36.1960 C.ar   95  TYR95       0.0417
    122  CZ        30.6760  -11.6460   36.5020 C.ar   95  TYR95       0.1957
    123  OH        29.4250  -12.1830   36.6700 O.3    95  TYR95      -0.2866
    124  N         35.7560  -14.6100   37.9910 N.3   122  ARG122     -0.1245
    125  CA        35.0910  -13.9560   39.1040 C.3   122  ARG122      0.1563
    126  C         36.1400  -13.7010   40.1810 C.2   122  ARG122      0.2260
    127  O         36.9290  -14.5980   40.4970 O.2   122  ARG122     -0.2867
    128  CB        33.9600  -14.8580   39.6000 C.3   122  ARG122      0.0307
    129  CG        33.0200  -14.3590   40.6440 C.3   122  ARG122      0.0489
    130  CD        32.3050  -15.5820   41.2410 C.3   122  ARG122      0.2205
    131  NE        31.4310  -16.2950   40.2970 N.pl3 122  ARG122     -0.0865
    132  CZ        31.7460  -17.3970   39.6090 C.cat 122  ARG122      0.5346
    133  NH1       32.9480  -17.9660   39.7030 N.pl3 122  ARG122      0.1354
    134  NH2       30.8410  -17.9340   38.8030 N.pl3 122  ARG122      0.1354
    135  N         34.6810  -18.1320   34.0070 N.3   142  VAL142     -0.1245
    136  CA        33.2390  -17.9670   33.8540 C.3   142  VAL142      0.1561
    137  C         32.8370  -17.9050   32.3880 C.2   142  VAL142      0.2260
    138  O         31.7820  -18.4130   31.9910 O.2   142  VAL142     -0.2867
    139  CB        32.7840  -16.7220   34.6360 C.3   142  VAL142      0.0252
    140  CG1       31.4130  -16.2880   34.1830 C.3   142  VAL142      0.0019
    141  CG2       32.7670  -17.0510   36.1200 C.3   142  VAL142      0.0019
    142  N         30.7990  -20.4970   27.3350 N.3   159  MET159     -0.1230
    143  CA        30.3450  -20.4010   28.7210 C.3   159  MET159      0.1702
    144  C         29.8560  -21.7930   29.1110 C.2   159  MET159      0.2592
    145  O         29.9370  -22.7340   28.3150 O.2   159  MET159     -0.2718
    146  CB        29.2490  -19.3390   28.8710 C.3   159  MET159      0.0401
    147  CG        29.6620  -17.9400   28.4730 C.3   159  MET159      0.0596
    148  SD        28.2910  -16.7870   28.5640 S.3   159  MET159     -0.1393
    149  CE        27.0990  -17.5290   27.4560 C.3   159  MET159      0.0692
    150  N         29.2660  -21.9140   30.3030 N.am  160  ASP160     -0.1960
    151  CA        28.7720  -23.2170   30.7580 C.3   160  ASP160      0.1840
    152  C         27.7430  -23.7960   29.8150 C.2   160  ASP160      0.2622
    153  O         27.6370  -25.0210   29.6970 O.2   160  ASP160     -0.2715
    154  CB        28.1590  -23.1310   32.1600 C.3   160  ASP160      0.1450
    155  CG        29.1080  -23.5870   33.2390 C.2   160  ASP160      0.3671
    156  OD1       30.0160  -24.3980   32.9390 O.co2 160  ASP160     -0.2456
    157  OD2       28.9370  -23.1370   34.3880 O.co2 160  ASP160     -0.2456
    158  N         26.9570  -22.9400   29.1590 N.am  161  CYS161     -0.1968
    159  CA        25.9550  -23.4200   28.2230 C.3   161  CYS161      0.1712
    160  C         26.5530  -24.0080   26.9530 C.2   161  CYS161      0.2296
    161  O         25.8050  -24.5860   26.1550 O.2   161  CYS161     -0.2864
    162  CB        25.0310  -22.2620   27.8440 C.3   161  CYS161      0.0983
    163  SG        25.9080  -20.9020   26.9540 S.3   161  CYS161     -0.0798
@<TRIPOS>BOND
     1     1     2    1
     2    98    97    2
     3     7     5    1
     4    15    14    1
     5    14    13    1
     6    97    96    1
     7   161   160    2
     8     5     2    1
     9     5     6    1
    10     2     3    1
    11    13    12    1
    12    24    22   ar
    13     8     3   am
    14     8     9    1
    15   160   159    1
    16   163   162    1
    17    12     9    1
    18   102   100    1
    19    99    96    1
    20    99   100    1
    21    96    95    1
    22    21    22    1
    23    21    20    1
    24     3     4    2
    25   142   143    1
    26   149   148    1
    27    22    23   ar
    28     9    10    1
    29   162   159    1
    30   100   101    1
    31    10    11    2
    32    16    17    1
    33   159   158    1
    34   145   144    2
    35   147   148    1
    36   147   146    1
    37    20    17    1
    38    91    90    2
    39   143   146    1
    40   143   144    1
    41    94    92    1
    42    17    18    1
    43   144   150   am
    44   158   152   am
    45   153   152    2
    46   152   151    1
    47    90    89    1
    48    38    37    1
    49    89    92    1
    50    89    88    1
    51    93    92    1
    52   150   151    1
    53    18    25   am
    54    18    19    2
    55    25    26    1
    56    83    82    2
    57   151   154    1
    58    35    34    1
    59    35    36    1
    60    37    36    2
    61    37    39    1
    62    88    82   am
    63    34    33    1
    64    82    81    1
    65    33    30    1
    66    26    27    1
    67    29    30    1
    68    29    27   am
    69   138   137    2
    70   154   155    1
    71    85    86    1
    72    85    87    1
    73    85    84    1
    74   137   136    1
    75    30    31    1
    76    27    28    2
    77   156   155   ar
    78    81    84    1
    79    81    80    1
    80    31    32    2
    81    70    69    2
    82   155   157   ar
    83    74    73    2
    84   136   135    1
    85   136   139    1
    86    80    73   am
    87    73    72    1
    88    40    41    1
    89   140   139    1
    90    69    68    1
    91    69    71   am
    92    68    67    1
    93   139   141    1
    94    44    41    1
    95    72    71    1
    96    72    75    1
    97    41    42    1
    98    67    62   am
    99   116   117    1
   100   116   113    1
   101   119   117   ar
   102   119   121   ar
   103    45    42   am
   104    45    46    1
   105   117   118   ar
   106   121   122   ar
   107    42    43    2
   108   118   120   ar
   109    75    76    1
   110   122   120   ar
   111   122   123    1
   112    76    77    1
   113    63    62    2
   114    62    61    1
   115   115   114    2
   116   114   113    1
   117    56    57    1
   118    56    47   am
   119    59    58    2
   120    46    47    1
   121    46    49    1
   122   113   112    1
   123    57    58    1
   124    58    60   am
   125    50    49    1
   126    50    51    1
   127    55    53    1
   128    47    48    2
   129   124   125    1
   130    60    61    1
   131   112   105   am
   132    52    53    2
   133    52    51    1
   134    53    54    1
   135    77    78   ar
   136    77    79   ar
   137    61    64    1
   138    65    64    1
   139   134   132    1
   140   125   128    1
   141   125   126    1
   142    64    66    1
   143   105   106    2
   144   105   104    1
   145   103   104    1
   146   108   109    1
   147   108   107    1
   148   128   129    1
   149   132   133    1
   150   132   131    2
   151   109   110    1
   152   111   110    1
   153   104   107    1
   154   126   127    2
   155   131   130    1
   156   129   130    1
