@<TRIPOS>MOLECULE
tmp/5q06B00.pdb
 167 162 0 0 0
SMALL
GASTEIGER

@<TRIPOS>ATOM
      1  N         24.3870    8.4330   31.0350 N.3     8  PHE8       -0.1227
      2  CA        25.1400    7.5890   30.1040 C.3     8  PHE8        0.1736
      3  C         26.3750    6.9740   30.7690 C.2     8  PHE8        0.2595
      4  O         26.6330    5.7730   30.6280 O.2     8  PHE8       -0.2718
      5  CB        25.5470    8.4310   28.8830 C.3     8  PHE8        0.0547
      6  CG        26.4930    7.7470   27.9110 C.ar    8  PHE8       -0.0202
      7  CD1       26.0280    6.8190   26.9850 C.ar    8  PHE8       -0.0042
      8  CD2       27.8470    8.0860   27.8850 C.ar    8  PHE8       -0.0042
      9  CE1       26.9130    6.1960   26.0640 C.ar    8  PHE8       -0.0003
     10  CE2       28.7440    7.4740   26.9690 C.ar    8  PHE8       -0.0003
     11  CZ        28.2740    6.5280   26.0590 C.ar    8  PHE8       -0.0000
     12  N         27.1110    7.7680   31.5510 N.am    9  VAL9       -0.1966
     13  CA        28.3370    7.2730   32.1670 C.3     9  VAL9        0.1727
     14  C         28.0270    6.2680   33.2700 C.2     9  VAL9        0.2616
     15  O         28.7350    5.2590   33.4250 O.2     9  VAL9       -0.2715
     16  CB        29.1790    8.4530   32.6780 C.3     9  VAL9        0.0290
     17  CG1       30.2370    7.9680   33.6300 C.3     9  VAL9        0.0023
     18  CG2       29.8350    9.1600   31.4760 C.3     9  VAL9        0.0023
     19  N         26.9710    6.5220   34.0510 N.am   10  MET10      -0.1977
     20  CA        26.5420    5.5580   35.0590 C.3    10  MET10       0.1605
     21  C         26.1230    4.2470   34.4130 C.2    10  MET10       0.2287
     22  O         26.4570    3.1640   34.9130 O.2    10  MET10      -0.2864
     23  CB        25.3590    6.0960   35.8610 C.3    10  MET10       0.0413
     24  CG        25.6420    7.0930   36.9440 C.3    10  MET10       0.0598
     25  SD        24.0210    7.5680   37.5930 S.3    10  MET10      -0.1393
     26  CE        24.4150    9.0590   38.4780 C.3    10  MET10       0.0692
     27  N         27.0010    2.8910   31.5620 N.3    12  GLU12      -0.1231
     28  CA        28.1870    2.1760   31.0870 C.3    12  GLU12       0.1699
     29  C         29.0350    1.6500   32.2420 C.2    12  GLU12       0.2593
     30  O         29.6050    0.5570   32.1510 O.2    12  GLU12      -0.2718
     31  CB        29.0390    3.0900   30.2100 C.3    12  GLU12       0.0402
     32  CG        28.4280    3.4090   28.8740 C.3    12  GLU12       0.1161
     33  CD        28.1570    2.1700   28.0610 C.2    12  GLU12       0.3649
     34  OE1       29.1320    1.4290   27.7880 O.co2  12  GLU12      -0.2457
     35  OE2       26.9680    1.9200   27.7330 O.co2  12  GLU12      -0.2457
     36  N         29.1630    2.4280   33.3170 N.am   13  GLY13      -0.1942
     37  CA        29.9620    1.9930   34.4470 C.3    13  GLY13       0.2014
     38  C         29.3750    0.7970   35.1630 C.2    13  GLY13       0.2638
     39  O         30.1100   -0.0400   35.7000 O.2    13  GLY13      -0.2714
     40  N         28.0510    0.7260   35.2280 N.am   14  ARG14      -0.1977
     41  CA        27.4060   -0.4140   35.8580 C.3    14  ARG14       0.1597
     42  C         27.5780   -1.6750   35.0090 C.2    14  ARG14       0.2287
     43  O         27.9050   -2.7400   35.5350 O.2    14  ARG14      -0.2864
     44  CB        25.9370   -0.0630   36.1180 C.3    14  ARG14       0.0334
     45  CG        25.7720    0.9760   37.2480 C.3    14  ARG14       0.0492
     46  CD        24.3130    1.3340   37.4850 C.3    14  ARG14       0.2205
     47  NE        23.5120    0.1910   37.9200 N.pl3  14  ARG14      -0.0865
     48  CZ        22.1810    0.1590   37.9000 C.cat  14  ARG14       0.5346
     49  NH1       21.5040    1.2030   37.4470 N.pl3  14  ARG14       0.1354
     50  NH2       21.5250   -0.9220   38.3140 N.pl3  14  ARG14       0.1354
     51  N         30.0210   -2.3900   33.1770 N.3    16  ALA16      -0.1231
     52  CA        31.4020   -2.8040   33.3530 C.3    16  ALA16       0.1694
     53  C         31.6880   -3.3140   34.7560 C.2    16  ALA16       0.2592
     54  O         32.7340   -3.9410   34.9700 O.2    16  ALA16      -0.2718
     55  CB        32.3360   -1.6350   33.0340 C.3    16  ALA16       0.0304
     56  N         30.7730   -3.0940   35.6950 N.am   17  ARG17      -0.1966
     57  CA        30.9160   -3.5430   37.0800 C.3    17  ARG17       0.1729
     58  C         32.1290   -2.9010   37.7540 C.2    17  ARG17       0.2617
     59  O         32.8150   -3.5320   38.5590 O.2    17  ARG17      -0.2715
     60  CB        31.0050   -5.0710   37.1580 C.3    17  ARG17       0.0348
     61  CG        29.7550   -5.8010   36.7220 C.3    17  ARG17       0.0492
     62  CD        29.9770   -7.3160   36.7450 C.3    17  ARG17       0.2205
     63  NE        31.1250   -7.7080   35.9230 N.pl3  17  ARG17      -0.0865
     64  CZ        31.0680   -8.0280   34.6300 C.cat  17  ARG17       0.5346
     65  NH1       29.9080   -8.0090   33.9820 N.pl3  17  ARG17       0.1354
     66  NH2       32.1800   -8.3650   33.9790 N.pl3  17  ARG17       0.1354
     67  N         32.3700   -1.6140   37.4700 N.am   18  GLY18      -0.1940
     68  CA        33.4630   -0.9180   38.1160 C.3    18  GLY18       0.2014
     69  C         33.0770   -0.4560   39.4940 C.2    18  GLY18       0.2640
     70  O         31.9260   -0.5560   39.9010 O.2    18  GLY18      -0.2714
     71  N         34.0540    0.0690   40.2310 N.am   19  THR19      -0.1936
     72  CA        33.7430    0.4810   41.5980 C.3    19  THR19       0.2028
     73  C         32.8730    1.7310   41.6500 C.2    19  THR19       0.2643
     74  O         32.2260    1.9680   42.6740 O.2    19  THR19      -0.2714
     75  CB        35.0200    0.7460   42.4150 C.3    19  THR19       0.1808
     76  OG1       35.6930    1.9050   41.9080 O.3    19  THR19      -0.2208
     77  CG2       35.9660   -0.4630   42.4110 C.3    19  THR19       0.0379
     78  N         32.8100    2.5130   40.5630 N.am   20  GLY20      -0.1939
     79  CA        32.1340    3.8040   40.5700 C.3    20  GLY20       0.2014
     80  C         33.0360    5.0230   40.6170 C.2    20  GLY20       0.2639
     81  O         32.5540    6.1440   40.3690 O.2    20  GLY20      -0.2714
     82  N         34.3380    4.8250   40.8620 N.am   21  GLU21      -0.1963
     83  CA        35.2490    5.9360   41.0740 C.3    21  GLU21       0.1733
     84  C         35.3670    6.7910   39.8250 C.2    21  GLU21       0.2616
     85  O         35.3460    8.0210   39.9100 O.2    21  GLU21      -0.2715
     86  CB        36.6110    5.3950   41.4890 C.3    21  GLU21       0.0429
     87  CG        37.4900    6.3430   42.2470 C.3    21  GLU21       0.1163
     88  CD        38.6250    5.6120   42.9260 C.2    21  GLU21       0.3649
     89  OE1       39.7700    6.1070   42.8890 O.co2  21  GLU21      -0.2457
     90  OE2       38.3700    4.5160   43.4700 O.co2  21  GLU21      -0.2457
     91  N         35.4670    6.1580   38.6510 N.am   22  LEU22      -0.1963
     92  CA        35.5920    6.9220   37.4090 C.3    22  LEU22       0.1728
     93  C         34.3500    7.7690   37.1480 C.2    22  LEU22       0.2616
     94  O         34.4520    8.9030   36.6680 O.2    22  LEU22      -0.2715
     95  CB        35.8410    5.9820   36.2280 C.3    22  LEU22       0.0311
     96  CG        36.0270    6.6960   34.8890 C.3    22  LEU22       0.0022
     97  CD1       37.2390    7.6420   34.9330 C.3    22  LEU22       0.0001
     98  CD2       36.1520    5.7010   33.7520 C.3    22  LEU22       0.0001
     99  N         33.1630    7.2260   37.4440 N.am   23  THR23      -0.1951
    100  CA        31.9430    8.0100   37.2970 C.3    23  THR23       0.1897
    101  C         31.9830    9.2420   38.2060 C.2    23  THR23       0.2313
    102  O         31.6330   10.3490   37.7800 O.2    23  THR23      -0.2863
    103  CB        30.7170    7.1250   37.5890 C.3    23  THR23       0.1794
    104  OG1       30.5020    6.1990   36.5120 O.3    23  THR23      -0.2208
    105  CG2       29.4710    7.9570   37.7130 C.3    23  THR23       0.0378
    106  N         42.4160    6.7010   42.7300 N.3    94  LYS94      -0.1231
    107  CA        43.3780    5.9510   41.9330 C.3    94  LYS94       0.1693
    108  C         43.7030    6.5710   40.5720 C.2    94  LYS94       0.2592
    109  O         44.5130    6.0020   39.8320 O.2    94  LYS94      -0.2718
    110  CB        42.8910    4.4910   41.7850 C.3    94  LYS94       0.0285
    111  CG        41.5530    4.2610   41.0730 C.3    94  LYS94       0.0035
    112  CD        41.2610    2.7510   40.9860 C.3    94  LYS94       0.0206
    113  CE        39.8550    2.4150   40.4780 C.3    94  LYS94       0.1093
    114  NZ        38.9250    2.0400   41.5800 N.3    94  LYS94      -0.1314
    115  N         43.1160    7.7100   40.2160 N.am   95  TYR95      -0.1976
    116  CA        43.2450    8.2460   38.8670 C.3    95  TYR95       0.1639
    117  C         44.1410    9.4760   38.8230 C.2    95  TYR95       0.2290
    118  O         44.1780   10.2660   39.7660 O.2    95  TYR95      -0.2864
    119  CB        41.8770    8.5990   38.2830 C.3    95  TYR95       0.0560
    120  CG        41.0430    7.3760   37.9710 C.ar   95  TYR95      -0.0198
    121  CD1       41.3320    6.5800   36.8770 C.ar   95  TYR95      -0.0009
    122  CD2       39.9830    7.0070   38.7960 C.ar   95  TYR95      -0.0009
    123  CE1       40.5730    5.4660   36.5810 C.ar   95  TYR95       0.0417
    124  CE2       39.2250    5.9090   38.5260 C.ar   95  TYR95       0.0417
    125  CZ        39.5240    5.1300   37.4100 C.ar   95  TYR95       0.1957
    126  OH        38.7710    4.0100   37.1380 O.3    95  TYR95      -0.2866
    127  N         44.9970    5.7840   34.9470 N.3   122  ARG122     -0.1245
    128  CA        44.9390    5.0850   36.2300 C.3   122  ARG122      0.1563
    129  C         46.3550    4.9810   36.7830 C.2   122  ARG122      0.2260
    130  O         47.2940    4.7440   36.0190 O.2   122  ARG122     -0.2867
    131  CB        44.2860    3.7020   36.1090 C.3   122  ARG122      0.0307
    132  CG        44.2040    2.9550   37.4550 C.3   122  ARG122      0.0489
    133  CD        43.3250    1.6820   37.4560 C.3   122  ARG122      0.2205
    134  NE        41.9390    1.9130   37.0480 N.pl3 122  ARG122     -0.0865
    135  CZ        41.4800    1.7380   35.8060 C.cat 122  ARG122      0.5346
    136  NH1       42.3040    1.3290   34.8460 N.pl3 122  ARG122      0.1354
    137  NH2       40.2000    1.9710   35.5140 N.pl3 122  ARG122      0.1354
    138  N         33.6730   13.4230   24.7380 N.3   157  LEU157     -0.1245
    139  CA        34.2930   12.4610   25.6580 C.3   157  LEU157      0.1561
    140  C         34.7100   11.2110   24.8950 C.2   157  LEU157      0.2260
    141  O         33.8760   10.5410   24.2800 O.2   157  LEU157     -0.2867
    142  CB        33.3530   12.0580   26.7910 C.3   157  LEU157      0.0270
    143  CG        33.8220   10.9680   27.7720 C.3   157  LEU157      0.0019
    144  CD1       34.9550   11.4660   28.6300 C.3   157  LEU157      0.0001
    145  CD2       32.6640   10.4770   28.6360 C.3   157  LEU157      0.0001
    146  N         36.3180    7.4530   25.1410 N.3   159  MET159     -0.1230
    147  CA        36.7110    6.3130   25.9600 C.3   159  MET159      0.1702
    148  C         36.8860    5.1240   25.0380 C.2   159  MET159      0.2592
    149  O         36.7260    5.2340   23.8190 O.2   159  MET159     -0.2718
    150  CB        35.7180    6.0280   27.0960 C.3   159  MET159      0.0401
    151  CG        35.7960    7.0870   28.1780 C.3   159  MET159      0.0596
    152  SD        34.7380    6.8250   29.5960 S.3   159  MET159     -0.1393
    153  CE        35.5040    5.3560   30.2740 C.3   159  MET159      0.0692
    154  N         37.2070    3.9710   25.6250 N.am  160  ASP160     -0.1960
    155  CA        37.4840    2.7980   24.8020 C.3   160  ASP160      0.1840
    156  C         36.2700    2.4020   23.9710 C.2   160  ASP160      0.2622
    157  O         36.4230    1.8730   22.8690 O.2   160  ASP160     -0.2715
    158  CB        37.9700    1.6400   25.6670 C.3   160  ASP160      0.1450
    159  CG        39.0900    0.8660   25.0030 C.2   160  ASP160      0.3671
    160  OD1       40.0940    1.5070   24.6120 O.co2 160  ASP160     -0.2456
    161  OD2       38.9790   -0.3720   24.8760 O.co2 160  ASP160     -0.2456
    162  N         35.0630    2.6580   24.4790 N.am  161  CYS161     -0.1968
    163  CA        33.8430    2.4110   23.7240 C.3   161  CYS161      0.1712
    164  C         33.6580    3.3880   22.5590 C.2   161  CYS161      0.2296
    165  O         32.6880    3.2380   21.8040 O.2   161  CYS161     -0.2864
    166  CB        32.6260    2.4980   24.6390 C.3   161  CYS161      0.0983
    167  SG        32.1790    4.1820   25.1440 S.3   161  CYS161     -0.0798
@<TRIPOS>BOND
     1   165   164    2
     2   164   163    1
     3   157   156    2
     4   163   162    1
     5   163   166    1
     6   149   148    2
     7   156   162   am
     8   156   155    1
     9   141   140    2
    10   160   159   ar
    11   166   167    1
    12   138   139    1
    13   155   154    1
    14   155   158    1
    15   161   159   ar
    16   140   139    1
    17   159   158    1
    18   148   154   am
    19   148   147    1
    20   146   147    1
    21   139   142    1
    22   147   150    1
    23    11     9   ar
    24    11    10   ar
    25     9     7   ar
    26   142   143    1
    27    10     8   ar
    28     7     6   ar
    29   150   151    1
    30    35    33   ar
    31   143   144    1
    32   143   145    1
    33    34    33   ar
    34     8     6   ar
    35     6     5    1
    36    33    32    1
    37   151   152    1
    38    32    31    1
    39     5     2    1
    40   152   153    1
    41     2     3    1
    42     2     1    1
    43    31    28    1
    44     4     3    2
    45     3    12   am
    46    28    27    1
    47    28    29    1
    48    18    16    1
    49    12    13    1
    50    30    29    2
    51    13    16    1
    52    13    14    1
    53    29    36   am
    54    16    17    1
    55    55    52    1
    56    51    52    1
    57    14    15    2
    58    14    19   am
    59    36    37    1
    60    52    53    1
    61    98    96    1
    62    66    64    1
    63    65    64    1
    64    19    20    1
    65    21    22    2
    66    21    20    1
    67    37    38    1
    68    64    63    2
    69    53    54    2
    70    53    56   am
    71   136   135    1
    72    96    97    1
    73    96    95    1
    74   127   128    1
    75    42    43    2
    76    42    41    1
    77    20    23    1
    78    38    40   am
    79    38    39    2
    80    40    41    1
    81   137   135    1
    82    56    57    1
    83   135   134    2
    84    41    44    1
    85    23    24    1
    86    63    62    1
    87   130   129    2
    88   131   128    1
    89   131   132    1
    90    44    45    1
    91    95    92    1
    92   128   129    1
    93   104   103    1
    94   123   121   ar
    95   123   125   ar
    96    94    93    2
    97    61    62    1
    98    61    60    1
    99   121   120   ar
   100    24    25    1
   101   134   133    1
   102    57    60    1
   103    57    58    1
   104   126   125    1
   105    93    92    1
   106    93    99   am
   107    45    46    1
   108   100    99    1
   109   100   103    1
   110   100   101    1
   111    92    91    1
   112   125   124   ar
   113    49    48    1
   114   132   133    1
   115    67    58   am
   116    67    68    1
   117    46    47    1
   118   103   105    1
   119    25    26    1
   120    58    59    2
   121   102   101    2
   122    48    47    2
   123    48    50    1
   124   120   119    1
   125   120   122   ar
   126    68    69    1
   127   119   116    1
   128   124   122   ar
   129    91    84   am
   130   117   116    1
   131   117   118    2
   132   116   115    1
   133    69    70    2
   134    69    71   am
   135    84    85    2
   136    84    83    1
   137   109   108    2
   138   115   108   am
   139    71    72    1
   140    81    80    2
   141   113   112    1
   142   113   114    1
   143    78    79    1
   144    78    73   am
   145    79    80    1
   146   108   107    1
   147    80    82   am
   148    82    83    1
   149   112   111    1
   150   111   110    1
   151    83    86    1
   152    86    87    1
   153    72    73    1
   154    72    75    1
   155    73    74    2
   156   110   107    1
   157    76    75    1
   158   107   106    1
   159    87    88    1
   160    77    75    1
   161    89    88   ar
   162    88    90   ar
