@<TRIPOS>MOLECULE
tmp/5q07E00.pdb
 154 146 0 0 0
SMALL
GASTEIGER

@<TRIPOS>ATOM
      1  N         -8.4610   58.2070   53.3670 N.3     9  VAL9       -0.1231
      2  CA        -7.6860   57.0790   53.8870 C.3     9  VAL9        0.1692
      3  C         -6.9730   57.4810   55.1710 C.2     9  VAL9        0.2591
      4  O         -7.0380   56.7760   56.1850 O.2     9  VAL9       -0.2718
      5  CB        -6.6870   56.5720   52.8270 C.3     9  VAL9        0.0266
      6  CG1       -5.7240   55.5870   53.4360 C.3     9  VAL9        0.0020
      7  CG2       -7.4120   55.9070   51.6760 C.3     9  VAL9        0.0020
      8  N         -6.3230   58.6470   55.1590 N.am   10  MET10      -0.1979
      9  CA        -5.5900   59.1140   56.3360 C.3    10  MET10       0.1605
     10  C         -6.5070   59.2990   57.5380 C.2    10  MET10       0.2287
     11  O         -6.1110   59.0060   58.6680 O.2    10  MET10      -0.2864
     12  CB        -4.8850   60.4310   56.0350 C.3    10  MET10       0.0413
     13  CG        -3.3810   60.3910   56.0320 C.3    10  MET10       0.0598
     14  SD        -2.8150   62.0990   56.0050 S.3    10  MET10      -0.1393
     15  CE        -3.1860   62.5730   54.3130 C.3    10  MET10       0.0692
     16  N         -9.5740   57.8090   58.1830 N.3    12  GLU12      -0.1231
     17  CA        -9.9840   56.5250   58.7410 C.3    12  GLU12       0.1699
     18  C         -8.8140   55.8580   59.4510 C.2    12  GLU12       0.2593
     19  O         -8.9920   55.2290   60.5010 O.2    12  GLU12      -0.2718
     20  CB       -10.5500   55.6170   57.6470 C.3    12  GLU12       0.0402
     21  CG       -11.8630   56.1260   57.1140 C.3    12  GLU12       0.1161
     22  CD       -12.9280   56.2290   58.1860 C.2    12  GLU12       0.3649
     23  OE1      -13.2830   55.1940   58.7960 O.co2  12  GLU12      -0.2457
     24  OE2      -13.3680   57.3680   58.4620 O.co2  12  GLU12      -0.2457
     25  N         -7.6060   56.0100   58.8990 N.am   13  GLY13      -0.1942
     26  CA        -6.4180   55.4450   59.5170 C.3    13  GLY13       0.2014
     27  C         -6.0430   56.0840   60.8380 C.2    13  GLY13       0.2638
     28  O         -5.5120   55.4050   61.7220 O.2    13  GLY13      -0.2714
     29  N         -6.2780   57.3950   60.9790 N.am   14  ARG14      -0.1977
     30  CA        -6.0060   58.0760   62.2400 C.3    14  ARG14       0.1597
     31  C         -6.9900   57.6400   63.3170 C.2    14  ARG14       0.2287
     32  O         -6.5960   57.3800   64.4620 O.2    14  ARG14      -0.2864
     33  CB        -6.0700   59.5930   62.0540 C.3    14  ARG14       0.0334
     34  CG        -4.8490   60.1800   61.3830 C.3    14  ARG14       0.0492
     35  CD        -4.8720   61.6910   61.3390 C.3    14  ARG14       0.2205
     36  NE        -4.9140   62.2710   62.6750 N.pl3  14  ARG14      -0.0865
     37  CZ        -4.8930   63.5770   62.9100 C.cat  14  ARG14       0.5346
     38  NH1       -4.8380   64.4280   61.8950 N.pl3  14  ARG14       0.1354
     39  NH2       -4.9280   64.0320   64.1550 N.pl3  14  ARG14       0.1354
     40  N         -8.4020   54.8330   63.6370 N.3    16  ALA16      -0.1231
     41  CA        -8.0160   53.4840   64.0210 C.3    16  ALA16       0.1694
     42  C         -6.6800   53.3970   64.7490 C.2    16  ALA16       0.2592
     43  O         -6.4590   52.4240   65.4800 O.2    16  ALA16      -0.2718
     44  CB        -7.9650   52.6100   62.7670 C.3    16  ALA16       0.0304
     45  N         -5.7990   54.3790   64.5890 N.am   17  ARG17      -0.1966
     46  CA        -4.5120   54.3940   65.2910 C.3    17  ARG17       0.1729
     47  C         -3.6780   53.1600   64.9590 C.2    17  ARG17       0.2617
     48  O         -3.0220   52.5840   65.8320 O.2    17  ARG17      -0.2715
     49  CB        -4.6890   54.5100   66.8060 C.3    17  ARG17       0.0348
     50  CG        -5.2910   55.8060   67.3080 C.3    17  ARG17       0.0492
     51  CD        -5.2120   55.8440   68.8340 C.3    17  ARG17       0.2205
     52  NE        -5.6910   57.1010   69.4010 N.pl3  17  ARG17      -0.0865
     53  CZ        -4.9020   58.0850   69.8270 C.cat  17  ARG17       0.5346
     54  NH1       -3.5810   57.9640   69.7530 N.pl3  17  ARG17       0.1354
     55  NH2       -5.4360   59.1900   70.3320 N.pl3  17  ARG17       0.1354
     56  N         -3.7240   52.7330   63.7000 N.am   18  GLY18      -0.1940
     57  CA        -2.9360   51.6090   63.2400 C.3    18  GLY18       0.2014
     58  C         -1.4870   51.9880   62.9890 C.2    18  GLY18       0.2640
     59  O         -1.0430   53.0940   63.2770 O.2    18  GLY18      -0.2714
     60  N         -0.7340   51.0320   62.4460 N.am   19  THR19      -0.1936
     61  CA         0.6780   51.2750   62.1790 C.3    19  THR19       0.2028
     62  C          0.8960   52.2450   61.0320 C.2    19  THR19       0.2642
     63  O          2.0040   52.7710   60.8810 O.2    19  THR19      -0.2714
     64  CB         1.3980   49.9690   61.8390 C.3    19  THR19       0.1808
     65  OG1        0.8230   49.4090   60.6540 O.3    19  THR19      -0.2208
     66  CG2        1.3690   48.9600   62.9940 C.3    19  THR19       0.0379
     67  N         -0.1260   52.4980   60.2230 N.am   20  GLY20      -0.1954
     68  CA         0.0500   53.3110   59.0500 C.3    20  GLY20       0.1869
     69  C          0.4080   52.5260   57.8150 C.2    20  GLY20       0.2309
     70  O          0.4930   53.1120   56.7330 O.2    20  GLY20      -0.2863
     71  N         -1.3380   50.2660   56.2610 N.3    22  LEU22      -0.1231
     72  CA        -2.4620   50.1730   55.3380 C.3    22  LEU22       0.1693
     73  C         -2.6410   51.4710   54.5540 C.2    22  LEU22       0.2592
     74  O         -3.0190   51.4350   53.3760 O.2    22  LEU22      -0.2718
     75  CB        -3.7470   49.8000   56.0870 C.3    22  LEU22       0.0284
     76  CG        -4.9440   49.5840   55.1430 C.3    22  LEU22       0.0019
     77  CD1       -4.5740   48.5560   54.0890 C.3    22  LEU22       0.0001
     78  CD2       -6.2010   49.1380   55.8760 C.3    22  LEU22       0.0001
     79  N         -2.3700   52.6200   55.1750 N.am   23  THR23      -0.1953
     80  CA        -2.4690   53.8760   54.4440 C.3    23  THR23       0.1897
     81  C         -1.3910   53.9680   53.3690 C.2    23  THR23       0.2313
     82  O         -1.6710   54.3750   52.2350 O.2    23  THR23      -0.2863
     83  CB        -2.4060   55.0550   55.4100 C.3    23  THR23       0.1794
     84  OG1       -3.5580   55.0120   56.2560 O.3    23  THR23      -0.2208
     85  CG2       -2.4540   56.3490   54.6480 C.3    23  THR23       0.0378
     86  N         -2.7240   51.8130   50.4440 N.3    26  LEU26      -0.1245
     87  CA        -3.7870   52.3820   49.6160 C.3    26  LEU26       0.1561
     88  C         -3.2890   53.5510   48.7670 C.2    26  LEU26       0.2260
     89  O         -3.6960   53.7020   47.6080 O.2    26  LEU26      -0.2867
     90  CB        -4.9590   52.7910   50.5080 C.3    26  LEU26       0.0270
     91  CG        -5.6480   51.5270   51.0290 C.3    26  LEU26       0.0019
     92  CD1       -6.7300   51.8170   52.0550 C.3    26  LEU26       0.0001
     93  CD2       -6.1940   50.7260   49.8750 C.3    26  LEU26       0.0001
     94  N          3.1730   43.8910   56.4560 N.3    96  LYS96      -0.1231
     95  CA         2.3260   42.8540   57.0390 C.3    96  LYS96       0.1693
     96  C          1.0860   42.5080   56.2160 C.2    96  LYS96       0.2592
     97  O          0.2280   41.7680   56.7110 O.2    96  LYS96      -0.2718
     98  CB         1.8910   43.2510   58.4570 C.3    96  LYS96       0.0285
     99  CG         0.9030   44.4190   58.5440 C.3    96  LYS96       0.0035
    100  CD         0.5490   44.7390   60.0030 C.3    96  LYS96       0.0206
    101  CE        -0.4430   45.8930   60.1310 C.3    96  LYS96       0.1093
    102  NZ        -0.9100   46.0600   61.5330 N.3    96  LYS96      -0.1314
    103  N          0.9540   43.0100   54.9890 N.am   97  TYR97      -0.1976
    104  CA        -0.2890   42.8470   54.2440 C.3    97  TYR97       0.1639
    105  C         -0.1450   41.9200   53.0450 C.2    97  TYR97       0.2290
    106  O          0.9340   41.7710   52.4660 O.2    97  TYR97      -0.2864
    107  CB        -0.8410   44.2040   53.8180 C.3    97  TYR97       0.0560
    108  CG        -1.4870   44.8920   54.9890 C.ar   97  TYR97      -0.0198
    109  CD1       -2.7490   44.5110   55.4130 C.ar   97  TYR97      -0.0009
    110  CD2       -0.8040   45.8470   55.7320 C.ar   97  TYR97      -0.0009
    111  CE1       -3.3510   45.1070   56.5030 C.ar   97  TYR97       0.0417
    112  CE2       -1.3950   46.4460   56.8310 C.ar   97  TYR97       0.0417
    113  CZ        -2.6750   46.0690   57.2120 C.ar   97  TYR97       0.1957
    114  OH        -3.2850   46.6410   58.3040 O.3    97  TYR97      -0.2866
    115  N         -4.5810   40.7660   55.8620 N.3   124  ARG124     -0.1245
    116  CA        -3.5140   40.8270   56.8480 C.3   124  ARG124      0.1563
    117  C         -2.8750   39.4530   56.9520 C.2   124  ARG124      0.2260
    118  O         -3.5770   38.4510   57.1190 O.2   124  ARG124     -0.2867
    119  CB        -4.0850   41.2590   58.2030 C.3   124  ARG124      0.0307
    120  CG        -3.3080   42.3670   58.8970 C.3   124  ARG124      0.0489
    121  CD        -4.2290   43.3680   59.5880 C.3   124  ARG124      0.2205
    122  NE        -3.9490   43.4600   61.0220 N.pl3 124  ARG124     -0.0865
    123  CZ        -4.4710   44.3780   61.8310 C.cat 124  ARG124      0.5346
    124  NH1       -5.3030   45.2950   61.3500 N.pl3 124  ARG124      0.1354
    125  NH2       -4.1570   44.3800   63.1190 N.pl3 124  ARG124      0.1354
    126  N         -9.4190   42.9680   54.8690 N.3   144  VAL144     -0.1245
    127  CA        -9.4290   44.2220   55.6090 C.3   144  VAL144      0.1561
    128  C        -10.0190   45.3350   54.7620 C.2   144  VAL144      0.2260
    129  O        -10.8260   46.1350   55.2500 O.2   144  VAL144     -0.2867
    130  CB        -8.0060   44.5680   56.0770 C.3   144  VAL144      0.0252
    131  CG1       -7.9990   45.9000   56.8080 C.3   144  VAL144      0.0019
    132  CG2       -7.4660   43.4750   56.9700 C.3   144  VAL144      0.0019
    133  N        -14.2380   49.0520   53.0440 N.3   161  MET161     -0.1230
    134  CA       -13.5220   48.6920   54.2570 C.3   161  MET161      0.1702
    135  C        -14.5740   48.3960   55.3060 C.2   161  MET161      0.2592
    136  O        -15.7650   48.3000   54.9950 O.2   161  MET161     -0.2718
    137  CB       -12.5840   49.8080   54.7270 C.3   161  MET161      0.0401
    138  CG       -11.5250   50.2020   53.7370 C.3   161  MET161      0.0596
    139  SD       -10.4790   51.4600   54.4490 S.3   161  MET161     -0.1393
    140  CE       -11.7060   52.6540   54.9670 C.3   161  MET161      0.0692
    141  N        -14.1360   48.2640   56.5610 N.am  162  ASP162     -0.1960
    142  CA       -15.0930   48.0060   57.6310 C.3   162  ASP162      0.1840
    143  C        -16.1210   49.1190   57.7230 C.2   162  ASP162      0.2622
    144  O        -17.2900   48.8610   58.0170 O.2   162  ASP162     -0.2715
    145  CB       -14.3650   47.8520   58.9720 C.3   162  ASP162      0.1450
    146  CG       -15.0990   46.9230   59.9440 C.2   162  ASP162      0.3671
    147  OD1      -16.2080   46.4430   59.6140 O.co2 162  ASP162     -0.2456
    148  OD2      -14.5730   46.6930   61.0550 O.co2 162  ASP162     -0.2456
    149  N        -15.7190   50.3530   57.4240 N.am  163  CYS163     -0.1968
    150  CA       -16.6180   51.4900   57.5380 C.3   163  CYS163      0.1712
    151  C        -17.6760   51.5400   56.4480 C.2   163  CYS163      0.2296
    152  O        -18.6030   52.3470   56.5590 O.2   163  CYS163     -0.2864
    153  CB       -15.8150   52.7840   57.4880 C.3   163  CYS163      0.0983
    154  SG       -15.0850   53.0290   55.8830 S.3   163  CYS163     -0.0798
@<TRIPOS>BOND
     1    89    88    2
     2    88    87    1
     3    87    86    1
     4    87    90    1
     5    93    91    1
     6    90    91    1
     7    91    92    1
     8     7     5    1
     9    82    81    2
    10   106   105    2
    11     5     6    1
    12     5     2    1
    13   133   134    1
    14   105   104    1
    15     1     2    1
    16    81    80    1
    17    74    73    2
    18   138   139    1
    19   138   137    1
    20   107   104    1
    21   107   108    1
    22     2     3    1
    23    77    76    1
    24   104   103    1
    25   134   137    1
    26   134   135    1
    27    15    14    1
    28    80    79    1
    29    80    83    1
    30   139   140    1
    31    73    79   am
    32    73    72    1
    33    85    83    1
    34   128   129    2
    35   128   127    1
    36   126   127    1
    37   103    96   am
    38   108   109   ar
    39   108   110   ar
    40   136   135    2
    41    76    78    1
    42    76    75    1
    43     8     3   am
    44     8     9    1
    45     3     4    2
    46   135   141   am
    47    72    75    1
    48    72    71    1
    49    83    84    1
    50   109   111   ar
    51   127   130    1
    52   110   112   ar
    53   115   116    1
    54   154   153    1
    55    14    13    1
    56    13    12    1
    57    12     9    1
    58   130   131    1
    59   130   132    1
    60    96    97    2
    61    96    95    1
    62     9    10    1
    63   151   152    2
    64   151   150    1
    65    94    95    1
    66   111   113   ar
    67   141   142    1
    68    70    69    2
    69   112   113   ar
    70   116   117    1
    71   116   119    1
    72   117   118    2
    73    95    98    1
    74    21    20    1
    75    21    22    1
    76   113   114    1
    77   149   150    1
    78   149   143   am
    79   153   150    1
    80    10    11    2
    81   142   143    1
    82   142   145    1
    83    20    17    1
    84   143   144    2
    85    69    68    1
    86    16    17    1
    87    22    24   ar
    88    22    23   ar
    89   119   120    1
    90    98    99    1
    91    99   100    1
    92    17    18    1
    93   120   121    1
    94    25    18   am
    95    25    26    1
    96   145   146    1
    97    68    67    1
    98    18    19    2
    99    26    27    1
   100   121   122    1
   101   147   146   ar
   102   146   148   ar
   103   100   101    1
   104   101   102    1
   105    67    62   am
   106    65    64    1
   107    27    29   am
   108    27    28    2
   109    63    62    2
   110    29    30    1
   111   122   123    2
   112    62    61    1
   113    35    34    1
   114    35    36    1
   115   124   123    1
   116    34    33    1
   117   123   125    1
   118    64    61    1
   119    64    66    1
   120    38    37    1
   121    33    30    1
   122    61    60    1
   123    30    31    1
   124    60    58   am
   125    36    37    2
   126    44    41    1
   127    37    39    1
   128    58    57    1
   129    58    59    2
   130    57    56    1
   131    31    32    2
   132    40    41    1
   133    56    47   am
   134    41    42    1
   135    45    42   am
   136    45    46    1
   137    42    43    2
   138    47    46    1
   139    47    48    2
   140    46    49    1
   141    49    50    1
   142    50    51    1
   143    51    52    1
   144    52    53    2
   145    54    53    1
   146    53    55    1
