@<TRIPOS>MOLECULE
tmp/5q08C01.pdb
 114 109 0 0 0
SMALL
GASTEIGER

@<TRIPOS>ATOM
      1  N         46.5410    3.4980  -12.8480 N.3     9  VAL9       -0.1231
      2  CA        46.4760    2.8340  -14.1460 C.3     9  VAL9        0.1692
      3  C         46.2420    3.8520  -15.2630 C.2     9  VAL9        0.2591
      4  O         46.8960    3.7940  -16.3100 O.2     9  VAL9       -0.2718
      5  CB        45.4020    1.7300  -14.1210 C.3     9  VAL9        0.0266
      6  CG1       45.1860    1.1790  -15.4890 C.3     9  VAL9        0.0020
      7  CG2       45.8460    0.5790  -13.1930 C.3     9  VAL9        0.0020
      8  N         45.3610    4.8360  -15.0330 N.am   10  MET10      -0.1979
      9  CA        45.1420    5.8880  -16.0270 C.3    10  MET10       0.1605
     10  C         46.4230    6.6630  -16.3060 C.2    10  MET10       0.2287
     11  O         46.7370    6.9630  -17.4630 O.2    10  MET10      -0.2864
     12  CB        44.0690    6.8700  -15.5600 C.3    10  MET10       0.0413
     13  CG        42.6500    6.3800  -15.5780 C.3    10  MET10       0.0598
     14  SD        41.6770    7.8050  -15.0760 S.3    10  MET10      -0.1393
     15  CE        40.0830    7.1000  -14.7210 C.3    10  MET10       0.0692
     16  N         49.5880    5.5860  -15.9250 N.3    12  GLU12      -0.1231
     17  CA        50.4420    4.7100  -16.7220 C.3    12  GLU12       0.1699
     18  C         49.9250    4.5860  -18.1470 C.2    12  GLU12       0.2593
     19  O         50.7050    4.6480  -19.1010 O.2    12  GLU12      -0.2718
     20  CB        50.5490    3.3220  -16.0840 C.3    12  GLU12       0.0402
     21  CG        51.3440    3.2590  -14.8010 C.3    12  GLU12       0.1161
     22  CD        52.8120    3.5620  -15.0510 C.2    12  GLU12       0.3649
     23  OE1       53.3900    2.9800  -15.9930 O.co2  12  GLU12      -0.2457
     24  OE2       53.3900    4.3810  -14.3090 O.co2  12  GLU12      -0.2457
     25  N         48.6080    4.4480  -18.3090 N.am   13  GLY13      -0.1942
     26  CA        48.0390    4.2890  -19.6390 C.3    13  GLY13       0.2014
     27  C         48.2250    5.5130  -20.5150 C.2    13  GLY13       0.2638
     28  O         48.4710    5.3930  -21.7200 O.2    13  GLY13      -0.2714
     29  N         48.0920    6.7080  -19.9280 N.am   14  ARG14      -0.1977
     30  CA        48.2640    7.9420  -20.6940 C.3    14  ARG14       0.1597
     31  C         49.7200    8.1750  -21.0740 C.2    14  ARG14       0.2287
     32  O         50.0020    8.5200  -22.2290 O.2    14  ARG14      -0.2864
     33  CB        47.7020    9.1340  -19.9210 C.3    14  ARG14       0.0334
     34  CG        46.1940    9.2090  -19.9170 C.3    14  ARG14       0.0492
     35  CD        45.7370   10.5620  -19.3570 C.3    14  ARG14       0.2205
     36  NE        46.1880   11.6840  -20.1800 N.pl3  14  ARG14      -0.0865
     37  CZ        46.2300   12.9460  -19.7660 C.cat  14  ARG14       0.5346
     38  NH1       45.8530   13.2540  -18.5350 N.pl3  14  ARG14       0.1354
     39  NH2       46.6590   13.9010  -20.5770 N.pl3  14  ARG14       0.1354
     40  N         51.9120    5.9030  -21.7690 N.3    16  ALA16      -0.1231
     41  CA        52.1730    5.0280  -22.9140 C.3    16  ALA16       0.1694
     42  C         51.2490    5.2950  -24.0930 C.2    16  ALA16       0.2592
     43  O         51.3940    4.6330  -25.1260 O.2    16  ALA16      -0.2718
     44  CB        52.0480    3.5580  -22.5130 C.3    16  ALA16       0.0304
     45  N         50.2980    6.2240  -23.9540 N.am   17  ARG17      -0.1966
     46  CA        49.3750    6.5880  -25.0280 C.3    17  ARG17       0.1729
     47  C         48.5730    5.3850  -25.5150 C.2    17  ARG17       0.2617
     48  O         48.2710    5.2630  -26.7040 O.2    17  ARG17      -0.2715
     49  CB        50.0990    7.2490  -26.2060 C.3    17  ARG17       0.0348
     50  CG        50.7660    8.5820  -25.9220 C.3    17  ARG17       0.0492
     51  CD        51.4880    9.0690  -27.1820 C.3    17  ARG17       0.2205
     52  NE        52.1940   10.3360  -27.0010 N.pl3  17  ARG17      -0.0865
     53  CZ        51.6620   11.5290  -27.2530 C.cat  17  ARG17       0.5346
     54  NH1       50.4140   11.6210  -27.6940 N.pl3  17  ARG17       0.1354
     55  NH2       52.3800   12.6300  -27.0680 N.pl3  17  ARG17       0.1354
     56  N         48.2220    4.4920  -24.5960 N.am   18  GLY18      -0.1940
     57  CA        47.3570    3.3860  -24.9410 C.3    18  GLY18       0.2014
     58  C         45.9370    3.8460  -25.2100 C.2    18  GLY18       0.2640
     59  O         45.5500    4.9750  -24.9220 O.2    18  GLY18      -0.2714
     60  N         45.1300    2.9330  -25.7530 N.am   19  THR19      -0.1936
     61  CA        43.7590    3.2720  -26.1240 C.3    19  THR19       0.2028
     62  C         42.8130    3.4080  -24.9350 C.2    19  THR19       0.2642
     63  O         41.7340    3.9850  -25.0940 O.2    19  THR19      -0.2714
     64  CB        43.1770    2.2110  -27.0450 C.3    19  THR19       0.1808
     65  OG1       43.1160    0.9740  -26.3180 O.3    19  THR19      -0.2208
     66  CG2       44.0180    2.0550  -28.3450 C.3    19  THR19       0.0379
     67  N         43.1570    2.8650  -23.7660 N.am   20  GLY20      -0.1954
     68  CA        42.2550    2.8700  -22.6320 C.3    20  GLY20       0.1869
     69  C         41.5630    1.5520  -22.3420 C.2    20  GLY20       0.2309
     70  O         40.9930    1.3990  -21.2560 O.2    20  GLY20      -0.2863
     71  N         42.6570   -1.5220  -21.6320 N.3    22  LEU22      -0.1231
     72  CA        43.1700   -2.2170  -20.4580 C.3    22  LEU22       0.1693
     73  C         42.7460   -1.5130  -19.1650 C.2    22  LEU22       0.2592
     74  O         42.4650   -2.1670  -18.1550 O.2    22  LEU22      -0.2718
     75  CB        44.6900   -2.3350  -20.5570 C.3    22  LEU22       0.0284
     76  CG        45.3510   -3.0310  -19.3750 C.3    22  LEU22       0.0019
     77  CD1       44.7740   -4.4250  -19.1910 C.3    22  LEU22       0.0001
     78  CD2       46.8510   -3.0830  -19.5780 C.3    22  LEU22       0.0001
     79  N         42.7150   -0.1790  -19.1750 N.am   23  THR23      -0.1953
     80  CA        42.2220    0.5680  -18.0190 C.3    23  THR23       0.1897
     81  C         40.7530    0.2560  -17.7440 C.2    23  THR23       0.2313
     82  O         40.3550    0.0600  -16.5850 O.2    23  THR23      -0.2863
     83  CB        42.4380    2.0600  -18.2420 C.3    23  THR23       0.1794
     84  OG1       43.8340    2.3410  -18.1410 O.3    23  THR23      -0.2208
     85  CG2       41.6860    2.9050  -17.2120 C.3    23  THR23       0.0378
     86  N         39.8440   -6.8350  -26.9540 N.3    94  LYS94      -0.1231
     87  CA        41.0730   -7.4780  -27.4130 C.3    94  LYS94       0.1693
     88  C         41.7630   -8.3790  -26.3860 C.2    94  LYS94       0.2592
     89  O         42.7540   -9.0370  -26.7350 O.2    94  LYS94      -0.2718
     90  CB        42.0640   -6.4120  -27.8810 C.3    94  LYS94       0.0285
     91  CG        42.7770   -5.6630  -26.7780 C.3    94  LYS94       0.0035
     92  CD        43.8270   -4.7040  -27.3650 C.3    94  LYS94       0.0206
     93  CE        43.4940   -3.2480  -27.0430 C.3    94  LYS94       0.1093
     94  NZ        44.6300   -2.3180  -27.2820 N.3    94  LYS94      -0.1314
     95  N         41.2710   -8.4570  -25.1510 N.am   95  TYR95      -0.1976
     96  CA        41.9920   -9.1330  -24.0770 C.3    95  TYR95       0.1639
     97  C         41.3410  -10.4640  -23.7050 C.2    95  TYR95       0.2290
     98  O         40.1230  -10.6470  -23.8190 O.2    95  TYR95      -0.2864
     99  CB        42.0980   -8.2280  -22.8320 C.3    95  TYR95       0.0560
    100  CG        43.0460   -7.0540  -23.0380 C.ar   95  TYR95      -0.0198
    101  CD1       44.4220   -7.2520  -23.0570 C.ar   95  TYR95      -0.0009
    102  CD2       42.5650   -5.7610  -23.2490 C.ar   95  TYR95      -0.0009
    103  CE1       45.2990   -6.2110  -23.2530 C.ar   95  TYR95       0.0417
    104  CE2       43.4460   -4.6940  -23.4480 C.ar   95  TYR95       0.0417
    105  CZ        44.8080   -4.9370  -23.4520 C.ar   95  TYR95       0.1957
    106  OH        45.6920   -3.9150  -23.6490 O.3    95  TYR95      -0.2866
    107  N         52.6770   -5.4250  -13.6850 N.3   159  MET159     -0.1245
    108  CA        52.7600   -5.0750  -15.1020 C.3   159  MET159      0.1570
    109  C         54.2350   -4.9130  -15.4610 C.2   159  MET159      0.2261
    110  O         55.1230   -5.1510  -14.6300 O.2   159  MET159     -0.2867
    111  CB        51.9560   -3.7970  -15.4050 C.3   159  MET159      0.0387
    112  CG        50.4740   -3.9140  -15.0740 C.3   159  MET159      0.0595
    113  SD        49.4620   -2.5150  -15.5970 S.3   159  MET159     -0.1393
    114  CE        50.2430   -1.1820  -14.7040 C.3   159  MET159      0.0692
@<TRIPOS>BOND
     1    66    64    1
     2    90    87    1
     3    90    91    1
     4    54    53    1
     5    87    86    1
     6    87    88    1
     7    92    93    1
     8    92    91    1
     9    94    93    1
    10    53    55    1
    11    53    52    2
    12    51    52    1
    13    51    50    1
    14    64    65    1
    15    64    61    1
    16    89    88    2
    17    48    47    2
    18    88    95   am
    19    49    50    1
    20    49    46    1
    21    61    60    1
    22    61    62    1
    23    60    58   am
    24    47    46    1
    25    47    56   am
    26    58    57    1
    27    58    59    2
    28    95    96    1
    29    43    42    2
    30    63    62    2
    31    46    45    1
    32    57    56    1
    33    62    67   am
    34    42    45   am
    35    42    41    1
    36    96    97    1
    37    96    99    1
    38    98    97    2
    39    67    68    1
    40   106   105    1
    41   105   104   ar
    42   105   103   ar
    43   104   102   ar
    44   103   101   ar
    45   102   100   ar
    46   101   100   ar
    47   100    99    1
    48    41    44    1
    49    41    40    1
    50    68    69    1
    51    69    70    2
    52    32    31    2
    53    28    27    2
    54    71    72    1
    55    31    30    1
    56    30    29    1
    57    30    33    1
    58    39    37    1
    59    75    72    1
    60    75    76    1
    61    27    29   am
    62    27    26    1
    63    72    73    1
    64    36    37    2
    65    36    35    1
    66    33    34    1
    67    34    35    1
    68    37    38    1
    69    26    25    1
    70    78    76    1
    71    76    77    1
    72    79    73   am
    73    79    80    1
    74    73    74    2
    75    19    18    2
    76    25    18   am
    77    83    84    1
    78    83    80    1
    79    83    85    1
    80    18    17    1
    81    80    81    1
    82    81    82    2
    83    11    10    2
    84    17    20    1
    85    17    16    1
    86     4     3    2
    87    10     9    1
    88    20    21    1
    89     9    12    1
    90     9     8    1
    91    23    22   ar
    92   113   112    1
    93   113   114    1
    94    13    12    1
    95    13    14    1
    96     6     5    1
    97   109   108    1
    98   109   110    2
    99   111   108    1
   100   111   112    1
   101     3     8   am
   102     3     2    1
   103   108   107    1
   104    14    15    1
   105    22    21    1
   106    22    24   ar
   107     2     5    1
   108     2     1    1
   109     5     7    1
