@<TRIPOS>MOLECULE
tmp/5q09F00.pdb
 152 146 0 0 0
SMALL
GASTEIGER

@<TRIPOS>ATOM
      1  N         -7.4790   64.6700    7.0300 N.3     9  VAL9       -0.1231
      2  CA        -8.6260   65.2640    6.3600 C.3     9  VAL9        0.1692
      3  C         -8.1660   66.2950    5.3400 C.2     9  VAL9        0.2591
      4  O         -8.6380   66.3050    4.1930 O.2     9  VAL9       -0.2718
      5  CB        -9.5800   65.8620    7.4130 C.3     9  VAL9        0.0266
      6  CG1      -10.6730   66.6930    6.7610 C.3     9  VAL9        0.0020
      7  CG2      -10.1960   64.7280    8.2460 C.3     9  VAL9        0.0020
      8  N         -7.2070   67.1500    5.7280 N.am   10  MET10      -0.1979
      9  CA        -6.6550   68.1460    4.8100 C.3    10  MET10       0.1605
     10  C         -6.0970   67.4960    3.5510 C.2    10  MET10       0.2287
     11  O         -6.3310   67.9840    2.4400 O.2    10  MET10      -0.2864
     12  CB        -5.5450   68.9470    5.4930 C.3    10  MET10       0.0413
     13  CG        -5.9660   70.0600    6.4390 C.3    10  MET10       0.0598
     14  SD        -4.4550   70.8410    7.0730 S.3    10  MET10      -0.1393
     15  CE        -5.0240   71.7220    8.5140 C.3    10  MET10       0.0692
     16  N         -6.8790   64.5670    2.2220 N.3    12  GLU12      -0.1231
     17  CA        -7.9940   64.0710    1.4210 C.3    12  GLU12       0.1699
     18  C         -8.7290   65.2110    0.7240 C.2    12  GLU12       0.2593
     19  O         -9.1290   65.0800   -0.4390 O.2    12  GLU12      -0.2718
     20  CB        -8.9600   63.2780    2.3090 C.3    12  GLU12       0.0402
     21  CG        -8.4290   61.9450    2.8070 C.3    12  GLU12       0.1161
     22  CD        -8.2100   60.9570    1.6770 C.2    12  GLU12       0.3649
     23  OE1       -9.1070   60.8470    0.8120 O.co2  12  GLU12      -0.2457
     24  OE2       -7.1450   60.2990    1.6480 O.co2  12  GLU12      -0.2457
     25  N         -8.8970   66.3490    1.4060 N.am   13  GLY13      -0.1942
     26  CA        -9.5890   67.4680    0.7820 C.3    13  GLY13       0.2014
     27  C         -8.8290   68.0490   -0.3980 C.2    13  GLY13       0.2638
     28  O         -9.4300   68.4390   -1.4040 O.2    13  GLY13      -0.2714
     29  N         -7.5010   68.1490   -0.2790 N.am   14  ARG14      -0.1977
     30  CA        -6.6840   68.6330   -1.3920 C.3    14  ARG14       0.1597
     31  C         -6.7000   67.6700   -2.5730 C.2    14  ARG14       0.2287
     32  O         -6.7400   68.1100   -3.7290 O.2    14  ARG14      -0.2864
     33  CB        -5.2510   68.8840   -0.9370 C.3    14  ARG14       0.0334
     34  CG        -5.1020   70.0810   -0.0300 C.3    14  ARG14       0.0492
     35  CD        -3.6360   70.4390    0.1350 C.3    14  ARG14       0.2205
     36  NE        -3.0230   70.7610   -1.1500 N.pl3  14  ARG14      -0.0865
     37  CZ        -1.7280   70.9950   -1.3190 C.cat  14  ARG14       0.5346
     38  NH1       -0.9060   70.9390   -0.2810 N.pl3  14  ARG14       0.1354
     39  NH2       -1.2590   71.2810   -2.5260 N.pl3  14  ARG14       0.1354
     40  N         -9.1490   65.7410   -3.4750 N.3    16  ALA16      -0.1231
     41  CA       -10.4510   65.9200   -4.0990 C.3    16  ALA16       0.1694
     42  C        -10.6380   67.3140   -4.6740 C.2    16  ALA16       0.2592
     43  O        -11.6130   67.5390   -5.3980 O.2    16  ALA16      -0.2718
     44  CB       -11.5610   65.6300   -3.0830 C.3    16  ALA16       0.0304
     45  N         -9.7370   68.2430   -4.3600 N.am   17  ARG17      -0.1966
     46  CA        -9.7880   69.6240   -4.8460 C.3    17  ARG17       0.1729
     47  C        -11.0860   70.3290   -4.4440 C.2    17  ARG17       0.2617
     48  O        -11.6120   71.1560   -5.1840 O.2    17  ARG17      -0.2715
     49  CB        -9.5830   69.6880   -6.3620 C.3    17  ARG17       0.0348
     50  CG        -8.3750   70.5090   -6.7900 C.3    17  ARG17       0.0492
     51  CD        -7.1760   69.6310   -7.1370 C.3    17  ARG17       0.2205
     52  NE        -5.9760   70.4230   -7.4110 N.pl3  17  ARG17      -0.0865
     53  CZ        -5.6570   70.9160   -8.6050 C.cat  17  ARG17       0.5346
     54  NH1       -6.4500   70.7080   -9.6490 N.pl3  17  ARG17       0.1354
     55  NH2       -4.5460   71.6240   -8.7540 N.pl3  17  ARG17       0.1354
     56  N        -11.5800   70.0480   -3.2350 N.am   18  GLY18      -0.1940
     57  CA       -12.7670   70.7160   -2.7400 C.3    18  GLY18       0.2014
     58  C        -12.4970   72.1400   -2.2680 C.2    18  GLY18       0.2640
     59  O        -11.3680   72.6280   -2.2540 O.2    18  GLY18      -0.2714
     60  N        -13.5770   72.8170   -1.8690 N.am   19  THR19      -0.1936
     61  CA       -13.4820   74.2140   -1.4490 C.3    19  THR19       0.2028
     62  C        -12.9480   74.3860   -0.0310 C.2    19  THR19       0.2643
     63  O        -12.5890   75.5060    0.3500 O.2    19  THR19      -0.2714
     64  CB       -14.8510   74.9000   -1.5440 C.3    19  THR19       0.1808
     65  OG1      -15.7510   74.3080   -0.5970 O.3    19  THR19      -0.2208
     66  CG2      -15.4280   74.7640   -2.9450 C.3    19  THR19       0.0379
     67  N        -12.9290   73.3270    0.7730 N.am   20  GLY20      -0.1939
     68  CA       -12.4570   73.3990    2.1430 C.3    20  GLY20       0.2014
     69  C        -13.5490   73.4170    3.1930 C.2    20  GLY20       0.2639
     70  O        -13.2390   73.2490    4.3770 O.2    20  GLY20      -0.2714
     71  N        -14.8160   73.5790    2.7990 N.am   21  GLU21      -0.1963
     72  CA       -15.8820   73.6520    3.7970 C.3    21  GLU21       0.1733
     73  C        -15.9690   72.3760    4.6270 C.2    21  GLU21       0.2616
     74  O        -16.1090   72.4380    5.8530 O.2    21  GLU21      -0.2715
     75  CB       -17.2330   73.9370    3.1330 C.3    21  GLU21       0.0429
     76  CG       -17.4950   75.4100    2.8690 C.3    21  GLU21       0.1163
     77  CD       -18.9690   75.7090    2.6110 C.2    21  GLU21       0.3649
     78  OE1      -19.2620   76.6600    1.8560 O.co2  21  GLU21      -0.2457
     79  OE2      -19.8350   74.9900    3.1520 O.co2  21  GLU21      -0.2457
     80  N        -15.8670   71.2130    3.9840 N.am   22  LEU22      -0.1963
     81  CA       -15.9680   69.9600    4.7220 C.3    22  LEU22       0.1728
     82  C        -14.8130   69.7990    5.7110 C.2    22  LEU22       0.2616
     83  O        -15.0060   69.2890    6.8200 O.2    22  LEU22      -0.2715
     84  CB       -16.0260   68.7810    3.7470 C.3    22  LEU22       0.0311
     85  CG       -16.0830   67.4000    4.4110 C.3    22  LEU22       0.0022
     86  CD1      -17.3050   67.2470    5.3540 C.3    22  LEU22       0.0001
     87  CD2      -16.0450   66.3010    3.3660 C.3    22  LEU22       0.0001
     88  N        -13.6070   70.2200    5.3270 N.am   23  THR23      -0.1951
     89  CA       -12.4670   70.1620    6.2420 C.3    23  THR23       0.1897
     90  C        -12.6640   71.0750    7.4520 C.2    23  THR23       0.2313
     91  O        -12.3360   70.6950    8.5800 O.2    23  THR23      -0.2863
     92  CB       -11.1900   70.5350    5.4950 C.3    23  THR23       0.1794
     93  OG1      -10.8820   69.5090    4.5460 O.3    23  THR23      -0.2208
     94  CG2      -10.0130   70.6760    6.4730 C.3    23  THR23       0.0378
     95  N        -15.1890   69.3620    9.7610 N.3    26  LEU26      -0.1245
     96  CA       -14.6580   68.2390   10.5200 C.3    26  LEU26       0.1561
     97  C        -13.6660   68.7040   11.5840 C.2    26  LEU26       0.2260
     98  O        -13.6500   68.1650   12.6940 O.2    26  LEU26      -0.2867
     99  CB       -14.0340   67.2290    9.5570 C.3    26  LEU26       0.0270
    100  CG       -15.0660   66.4340    8.7470 C.3    26  LEU26       0.0019
    101  CD1      -14.4110   65.5960    7.6410 C.3    26  LEU26       0.0001
    102  CD2      -15.8530   65.5390    9.6790 C.3    26  LEU26       0.0001
    103  N        -22.6730   74.7500    3.1130 N.3    94  LYS94      -0.1231
    104  CA       -23.4890   73.8700    2.2930 C.3    94  LYS94       0.1693
    105  C        -23.8460   72.5330    2.9440 C.2    94  LYS94       0.2592
    106  O        -24.5140   71.7200    2.3010 O.2    94  LYS94      -0.2718
    107  CB       -22.8050   73.6450    0.9340 C.3    94  LYS94       0.0285
    108  CG       -21.4330   72.9890    0.9690 C.3    94  LYS94       0.0035
    109  CD       -20.8660   72.8620   -0.4500 C.3    94  LYS94       0.0206
    110  CE       -19.4240   72.3700   -0.4430 C.3    94  LYS94       0.1093
    111  NZ       -18.8100   72.3890   -1.8040 N.3    94  LYS94      -0.1314
    112  N        -23.4510   72.2730    4.1900 N.am   95  TYR95      -0.1976
    113  CA       -23.6240   70.9390    4.7470 C.3    95  TYR95       0.1639
    114  C        -24.7230   70.8690    5.8090 C.2    95  TYR95       0.2290
    115  O        -24.9970   71.8330    6.5310 O.2    95  TYR95      -0.2864
    116  CB       -22.3000   70.4250    5.3200 C.3    95  TYR95       0.0560
    117  CG       -21.2920   70.1490    4.2330 C.ar   95  TYR95      -0.0198
    118  CD1      -21.3770   68.9950    3.4470 C.ar   95  TYR95      -0.0009
    119  CD2      -20.3080   71.0790    3.9320 C.ar   95  TYR95      -0.0009
    120  CE1      -20.4620   68.7510    2.4360 C.ar   95  TYR95       0.0417
    121  CE2      -19.3920   70.8420    2.9280 C.ar   95  TYR95       0.0417
    122  CZ       -19.4740   69.6870    2.1800 C.ar   95  TYR95       0.1957
    123  OH       -18.5540   69.4830    1.1750 O.3    95  TYR95      -0.2866
    124  N        -22.1960   62.0070    3.0880 N.3   142  VAL142     -0.1245
    125  CA       -20.8540   62.3010    2.6000 C.3   142  VAL142      0.1561
    126  C        -19.7930   61.8330    3.5990 C.2   142  VAL142      0.2260
    127  O        -18.7090   61.3910    3.2050 O.2   142  VAL142     -0.2867
    128  CB       -20.7520   63.8110    2.3020 C.3   142  VAL142      0.0252
    129  CG1      -19.3200   64.2480    2.1080 C.3   142  VAL142      0.0019
    130  CG2      -21.5870   64.1520    1.0760 C.3   142  VAL142      0.0019
    131  N        -15.7510   57.6840    5.2700 N.3   159  MET159     -0.1230
    132  CA       -15.9820   58.4750    4.0750 C.3   159  MET159      0.1702
    133  C        -15.8700   57.5350    2.8860 C.2   159  MET159      0.2592
    134  O        -15.6600   56.3250    3.0470 O.2   159  MET159     -0.2718
    135  CB       -14.9830   59.6360    3.9580 C.3   159  MET159      0.0401
    136  CG       -15.0910   60.6760    5.0590 C.3   159  MET159      0.0596
    137  SD       -13.9370   62.0470    4.8640 S.3   159  MET159     -0.1393
    138  CE       -12.3720   61.1860    4.8110 C.3   159  MET159      0.0692
    139  N        -15.9600   58.1000    1.6800 N.am  160  ASP160     -0.1960
    140  CA       -15.8320   57.2730    0.4810 C.3   160  ASP160      0.1840
    141  C        -14.5220   56.4970    0.4620 C.2   160  ASP160      0.2622
    142  O        -14.4900   55.3590   -0.0150 O.2   160  ASP160     -0.2715
    143  CB       -15.9610   58.1300   -0.7750 C.3   160  ASP160      0.1450
    144  CG       -17.2390   57.8400   -1.5410 C.2   160  ASP160      0.3671
    145  OD1      -17.9740   56.9120   -1.1370 O.co2 160  ASP160     -0.2456
    146  OD2      -17.5060   58.5250   -2.5510 O.co2 160  ASP160     -0.2456
    147  N        -13.4410   57.0720    1.0040 N.am  161  CYS161     -0.1968
    148  CA       -12.1490   56.3920    1.0160 C.3   161  CYS161      0.1712
    149  C        -12.0570   55.2480    2.0300 C.2   161  CYS161      0.2296
    150  O        -10.9990   54.6060    2.0920 O.2   161  CYS161     -0.2864
    151  CB       -11.0320   57.3900    1.3180 C.3   161  CYS161      0.0983
    152  SG       -11.1250   58.0890    2.9850 S.3   161  CYS161     -0.0798
@<TRIPOS>BOND
     1    54    53    1
     2    55    53    1
     3    53    52    2
     4    52    51    1
     5    51    50    1
     6    50    49    1
     7    49    46    1
     8    43    42    2
     9    48    47    2
    10    46    47    1
    11    46    45    1
    12    42    45   am
    13    42    41    1
    14    47    56   am
    15    41    40    1
    16    41    44    1
    17    32    31    2
    18    56    57    1
    19    66    64    1
    20    57    58    1
    21    31    30    1
    22   146   144   ar
    23    39    37    1
    24    58    59    2
    25    58    60   am
    26    60    61    1
    27   111   110    1
    28    64    61    1
    29    64    65    1
    30   144   145   ar
    31   144   143    1
    32    61    62    1
    33    28    27    2
    34    30    33    1
    35    30    29    1
    36    37    36    2
    37    37    38    1
    38    36    35    1
    39    33    34    1
    40   143   140    1
    41   109   110    1
    42   109   108    1
    43    19    18    2
    44    27    29   am
    45    27    26    1
    46    62    63    2
    47    62    67   am
    48    34    35    1
    49   142   141    2
    50   141   140    1
    51   141   147   am
    52   140   139    1
    53    18    25   am
    54    18    17    1
    55    67    68    1
    56    26    25    1
    57    23    22   ar
    58   107   108    1
    59   107   104    1
    60   147   148    1
    61   148   151    1
    62   148   149    1
    63   130   128    1
    64   123   122    1
    65   151   152    1
    66    17    16    1
    67    17    20    1
    68    24    22   ar
    69    22    21    1
    70   139   133   am
    71    78    77   ar
    72   149   150    2
    73   129   128    1
    74    68    69    1
    75   122   120   ar
    76   122   121   ar
    77   104   105    1
    78   104   103    1
    79   106   105    2
    80   128   125    1
    81    20    21    1
    82   120   118   ar
    83    11    10    2
    84   125   124    1
    85   125   126    1
    86    77    76    1
    87    77    79   ar
    88    71    69   am
    89    71    72    1
    90    76    75    1
    91   133   134    2
    92   133   132    1
    93   121   119   ar
    94   105   112   am
    95    75    72    1
    96    69    70    2
    97   127   126    2
    98    87    85    1
    99   118   117   ar
   100    10     9    1
   101    84    85    1
   102    84    81    1
   103    72    73    1
   104   119   117   ar
   105   135   132    1
   106   135   136    1
   107    80    73   am
   108    80    81    1
   109   132   131    1
   110   112   113    1
   111     4     3    2
   112   117   116    1
   113    85    86    1
   114    93    92    1
   115    73    74    2
   116    81    82    1
   117   113   116    1
   118   113   114    1
   119     9    12    1
   120     9     8    1
   121   138   137    1
   122   137   136    1
   123    88    82   am
   124    88    89    1
   125     3     8   am
   126     3     2    1
   127    12    13    1
   128    92    89    1
   129    92    94    1
   130    82    83    2
   131   114   115    2
   132    89    90    1
   133     2     1    1
   134     2     5    1
   135    13    14    1
   136     6     5    1
   137    14    15    1
   138     5     7    1
   139    90    91    2
   140   101   100    1
   141   100    99    1
   142   100   102    1
   143    99    96    1
   144    95    96    1
   145    96    97    1
   146    97    98    2
