@<TRIPOS>MOLECULE
tmp/5q0aA00.pdb
 131 126 0 0 0
SMALL
GASTEIGER

@<TRIPOS>ATOM
      1  N         21.0720   55.3120   24.4690 N.3     9  VAL9       -0.1231
      2  CA        20.2900   55.6210   23.2750 C.3     9  VAL9        0.1692
      3  C         19.3080   56.7520   23.5650 C.2     9  VAL9        0.2591
      4  O         19.1530   57.6860   22.7650 O.2     9  VAL9       -0.2718
      5  CB        19.5540   54.3500   22.8050 C.3     9  VAL9        0.0266
      6  CG1       18.3380   54.7100   21.9910 C.3     9  VAL9        0.0020
      7  CG2       20.4960   53.4080   22.0240 C.3     9  VAL9        0.0020
      8  N         18.6460   56.6950   24.7270 N.am   10  MET10      -0.1979
      9  CA        17.6900   57.7340   25.0990 C.3    10  MET10       0.1605
     10  C         18.3750   59.0810   25.2990 C.2    10  MET10       0.2287
     11  O         17.8730   60.1120   24.8360 O.2    10  MET10      -0.2864
     12  CB        16.9320   57.3110   26.3570 C.3    10  MET10       0.0413
     13  CG        16.0410   58.3770   26.9430 C.3    10  MET10       0.0598
     14  SD        14.4990   58.5710   26.0410 S.3    10  MET10      -0.1393
     15  CE        13.7350   59.8830   27.0060 C.3    10  MET10       0.0692
     16  N         21.0280   60.1330   23.7930 N.3    12  GLU12      -0.1231
     17  CA        21.3560   60.6850   22.4840 C.3    12  GLU12       0.1699
     18  C         20.1470   61.3730   21.8610 C.2    12  GLU12       0.2593
     19  O         20.2660   62.4690   21.3050 O.2    12  GLU12      -0.2718
     20  CB        21.8890   59.5880   21.5570 C.3    12  GLU12       0.0402
     21  CG        23.3360   59.1610   21.8470 C.3    12  GLU12       0.1161
     22  CD        24.2920   60.3500   21.9730 C.2    12  GLU12       0.3649
     23  OE1       24.9610   60.4580   23.0310 O.co2  12  GLU12      -0.2457
     24  OE2       24.3770   61.1690   21.0220 O.co2  12  GLU12      -0.2457
     25  N         18.9630   60.7780   22.0080 N.am   13  GLY13      -0.1942
     26  CA        17.7600   61.3980   21.4760 C.3    13  GLY13       0.2014
     27  C         17.3950   62.7000   22.1690 C.2    13  GLY13       0.2638
     28  O         16.9670   63.6550   21.5140 O.2    13  GLY13      -0.2714
     29  N         17.5430   62.7570   23.4980 N.am   14  ARG14      -0.1977
     30  CA        17.2460   63.9970   24.2180 C.3    14  ARG14       0.1597
     31  C         18.1350   65.1370   23.7360 C.2    14  ARG14       0.2287
     32  O         17.6550   66.2470   23.4740 O.2    14  ARG14      -0.2864
     33  CB        17.4150   63.8070   25.7290 C.3    14  ARG14       0.0334
     34  CG        16.3790   62.9060   26.3680 C.3    14  ARG14       0.0492
     35  CD        16.7210   62.5810   27.8270 C.3    14  ARG14       0.2205
     36  NE        16.3640   63.6400   28.7800 N.pl3  14  ARG14      -0.0865
     37  CZ        16.5420   63.5430   30.0970 C.cat  14  ARG14       0.5346
     38  NH1       17.0730   62.4430   30.6160 N.pl3  14  ARG14       0.1354
     39  NH2       16.1790   64.5350   30.9010 N.pl3  14  ARG14       0.1354
     40  N         19.3790   65.5550   20.8700 N.3    16  ALA16      -0.1231
     41  CA        19.0610   65.9550   19.5050 C.3    16  ALA16       0.1694
     42  C         17.6530   66.5070   19.3360 C.2    16  ALA16       0.2592
     43  O         17.4130   67.2450   18.3760 O.2    16  ALA16      -0.2718
     44  CB        19.2550   64.7720   18.5510 C.3    16  ALA16       0.0304
     45  N         16.7240   66.1580   20.2310 N.am   17  ARG17      -0.1966
     46  CA        15.3280   66.5960   20.1640 C.3    17  ARG17       0.1729
     47  C         14.6830   66.1650   18.8460 C.2    17  ARG17       0.2617
     48  O         14.0430   66.9570   18.1490 O.2    17  ARG17      -0.2715
     49  CB        15.2060   68.1080   20.3600 C.3    17  ARG17       0.0348
     50  CG        15.5210   68.5910   21.7720 C.3    17  ARG17       0.0492
     51  CD        15.4020   70.1100   21.8560 C.3    17  ARG17       0.2205
     52  NE        16.5090   70.7700   21.1700 N.pl3  17  ARG17      -0.0865
     53  CZ        17.7560   70.8390   21.6250 C.cat  17  ARG17       0.5346
     54  NH1       18.0810   70.2890   22.7900 N.pl3  17  ARG17       0.1354
     55  NH2       18.6820   71.4620   20.9020 N.pl3  17  ARG17       0.1354
     56  N         14.8780   64.8960   18.4880 N.am   18  GLY18      -0.1940
     57  CA        14.2460   64.3200   17.3190 C.3    18  GLY18       0.2014
     58  C         12.8550   63.7850   17.6040 C.2    18  GLY18       0.2640
     59  O         12.3160   63.9090   18.7070 O.2    18  GLY18      -0.2714
     60  N         12.2720   63.1570   16.5730 N.am   19  THR19      -0.1936
     61  CA        10.8990   62.6630   16.6630 C.3    19  THR19       0.2028
     62  C         10.7900   61.4130   17.5230 C.2    19  THR19       0.2643
     63  O          9.6740   61.0140   17.8710 O.2    19  THR19      -0.2714
     64  CB        10.3270   62.3540   15.2690 C.3    19  THR19       0.1808
     65  OG1       10.8630   61.1120   14.7780 O.3    19  THR19      -0.2208
     66  CG2       10.6860   63.4660   14.2710 C.3    19  THR19       0.0379
     67  N         11.9140   60.7880   17.8710 N.am   20  GLY20      -0.1939
     68  CA        11.9200   59.6130   18.7130 C.3    20  GLY20       0.2014
     69  C         11.9180   58.2900   17.9820 C.2    20  GLY20       0.2639
     70  O         12.1680   57.2580   18.6160 O.2    20  GLY20      -0.2714
     71  N         11.6720   58.2920   16.6670 N.am   21  GLU21      -0.1963
     72  CA        11.5660   57.0400   15.9260 C.3    21  GLU21       0.1733
     73  C         12.8790   56.2670   15.9580 C.2    21  GLU21       0.2616
     74  O         12.8740   55.0390   16.1220 O.2    21  GLU21      -0.2715
     75  CB        11.1470   57.2960   14.4740 C.3    21  GLU21       0.0429
     76  CG         9.6790   57.6590   14.2790 C.3    21  GLU21       0.1163
     77  CD         9.2710   57.6870   12.8090 C.2    21  GLU21       0.3649
     78  OE1       10.1260   57.3770   11.9590 O.co2  21  GLU21      -0.2457
     79  OE2        8.1070   58.0240   12.4940 O.co2  21  GLU21      -0.2457
     80  N         14.0120   56.9670   15.8100 N.am   22  LEU22      -0.1963
     81  CA        15.3070   56.2830   15.8050 C.3    22  LEU22       0.1728
     82  C         15.5760   55.6050   17.1440 C.2    22  LEU22       0.2616
     83  O         16.1070   54.4880   17.1840 O.2    22  LEU22      -0.2715
     84  CB        16.4270   57.2670   15.4590 C.3    22  LEU22       0.0311
     85  CG        17.8350   56.6850   15.3000 C.3    22  LEU22       0.0022
     86  CD1       17.9010   55.6360   14.2130 C.3    22  LEU22       0.0001
     87  CD2       18.8220   57.7880   15.0110 C.3    22  LEU22       0.0001
     88  N         15.1610   56.2440   18.2490 N.am   23  THR23      -0.1951
     89  CA        15.3220   55.6550   19.5770 C.3    23  THR23       0.1897
     90  C         14.4870   54.3890   19.7230 C.2    23  THR23       0.2313
     91  O         14.9520   53.3870   20.2890 O.2    23  THR23      -0.2863
     92  CB        14.9550   56.6760   20.6670 C.3    23  THR23       0.1794
     93  OG1       15.9070   57.7470   20.6670 O.3    23  THR23      -0.2208
     94  CG2       14.9650   56.0390   22.0550 C.3    23  THR23       0.0378
     95  N         16.2630   51.5630   17.7430 N.3    26  LEU26      -0.1245
     96  CA        17.3510   50.8700   18.4200 C.3    26  LEU26       0.1561
     97  C         16.8440   50.0480   19.6100 C.2    26  LEU26       0.2260
     98  O         17.3550   48.9490   19.8620 O.2    26  LEU26      -0.2867
     99  CB        18.4260   51.8800   18.8330 C.3    26  LEU26       0.0270
    100  CG        19.0660   52.5390   17.5870 C.3    26  LEU26       0.0019
    101  CD1       20.1410   53.5340   17.9340 C.3    26  LEU26       0.0001
    102  CD2       19.5970   51.5250   16.6190 C.3    26  LEU26       0.0001
    103  N          9.9380   56.2600    9.2020 N.3    96  LYS96      -0.1231
    104  CA        10.6750   56.9390    8.1460 C.3    96  LYS96       0.1693
    105  C         12.0270   56.3190    7.8160 C.2    96  LYS96       0.2592
    106  O         12.7370   56.8590    6.9700 O.2    96  LYS96      -0.2718
    107  CB        10.8510   58.4100    8.5320 C.3    96  LYS96       0.0285
    108  CG        11.7370   58.6500    9.7500 C.3    96  LYS96       0.0035
    109  CD        11.6560   60.1130   10.2120 C.3    96  LYS96       0.0206
    110  CE        12.4640   60.3760   11.4880 C.3    96  LYS96       0.1093
    111  NZ        13.2640   61.6330   11.4270 N.3    96  LYS96      -0.1314
    112  N         12.3970   55.2060    8.4370 N.am   97  TYR97      -0.1976
    113  CA        13.7230   54.6290    8.2870 C.3    97  TYR97       0.1639
    114  C         13.7100   53.3570    7.4400 C.2    97  TYR97       0.2290
    115  O         12.7370   52.5960    7.4270 O.2    97  TYR97      -0.2864
    116  CB        14.3420   54.3590    9.6630 C.3    97  TYR97       0.0560
    117  CG        14.7310   55.6340   10.3900 C.ar   97  TYR97      -0.0198
    118  CD1       15.8940   56.3260   10.0570 C.ar   97  TYR97      -0.0009
    119  CD2       13.9130   56.1710   11.3850 C.ar   97  TYR97      -0.0009
    120  CE1       16.2470   57.5140   10.7290 C.ar   97  TYR97       0.0417
    121  CE2       14.2540   57.3540   12.0510 C.ar   97  TYR97       0.0417
    122  CZ        15.4170   58.0200   11.7220 C.ar   97  TYR97       0.1957
    123  OH        15.7430   59.1850   12.3880 O.3    97  TYR97      -0.2866
    124  N         27.5640   55.6610   15.3430 N.3   161  MET161     -0.1245
    125  CA        26.7640   56.8030   14.9210 C.3   161  MET161      0.1570
    126  C         27.7170   57.9620   14.6460 C.2   161  MET161      0.2261
    127  O         28.9420   57.8060   14.6880 O.2   161  MET161     -0.2867
    128  CB        25.7170   57.1750   15.9810 C.3   161  MET161      0.0387
    129  CG        24.6010   56.1530   16.1590 C.3   161  MET161      0.0595
    130  SD        23.3630   56.6340   17.3850 S.3   161  MET161     -0.1393
    131  CE        24.3410   56.6860   18.8850 C.3   161  MET161      0.0692
@<TRIPOS>BOND
     1   106   105    2
     2   115   114    2
     3   114   113    1
     4   105   104    1
     5   105   112   am
     6   104   107    1
     7   104   103    1
     8   113   112    1
     9   113   116    1
    10   107   108    1
    11   116   117    1
    12   108   109    1
    13   118   117   ar
    14   118   120   ar
    15   109   110    1
    16   117   119   ar
    17   120   122   ar
    18   119   121   ar
    19   111   110    1
    20   122   121   ar
    21   122   123    1
    22    78    77   ar
    23    79    77   ar
    24    77    76    1
    25    86    85    1
    26    66    64    1
    27    76    75    1
    28    75    72    1
    29   126   127    2
    30   126   125    1
    31    65    64    1
    32   125   124    1
    33   125   128    1
    34    87    85    1
    35    64    61    1
    36    85    84    1
    37    84    81    1
    38    81    80    1
    39    81    82    1
    40    80    73   am
    41    72    73    1
    42    72    71    1
    43    73    74    2
    44   128   129    1
    45   129   130    1
    46    60    61    1
    47    60    58   am
    48   102   100    1
    49    61    62    1
    50    71    69   am
    51    82    83    2
    52    82    88   am
    53    57    58    1
    54    57    56    1
    55   130   131    1
    56    62    67   am
    57    62    63    2
    58   100   101    1
    59   100    99    1
    60    58    59    2
    61    95    96    1
    62    67    68    1
    63    69    70    2
    64    69    68    1
    65    48    47    2
    66    88    89    1
    67    43    42    2
    68    96    99    1
    69    96    97    1
    70    56    47   am
    71    44    41    1
    72    47    46    1
    73    42    41    1
    74    42    45   am
    75    41    40    1
    76    89    90    1
    77    89    92    1
    78    97    98    2
    79    90    91    2
    80    46    45    1
    81    46    49    1
    82    49    50    1
    83    93    92    1
    84    92    94    1
    85    55    53    1
    86    24    22   ar
    87    52    53    2
    88    52    51    1
    89    19    18    2
    90    26    25    1
    91    26    27    1
    92    28    27    2
    93    20    21    1
    94    20    17    1
    95    53    54    1
    96    50    51    1
    97    21    22    1
    98    18    25   am
    99    18    17    1
   100    22    23   ar
   101     6     5    1
   102     7     5    1
   103    27    29   am
   104    17    16    1
   105     4     3    2
   106     5     2    1
   107     2     3    1
   108     2     1    1
   109    32    31    2
   110    29    30    1
   111     3     8   am
   112    31    30    1
   113    30    33    1
   114     8     9    1
   115    11    10    2
   116     9    10    1
   117     9    12    1
   118    33    34    1
   119    14    13    1
   120    14    15    1
   121    12    13    1
   122    34    35    1
   123    35    36    1
   124    36    37    2
   125    37    38    1
   126    37    39    1
