@<TRIPOS>MOLECULE
tmp/5q0bA00.pdb
 142 136 0 0 0
SMALL
GASTEIGER

@<TRIPOS>ATOM
      1  N         21.3380   54.9750   24.2840 N.3     9  VAL9       -0.1231
      2  CA        20.6470   55.3660   23.0620 C.3     9  VAL9        0.1692
      3  C         19.6670   56.4870   23.3580 C.2     9  VAL9        0.2591
      4  O         19.5660   57.4660   22.6110 O.2     9  VAL9       -0.2718
      5  CB        19.9510   54.1400   22.4380 C.3     9  VAL9        0.0266
      6  CG1       18.9670   54.5680   21.3760 C.3     9  VAL9        0.0020
      7  CG2       20.9910   53.2050   21.8340 C.3     9  VAL9        0.0020
      8  N         18.9330   56.3560   24.4580 N.am   10  MET10      -0.1979
      9  CA        17.9530   57.3590   24.8390 C.3    10  MET10       0.1605
     10  C         18.6320   58.6950   25.1010 C.2    10  MET10       0.2287
     11  O         18.0950   59.7530   24.7520 O.2    10  MET10      -0.2864
     12  CB        17.1850   56.8670   26.0770 C.3    10  MET10       0.0413
     13  CG        16.2510   57.8600   26.7110 C.3    10  MET10       0.0598
     14  SD        14.5890   57.7330   26.0410 S.3    10  MET10      -0.1393
     15  CE        13.7860   59.0930   26.8970 C.3    10  MET10       0.0692
     16  N         21.5150   59.7610   23.6600 N.3    12  GLU12      -0.1231
     17  CA        21.8500   60.3410   22.3590 C.3    12  GLU12       0.1699
     18  C         20.6060   60.9250   21.6920 C.2    12  GLU12       0.2593
     19  O         20.6660   61.9900   21.0600 O.2    12  GLU12      -0.2718
     20  CB        22.5060   59.2970   21.4610 C.3    12  GLU12       0.0402
     21  CG        23.9060   58.8980   21.9110 C.3    12  GLU12       0.1161
     22  CD        24.8620   60.0610   21.9660 C.2    12  GLU12       0.3649
     23  OE1       25.0510   60.7260   20.9250 O.co2  12  GLU12      -0.2457
     24  OE2       25.3860   60.3370   23.0660 O.co2  12  GLU12      -0.2457
     25  N         19.4640   60.2470   21.8370 N.am   13  GLY13      -0.1942
     26  CA        18.2330   60.7650   21.2610 C.3    13  GLY13       0.2014
     27  C         17.7950   62.0800   21.8860 C.2    13  GLY13       0.2638
     28  O         17.4330   63.0170   21.1740 O.2    13  GLY13      -0.2714
     29  N         17.8500   62.1760   23.2220 N.am   14  ARG14      -0.1977
     30  CA        17.4920   63.4180   23.9080 C.3    14  ARG14       0.1597
     31  C         18.3540   64.5780   23.4360 C.2    14  ARG14       0.2287
     32  O         17.8410   65.6710   23.1830 O.2    14  ARG14      -0.2864
     33  CB        17.6170   63.2590   25.4290 C.3    14  ARG14       0.0334
     34  CG        16.6300   62.2670   26.0170 C.3    14  ARG14       0.0492
     35  CD        16.8490   61.9760   27.5030 C.3    14  ARG14       0.2205
     36  NE        16.4280   63.0810   28.3600 N.pl3  14  ARG14      -0.0865
     37  CZ        16.5670   63.1000   29.6830 C.cat  14  ARG14       0.5346
     38  NH1       17.1180   62.0700   30.3170 N.pl3  14  ARG14       0.1354
     39  NH2       16.1540   64.1530   30.3750 N.pl3  14  ARG14       0.1354
     40  N         19.8490   64.9710   20.5810 N.3    16  ALA16      -0.1231
     41  CA        19.5400   65.3200   19.1970 C.3    16  ALA16       0.1694
     42  C         18.1320   65.8740   19.0230 C.2    16  ALA16       0.2592
     43  O         17.8640   66.5150   18.0050 O.2    16  ALA16      -0.2718
     44  CB        19.7220   64.1040   18.2790 C.3    16  ALA16       0.0304
     45  N         17.2280   65.6190   19.9720 N.am   17  ARG17      -0.1966
     46  CA        15.8520   66.1130   19.9110 C.3    17  ARG17       0.1729
     47  C         15.1310   65.6150   18.6580 C.2    17  ARG17       0.2617
     48  O         14.4200   66.3660   17.9910 O.2    17  ARG17      -0.2715
     49  CB        15.8090   67.6370   20.0090 C.3    17  ARG17       0.0348
     50  CG        16.3120   68.1990   21.3460 C.3    17  ARG17       0.0492
     51  CD        16.3830   69.7260   21.3100 C.3    17  ARG17       0.2205
     52  NE        15.0730   70.3530   21.1410 N.pl3  17  ARG17      -0.0865
     53  CZ        14.2900   70.7390   22.1440 C.cat  17  ARG17       0.5346
     54  NH1       14.6880   70.5740   23.3980 N.pl3  17  ARG17       0.1354
     55  NH2       13.1130   71.2980   21.8930 N.pl3  17  ARG17       0.1354
     56  N         15.3540   64.3450   18.3050 N.am   18  GLY18      -0.1940
     57  CA        14.6010   63.7130   17.2430 C.3    18  GLY18       0.2014
     58  C         13.2160   63.2900   17.6990 C.2    18  GLY18       0.2640
     59  O         12.8250   63.4710   18.8530 O.2    18  GLY18      -0.2714
     60  N         12.4830   62.6620   16.7700 N.am   19  THR19      -0.1936
     61  CA        11.1230   62.1800   17.0270 C.3    19  THR19       0.2028
     62  C         11.0650   60.9440   17.9160 C.2    19  THR19       0.2643
     63  O          9.9600   60.5240   18.2770 O.2    19  THR19      -0.2714
     64  CB        10.3980   61.8200   15.7210 C.3    19  THR19       0.1808
     65  OG1       11.0280   60.6790   15.1210 O.3    19  THR19      -0.2208
     66  CG2       10.4130   62.9740   14.7380 C.3    19  THR19       0.0379
     67  N         12.1980   60.3170   18.2290 N.am   20  GLY20      -0.1939
     68  CA        12.1890   59.1000   19.0130 C.3    20  GLY20       0.2014
     69  C         12.0630   57.8170   18.2080 C.2    20  GLY20       0.2639
     70  O         12.2190   56.7290   18.7760 O.2    20  GLY20      -0.2714
     71  N         11.8030   57.9010   16.9020 N.am   21  GLU21      -0.1963
     72  CA        11.6530   56.6820   16.1120 C.3    21  GLU21       0.1733
     73  C         12.9580   55.8970   16.0730 C.2    21  GLU21       0.2616
     74  O         12.9690   54.6820   16.2950 O.2    21  GLU21      -0.2715
     75  CB        11.1920   57.0230   14.6980 C.3    21  GLU21       0.0429
     76  CG         9.7590   57.4470   14.6020 C.3    21  GLU21       0.1163
     77  CD         9.3450   57.6830   13.1590 C.2    21  GLU21       0.3649
     78  OE1        9.6530   56.8410   12.2880 O.co2  21  GLU21      -0.2457
     79  OE2        8.7740   58.7580   12.8890 O.co2  21  GLU21      -0.2457
     80  N         14.0780   56.5820   15.8220 N.am   22  LEU22      -0.1963
     81  CA        15.3560   55.8810   15.7840 C.3    22  LEU22       0.1728
     82  C         15.6390   55.1600   17.1020 C.2    22  LEU22       0.2616
     83  O         16.1310   54.0240   17.1030 O.2    22  LEU22      -0.2715
     84  CB        16.4880   56.8540   15.4510 C.3    22  LEU22       0.0311
     85  CG        17.8560   56.1680   15.4000 C.3    22  LEU22       0.0022
     86  CD1       17.8630   54.9470   14.4350 C.3    22  LEU22       0.0001
     87  CD2       18.9150   57.1720   14.9890 C.3    22  LEU22       0.0001
     88  N         15.3030   55.7860   18.2320 N.am   23  THR23      -0.1951
     89  CA        15.4900   55.1300   19.5270 C.3    23  THR23       0.1897
     90  C         14.6200   53.8870   19.6470 C.2    23  THR23       0.2313
     91  O         15.0700   52.8520   20.1510 O.2    23  THR23      -0.2863
     92  CB        15.1980   56.1110   20.6740 C.3    23  THR23       0.1794
     93  OG1       16.2010   57.1310   20.6890 O.3    23  THR23      -0.2208
     94  CG2       15.1970   55.3930   22.0420 C.3    23  THR23       0.0378
     95  N         16.1260   51.1010   17.5720 N.3    26  LEU26      -0.1245
     96  CA        17.2910   50.4930   18.1980 C.3    26  LEU26       0.1561
     97  C         16.9050   49.6530   19.4170 C.2    26  LEU26       0.2260
     98  O         17.5360   48.6220   19.6650 O.2    26  LEU26      -0.2867
     99  CB        18.3040   51.5800   18.5690 C.3    26  LEU26       0.0270
    100  CG        19.0530   52.2080   17.3840 C.3    26  LEU26       0.0019
    101  CD1       19.9020   53.4110   17.8170 C.3    26  LEU26       0.0001
    102  CD2       19.9030   51.1920   16.5880 C.3    26  LEU26       0.0001
    103  N         10.1190   56.1340    9.2950 N.3   104  LYS104     -0.1231
    104  CA        10.8810   56.7640    8.2320 C.3   104  LYS104      0.1693
    105  C         12.1740   56.0350    7.8810 C.2   104  LYS104      0.2592
    106  O         12.8780   56.4720    6.9610 O.2   104  LYS104     -0.2718
    107  CB        11.1970   58.2160    8.6120 C.3   104  LYS104      0.0285
    108  CG        11.7330   58.3780   10.0180 C.3   104  LYS104      0.0035
    109  CD        12.0920   59.8360   10.3330 C.3   104  LYS104      0.0206
    110  CE        12.4200   59.9960   11.8160 C.3   104  LYS104      0.1093
    111  NZ        13.0700   61.2970   12.1550 N.3   104  LYS104     -0.1314
    112  N         12.5020   54.9350    8.5530 N.am  105  TYR105     -0.1976
    113  CA        13.8180   54.3350    8.3840 C.3   105  TYR105      0.1639
    114  C         13.7610   53.1040    7.4940 C.2   105  TYR105      0.2290
    115  O         12.7610   52.3840    7.4490 O.2   105  TYR105     -0.2864
    116  CB        14.4480   53.9840    9.7370 C.3   105  TYR105      0.0560
    117  CG        14.8060   55.2330   10.5130 C.ar  105  TYR105     -0.0198
    118  CD1       15.9360   55.9820   10.1880 C.ar  105  TYR105     -0.0009
    119  CD2       13.9840   55.6990   11.5210 C.ar  105  TYR105     -0.0009
    120  CE1       16.2550   57.1470   10.8830 C.ar  105  TYR105      0.0417
    121  CE2       14.2850   56.8630   12.2120 C.ar  105  TYR105      0.0417
    122  CZ        15.4190   57.5790   11.8910 C.ar  105  TYR105      0.1957
    123  OH        15.6930   58.7280   12.5780 O.3   105  TYR105     -0.2866
    124  N         17.7540   56.5930    6.4900 N.3   132  ARG132     -0.1245
    125  CA        16.5260   57.3760    6.4320 C.3   132  ARG132      0.1563
    126  C         15.9940   57.3230    5.0030 C.2   132  ARG132      0.2260
    127  O         16.7550   57.5000    4.0440 O.2   132  ARG132     -0.2867
    128  CB        16.7830   58.8160    6.8790 C.3   132  ARG132      0.0307
    129  CG        15.5760   59.5040    7.5110 C.3   132  ARG132      0.0489
    130  CD        15.9580   60.7780    8.3040 C.3   132  ARG132      0.2205
    131  NE        16.4150   60.5210    9.6780 N.pl3 132  ARG132     -0.0865
    132  CZ        17.6710   60.6700   10.1050 C.cat 132  ARG132      0.5346
    133  NH1       18.6160   61.0800    9.2660 N.pl3 132  ARG132      0.1354
    134  NH2       17.9860   60.4170   11.3770 N.pl3 132  ARG132      0.1354
    135  N         27.4570   55.1730   15.1980 N.3   169  MET169     -0.1245
    136  CA        26.6470   56.3110   14.7640 C.3   169  MET169      0.1570
    137  C         27.6000   57.4700   14.4890 C.2   169  MET169      0.2261
    138  O         28.8260   57.3070   14.4970 O.2   169  MET169     -0.2867
    139  CB        25.5830   56.6790   15.8090 C.3   169  MET169      0.0387
    140  CG        24.5620   55.6010   16.0470 C.3   169  MET169      0.0595
    141  SD        23.2730   56.0560   17.2170 S.3   169  MET169     -0.1393
    142  CE        24.2300   56.2460   18.7210 C.3   169  MET169      0.0692
@<TRIPOS>BOND
     1   127   126    2
     2   126   125    1
     3   125   124    1
     4   125   128    1
     5   128   129    1
     6   106   105    2
     7   115   114    2
     8   114   113    1
     9   129   130    1
    10   105   104    1
    11   105   112   am
    12   104   107    1
    13   104   103    1
    14   130   131    1
    15   113   112    1
    16   113   116    1
    17   107   108    1
    18   133   132    1
    19   131   132    2
    20   116   117    1
    21   108   109    1
    22   132   134    1
    23   118   117   ar
    24   118   120   ar
    25   109   110    1
    26   117   119   ar
    27   120   122   ar
    28   119   121   ar
    29   110   111    1
    30   122   121   ar
    31   122   123    1
    32    78    77   ar
    33    79    77   ar
    34    77    76    1
    35    86    85    1
    36   137   138    2
    37   137   136    1
    38    76    75    1
    39    75    72    1
    40    66    64    1
    41   136   135    1
    42   136   139    1
    43    87    85    1
    44    65    64    1
    45    85    84    1
    46    84    81    1
    47    64    61    1
    48    81    80    1
    49    81    82    1
    50   139   140    1
    51    80    73   am
    52   140   141    1
    53    73    72    1
    54    73    74    2
    55    72    71    1
    56   102   100    1
    57    60    61    1
    58    60    58   am
    59    71    69   am
    60    61    62    1
    61    82    83    2
    62    82    88   am
    63   141   142    1
    64    57    58    1
    65    57    56    1
    66   100   101    1
    67   100    99    1
    68    95    96    1
    69    58    59    2
    70    62    67   am
    71    62    63    2
    72    48    47    2
    73    43    42    2
    74    96    99    1
    75    96    97    1
    76    69    70    2
    77    69    68    1
    78    67    68    1
    79    88    89    1
    80    44    41    1
    81    56    47   am
    82    47    46    1
    83    42    41    1
    84    42    45   am
    85    41    40    1
    86    97    98    2
    87    89    90    1
    88    89    92    1
    89    90    91    2
    90    46    45    1
    91    46    49    1
    92    49    50    1
    93    92    93    1
    94    92    94    1
    95    23    22   ar
    96    19    18    2
    97    52    51    1
    98    52    53    2
    99    28    27    2
   100    26    25    1
   101    26    27    1
   102    51    50    1
   103     6     5    1
   104    20    21    1
   105    20    17    1
   106    18    25   am
   107    18    17    1
   108     7     5    1
   109    27    29   am
   110    55    53    1
   111    21    22    1
   112    22    24   ar
   113    53    54    1
   114    17    16    1
   115     5     2    1
   116     4     3    2
   117     2     3    1
   118     2     1    1
   119    32    31    2
   120    29    30    1
   121     3     8   am
   122    31    30    1
   123    30    33    1
   124     8     9    1
   125    11    10    2
   126     9    10    1
   127     9    12    1
   128    33    34    1
   129    34    35    1
   130    14    13    1
   131    14    15    1
   132    12    13    1
   133    35    36    1
   134    36    37    2
   135    37    38    1
   136    37    39    1
