@<TRIPOS>MOLECULE
tmp/5q0cF00.pdb
 148 141 0 0 0
SMALL
GASTEIGER

@<TRIPOS>ATOM
      1  N        128.5150   56.1720   16.4550 N.3    10  VAL10      -0.1231
      2  CA       129.8990   55.7650   16.2420 C.3    10  VAL10       0.1692
      3  C        130.8720   56.7700   16.8410 C.2    10  VAL10       0.2591
      4  O        131.8840   56.3840   17.4480 O.2    10  VAL10      -0.2718
      5  CB       130.1390   55.5450   14.7450 C.3    10  VAL10       0.0266
      6  CG1      131.6260   55.4490   14.4620 C.3    10  VAL10       0.0020
      7  CG2      129.3840   54.2680   14.3220 C.3    10  VAL10       0.0020
      8  N        130.6060   58.0720   16.6620 N.am   11  MET11      -0.1979
      9  CA       131.4790   59.0960   17.2410 C.3    11  MET11       0.1605
     10  C        131.6010   58.9420   18.7490 C.2    11  MET11       0.2287
     11  O        132.6940   59.0880   19.3030 O.2    11  MET11      -0.2864
     12  CB       130.9650   60.4960   16.9110 C.3    11  MET11       0.0413
     13  CG       131.4250   60.9970   15.5740 C.3    11  MET11       0.0598
     14  SD       130.7980   62.6450   15.3080 S.3    11  MET11      -0.1393
     15  CE       129.2100   62.5370   16.1250 C.3    11  MET11       0.0692
     16  N        131.3810   56.2710   20.6090 N.3    13  LYS13      -0.1231
     17  CA       132.2700   55.1460   20.8900 C.3    13  LYS13       0.1693
     18  C        133.7160   55.4550   20.5020 C.2    13  LYS13       0.2593
     19  O        134.6490   55.1400   21.2490 O.2    13  LYS13      -0.2718
     20  CB       131.7640   53.9060   20.1630 C.3    13  LYS13       0.0285
     21  CG       130.5430   53.2900   20.8220 C.3    13  LYS13       0.0035
     22  CD       130.1020   52.0660   20.0710 C.3    13  LYS13       0.0206
     23  CE       129.1150   51.2360   20.8630 C.3    13  LYS13       0.1093
     24  NZ       128.8250   49.9580   20.1340 N.3    13  LYS13      -0.1314
     25  N        133.9290   56.0680   19.3380 N.am   14  GLY14      -0.1942
     26  CA       135.2850   56.4060   18.9410 C.3    14  GLY14       0.2014
     27  C        135.9260   57.4200   19.8670 C.2    14  GLY14       0.2639
     28  O        137.1470   57.4460   20.0210 O.2    14  GLY14      -0.2714
     29  N        135.1170   58.2690   20.4940 N.am   15  ARG15      -0.1963
     30  CA       135.6680   59.2080   21.4590 C.3    15  ARG15       0.1729
     31  C        136.0380   58.4990   22.7550 C.2    15  ARG15       0.2616
     32  O        137.1660   58.6330   23.2390 O.2    15  ARG15      -0.2715
     33  CB       134.6760   60.3440   21.7070 C.3    15  ARG15       0.0348
     34  CG       134.7090   61.4160   20.6250 C.3    15  ARG15       0.0492
     35  CD       133.7370   62.5330   20.9310 C.3    15  ARG15       0.2205
     36  NE       134.1030   63.2280   22.1600 N.pl3  15  ARG15      -0.0865
     37  CZ       133.3250   64.1030   22.7850 C.cat  15  ARG15       0.5346
     38  NH1      132.1150   64.3930   22.3010 N.pl3  15  ARG15       0.1354
     39  NH2      133.7560   64.6730   23.9050 N.pl3  15  ARG15       0.1354
     40  N        135.1170   57.7080   23.3180 N.am   16  GLN16      -0.1963
     41  CA       135.4280   57.0650   24.5910 C.3    16  GLN16       0.1733
     42  C        136.5970   56.0890   24.4560 C.2    16  GLN16       0.2616
     43  O        137.3450   55.8930   25.4180 O.2    16  GLN16      -0.2715
     44  CB       134.1950   56.3690   25.1800 C.3    16  GLN16       0.0408
     45  CG       133.7880   55.0670   24.5090 C.3    16  GLN16       0.0908
     46  CD       132.6840   54.3300   25.2690 C.2    16  GLN16       0.2608
     47  OE1      132.2860   54.7390   26.3620 O.2    16  GLN16      -0.2717
     48  NE2      132.1920   53.2350   24.6910 N.am   16  GLN16      -0.0878
     49  N        136.8050   55.5070   23.2720 N.am   17  ALA17      -0.1963
     50  CA       137.9950   54.6970   23.0310 C.3    17  ALA17       0.1728
     51  C        139.2070   55.5390   22.6740 C.2    17  ALA17       0.2616
     52  O        140.3020   54.9910   22.5110 O.2    17  ALA17      -0.2715
     53  CB       137.7410   53.6740   21.9230 C.3    17  ALA17       0.0334
     54  N        139.0300   56.8480   22.5360 N.am   18  LYS18      -0.1963
     55  CA       140.1330   57.7760   22.3130 C.3    18  LYS18       0.1728
     56  C        140.9870   57.3610   21.1190 C.2    18  LYS18       0.2617
     57  O        142.2100   57.4970   21.1270 O.2    18  LYS18      -0.2715
     58  CB       140.9780   57.9130   23.5810 C.3    18  LYS18       0.0311
     59  CG       140.1860   58.5070   24.7410 C.3    18  LYS18       0.0038
     60  CD       140.9240   58.4280   26.0700 C.3    18  LYS18       0.0206
     61  CE       142.0250   59.4710   26.1700 C.3    18  LYS18       0.1093
     62  NZ       141.4570   60.8040   26.5320 N.3    18  LYS18      -0.1314
     63  N        140.3300   56.8720   20.0690 N.am   19  GLY19      -0.1940
     64  CA       141.0060   56.5250   18.8350 C.3    19  GLY19       0.2014
     65  C        141.3170   57.7450   17.9780 C.2    19  GLY19       0.2640
     66  O        140.9580   58.8820   18.2850 O.2    19  GLY19      -0.2714
     67  N        142.0130   57.4910   16.8710 N.am   20  THR20      -0.1936
     68  CA       142.4540   58.5710   15.9980 C.3    20  THR20       0.2028
     69  C        141.3140   59.2040   15.1950 C.2    20  THR20       0.2642
     70  O        141.4610   60.3380   14.7130 O.2    20  THR20      -0.2714
     71  CB       143.5120   58.0340   15.0440 C.3    20  THR20       0.1808
     72  OG1      143.9260   59.0670   14.1510 O.3    20  THR20      -0.2208
     73  CG2      142.9190   56.9110   14.2220 C.3    20  THR20       0.0379
     74  N        140.1790   58.5130   15.0440 N.am   21  GLY21      -0.1954
     75  CA       139.1040   58.9750   14.1850 C.3    21  GLY21       0.1869
     76  C        139.0550   58.3320   12.8150 C.2    21  GLY21       0.2309
     77  O        138.0930   58.5690   12.0680 O.2    21  GLY21      -0.2863
     78  N        138.6940   55.1890   11.7090 N.3    23  LEU23      -0.1231
     79  CA       137.5850   54.2640   11.4850 C.3    23  LEU23       0.1693
     80  C        136.2590   55.0210   11.3780 C.2    23  LEU23       0.2592
     81  O        135.4420   54.7370   10.4920 O.2    23  LEU23      -0.2718
     82  CB       137.5360   53.2280   12.6070 C.3    23  LEU23       0.0284
     83  CG       137.0610   51.7990   12.3160 C.3    23  LEU23       0.0019
     84  CD1      136.0780   51.3480   13.3840 C.3    23  LEU23       0.0001
     85  CD2      136.4970   51.5780   10.9110 C.3    23  LEU23       0.0001
     86  N        136.0260   55.9840   12.2880 N.am   24  THR24      -0.1953
     87  CA       134.8290   56.8270   12.2180 C.3    24  THR24       0.1897
     88  C        134.7310   57.5130   10.8580 C.2    24  THR24       0.2313
     89  O        133.6620   57.5800   10.2530 O.2    24  THR24      -0.2863
     90  CB       134.8640   57.8910   13.3250 C.3    24  THR24       0.1794
     91  OG1      134.5840   57.2960   14.5940 O.3    24  THR24      -0.2208
     92  CG2      133.8260   58.9770   13.0700 C.3    24  THR24       0.0378
     93  N        133.8790   54.7630    8.2250 N.3    27  LEU27      -0.1245
     94  CA       132.4790   54.3550    8.2780 C.3    27  LEU27       0.1561
     95  C        131.5520   55.4610    7.7880 C.2    27  LEU27       0.2260
     96  O        130.5790   55.1940    7.0730 O.2    27  LEU27      -0.2867
     97  CB       132.1110   53.9420    9.6960 C.3    27  LEU27       0.0270
     98  CG       132.7580   52.6640   10.1910 C.3    27  LEU27       0.0019
     99  CD1      132.4490   52.5290   11.6610 C.3    27  LEU27       0.0001
    100  CD2      132.2050   51.4920    9.4000 C.3    27  LEU27       0.0001
    101  N        145.1090   53.5300    7.0120 N.3   105  LYS105     -0.1231
    102  CA       145.5910   52.2900    7.5950 C.3   105  LYS105      0.1693
    103  C        144.6500   51.1030    7.4020 C.2   105  LYS105      0.2592
    104  O        144.9660   50.0090    7.8800 O.2   105  LYS105     -0.2718
    105  CB       145.8700   52.4940    9.0960 C.3   105  LYS105      0.0285
    106  CG       144.7670   53.1740    9.9050 C.3   105  LYS105      0.0035
    107  CD       145.0920   53.1850   11.4190 C.3   105  LYS105      0.0206
    108  CE       144.2320   54.2110   12.1970 C.3   105  LYS105      0.1093
    109  NZ       144.2530   54.0580   13.6970 N.3   105  LYS105     -0.1314
    110  N        143.5360   51.2650    6.6860 N.am  106  TYR106     -0.1976
    111  CA       142.4970   50.2460    6.6640 C.3   106  TYR106      0.1639
    112  C        142.3260   49.6090    5.2890 C.2   106  TYR106      0.2290
    113  O        142.4860   50.2580    4.2520 O.2   106  TYR106     -0.2864
    114  CB       141.1520   50.8180    7.1250 C.3   106  TYR106      0.0560
    115  CG       141.0740   51.0680    8.6180 C.ar  106  TYR106     -0.0198
    116  CD1      141.0010   50.0070    9.5090 C.ar  106  TYR106     -0.0009
    117  CD2      141.0660   52.3580    9.1370 C.ar  106  TYR106     -0.0009
    118  CE1      140.9160   50.2170   10.8670 C.ar  106  TYR106      0.0417
    119  CE2      140.9900   52.5760   10.5030 C.ar  106  TYR106      0.0417
    120  CZ       140.9070   51.4960   11.3590 C.ar  106  TYR106      0.1957
    121  OH       140.8290   51.6830   12.7140 O.3   106  TYR106     -0.2866
    122  N        142.5750   46.1400    9.5270 N.3   133  ARG133     -0.1245
    123  CA       143.7730   46.9640    9.6320 C.3   133  ARG133      0.1563
    124  C        144.9100   46.3370    8.8350 C.2   133  ARG133      0.2260
    125  O        145.1070   45.1160    8.8540 O.2   133  ARG133     -0.2867
    126  CB       144.1850   47.1750   11.0890 C.3   133  ARG133      0.0307
    127  CG       145.3610   48.1670   11.2260 C.3   133  ARG133      0.0489
    128  CD       145.5770   48.6970   12.6510 C.3   133  ARG133      0.2205
    129  NE       144.5610   49.6830   13.0520 N.pl3 133  ARG133     -0.0865
    130  CZ       143.4860   49.4210   13.7990 C.cat 133  ARG133      0.5346
    131  NH1      143.2590   48.1920   14.2480 N.pl3 133  ARG133      0.1354
    132  NH2      142.6330   50.3930   14.1030 N.pl3 133  ARG133      0.1354
    133  N        131.4630   46.3670   15.4660 N.3   170  THR170     -0.1218
    134  CA       132.8770   46.6360   15.6720 C.3   170  THR170      0.1862
    135  C        133.5030   45.6660   16.6730 C.2   170  THR170      0.2287
    136  O        134.6470   45.8670   17.0880 O.2   170  THR170     -0.2866
    137  CB       133.0780   48.0900   16.1150 C.3   170  THR170      0.1770
    138  OG1      132.2590   48.3750   17.2590 O.3   170  THR170     -0.2211
    139  CG2      132.6790   49.0180   14.9860 C.3   170  THR170      0.0375
    140  N        131.5270   44.2380   19.5010 N.3   172  GLN172     -0.1245
    141  CA       130.7850   44.2440   20.7530 C.3   172  GLN172      0.1566
    142  C        129.3130   43.9400   20.5070 C.2   172  GLN172      0.2260
    143  O        128.4270   44.5340   21.1220 O.2   172  GLN172     -0.2867
    144  CB       130.9350   45.5940   21.4580 C.3   172  GLN172      0.0367
    145  CG       132.3810   46.0410   21.6660 C.3   172  GLN172      0.0905
    146  CD       133.0250   46.5790   20.3970 C.2   172  GLN172      0.2608
    147  OE1      132.4320   47.3860   19.6670 O.2   172  GLN172     -0.2717
    148  NE2      134.2400   46.1130   20.1120 N.am  172  GLN172     -0.0878
@<TRIPOS>BOND
     1   113   112    2
     2   112   111    1
     3   111   110    1
     4   111   114    1
     5   110   103   am
     6   101   102    1
     7    96    95    2
     8   114   115    1
     9   103   102    1
    10   103   104    2
    11   102   105    1
    12    95    94    1
    13    93    94    1
    14    94    97    1
    15   115   117   ar
    16   115   116   ar
    17   124   125    2
    18   124   123    1
    19   105   106    1
    20   117   119   ar
    21   100    98    1
    22   116   118   ar
    23   122   123    1
    24   123   126    1
    25    97    98    1
    26   106   107    1
    27    98    99    1
    28    89    88    2
    29    81    80    2
    30   119   120   ar
    31    88    87    1
    32   118   120   ar
    33    85    83    1
    34   126   127    1
    35   127   128    1
    36   120   121    1
    37    80    79    1
    38    80    86   am
    39   107   108    1
    40    79    78    1
    41    79    82    1
    42    77    76    2
    43   108   109    1
    44    87    86    1
    45    87    90    1
    46    83    82    1
    47    83    84    1
    48   128   129    1
    49    76    75    1
    50   129   130    2
    51    92    90    1
    52    90    91    1
    53   130   132    1
    54   130   131    1
    55    72    71    1
    56    75    74    1
    57    73    71    1
    58     7     5    1
    59     6     5    1
    60    70    69    2
    61     5     2    1
    62   139   137    1
    63    71    68    1
    64    74    69   am
    65    69    68    1
    66    14    13    1
    67    14    15    1
    68   133   134    1
    69    13    12    1
    70   134   137    1
    71   134   135    1
    72    68    67    1
    73   137   138    1
    74     2     1    1
    75     2     3    1
    76     8     3   am
    77     8     9    1
    78   135   136    2
    79     3     4    2
    80    67    65   am
    81    12     9    1
    82     9    10    1
    83    65    66    2
    84    65    64    1
    85    10    11    2
    86    64    63    1
    87    26    25    1
    88    26    27    1
    89    25    18   am
    90   140   141    1
    91   147   146    2
    92    27    28    2
    93    27    29   am
    94    63    56   am
    95    22    21    1
    96    22    23    1
    97   148   146   am
    98    24    23    1
    99    20    21    1
   100    20    17    1
   101   146   145    1
   102    29    30    1
   103    18    17    1
   104    18    19    2
   105   142   141    1
   106   142   143    2
   107    16    17    1
   108    34    35    1
   109    34    33    1
   110   141   144    1
   111    35    36    1
   112    56    57    2
   113    56    55    1
   114   144   145    1
   115    30    33    1
   116    30    31    1
   117    53    50    1
   118    36    37    2
   119    38    37    1
   120    55    54    1
   121    55    58    1
   122    52    51    2
   123    54    51   am
   124    51    50    1
   125    31    32    2
   126    31    40   am
   127    37    39    1
   128    50    49    1
   129    49    42   am
   130    40    41    1
   131    58    59    1
   132    42    41    1
   133    42    43    2
   134    45    44    1
   135    45    46    1
   136    41    44    1
   137    48    46   am
   138    59    60    1
   139    46    47    2
   140    60    61    1
   141    61    62    1
