@<TRIPOS>MOLECULE
tmp/5q0cF01.pdb
 140 133 0 0 0
SMALL
GASTEIGER

@<TRIPOS>ATOM
      1  N        133.9400   43.0270   -5.2030 N.3    90  GLU90      -0.1245
      2  CA       133.3490   41.9600   -6.0070 C.3    90  GLU90       0.1567
      3  C        133.4390   42.2660   -7.4960 C.2    90  GLU90       0.2260
      4  O        133.5080   41.3470   -8.3210 O.2    90  GLU90      -0.2867
      5  CB       131.8850   41.7540   -5.5890 C.3    90  GLU90       0.0388
      6  CG       131.2480   40.4420   -6.0540 C.3    90  GLU90       0.1160
      7  CD       130.7100   40.5050   -7.4760 C.2    90  GLU90       0.3649
      8  OE1      130.5230   41.6250   -8.0060 O.co2  90  GLU90      -0.2457
      9  OE2      130.4790   39.4280   -8.0670 O.co2  90  GLU90      -0.2457
     10  N        131.1980   43.8230   -1.2190 N.3   111  ASP111     -0.1239
     11  CA       130.3630   43.5380   -2.3780 C.3   111  ASP111      0.1674
     12  C        129.4190   44.7180   -2.5240 C.2   111  ASP111      0.2266
     13  O        128.5110   44.8770   -1.6920 O.2   111  ASP111     -0.2867
     14  CB       129.5760   42.2260   -2.1960 C.3   111  ASP111      0.1410
     15  CG       128.8230   41.7770   -3.4630 C.2   111  ASP111      0.3668
     16  OD1      128.7170   42.5720   -4.4230 O.co2 111  ASP111     -0.2456
     17  OD2      128.3250   40.6160   -3.4920 O.co2 111  ASP111     -0.2456
     18  N        125.0150   43.2820   -3.8190 N.3   114  ASP114     -0.1225
     19  CA       124.7910   41.8610   -3.7030 C.3   114  ASP114      0.1805
     20  C        123.3530   41.5040   -4.0830 C.2   114  ASP114      0.2598
     21  O        122.4040   42.1900   -3.6970 O.2   114  ASP114     -0.2718
     22  CB       125.0850   41.4280   -2.2730 C.3   114  ASP114      0.1424
     23  CG       124.9640   39.9370   -2.0970 C.2   114  ASP114      0.3668
     24  OD1      125.8820   39.2460   -2.6100 O.co2 114  ASP114     -0.2456
     25  OD2      123.9730   39.4810   -1.4780 O.co2 114  ASP114     -0.2456
     26  N        123.1940   40.3700   -4.7580 N.am  115  GLY115     -0.1942
     27  CA       121.8930   39.8840   -5.1710 C.3   115  GLY115      0.2014
     28  C        121.5150   40.3580   -6.5580 C.2   115  GLY115      0.2640
     29  O        120.3730   40.7640   -6.8020 O.2   115  GLY115     -0.2714
     30  N        122.4720   40.2900   -7.4900 N.am  116  SER116     -0.1935
     31  CA       122.2500   40.9120   -8.7860 C.3   116  SER116      0.2055
     32  C        121.1570   40.2010   -9.5710 C.2   116  SER116      0.2643
     33  O        120.4480   40.8460  -10.3530 O.2   116  SER116     -0.2714
     34  CB       123.5470   40.9620   -9.5940 C.3   116  SER116      0.2130
     35  OG       124.0400   39.6650   -9.8400 O.3   116  SER116     -0.2179
     36  N        120.9790   38.8910   -9.3610 N.am  117  SER117     -0.1949
     37  CA       119.8910   38.1900  -10.0370 C.3   117  SER117      0.1924
     38  C        118.5130   38.6770   -9.5900 C.2   117  SER117      0.2314
     39  O        117.5280   38.4230  -10.2940 O.2   117  SER117     -0.2863
     40  CB       120.0240   36.6730   -9.8130 C.3   117  SER117      0.2116
     41  OG       119.5570   36.2800   -8.5220 O.3   117  SER117     -0.2180
     42  N        118.9400   27.0390   -1.6850 N.3   205  ASN205     -0.1240
     43  CA       118.4150   26.7440   -3.0150 C.3   205  ASN205      0.1653
     44  C        118.3400   25.2280   -3.1910 C.2   205  ASN205      0.2266
     45  O        119.3450   24.5730   -3.4810 O.2   205  ASN205     -0.2867
     46  CB       119.2990   27.3870   -4.0730 C.3   205  ASN205      0.1155
     47  CG       118.6820   27.3640   -5.4490 C.2   205  ASN205      0.2627
     48  OD1      117.7500   26.6060   -5.7200 O.2   205  ASN205     -0.2716
     49  ND2      119.2380   28.1620   -6.3490 N.am  205  ASN205     -0.0877
     50  N        119.4800   22.5380   -6.2580 N.3   208  TYR208     -0.1241
     51  CA       120.7440   21.8320   -6.3960 C.3   208  TYR208      0.1605
     52  C        120.7220   20.4570   -5.7230 C.2   208  TYR208      0.2264
     53  O        121.7850   19.8530   -5.5310 O.2   208  TYR208     -0.2867
     54  CB       121.8900   22.6860   -5.8330 C.3   208  TYR208      0.0534
     55  CG       122.0400   24.0380   -6.4940 C.ar  208  TYR208     -0.0201
     56  CD1      122.0730   24.1530   -7.8750 C.ar  208  TYR208     -0.0009
     57  CD2      122.1480   25.2050   -5.7300 C.ar  208  TYR208     -0.0009
     58  CE1      122.2110   25.3860   -8.4850 C.ar  208  TYR208      0.0417
     59  CE2      122.2890   26.4490   -6.3290 C.ar  208  TYR208      0.0417
     60  CZ       122.3160   26.5310   -7.7100 C.ar  208  TYR208      0.1957
     61  OH       122.4410   27.7520   -8.3330 O.3   208  TYR208     -0.2866
     62  N        113.7780   31.4540    0.6900 N.3   237  TYR237     -0.1241
     63  CA       115.0310   31.7020   -0.0340 C.3   237  TYR237      0.1605
     64  C        114.7910   32.8540   -1.0080 C.2   237  TYR237      0.2264
     65  O        114.3390   32.6390   -2.1350 O.2   237  TYR237     -0.2867
     66  CB       115.5180   30.4630   -0.7590 C.3   237  TYR237      0.0534
     67  CG       116.9360   30.5300   -1.2990 C.ar  237  TYR237     -0.0201
     68  CD1      118.0280   30.5660   -0.4410 C.ar  237  TYR237     -0.0009
     69  CD2      117.1860   30.5090   -2.6690 C.ar  237  TYR237     -0.0009
     70  CE1      119.3200   30.5840   -0.9270 C.ar  237  TYR237      0.0417
     71  CE2      118.4810   30.5340   -3.1650 C.ar  237  TYR237      0.0417
     72  CZ       119.5430   30.5660   -2.2820 C.ar  237  TYR237      0.1957
     73  OH       120.8410   30.5780   -2.7460 O.3   237  TYR237     -0.2866
     74  N        117.0700   34.5650   -2.3940 N.3   239  GLY239     -0.1210
     75  CA       118.0490   34.5720   -3.4590 C.3   239  GLY239      0.1956
     76  C        119.0290   35.7250   -3.3890 C.2   239  GLY239      0.2613
     77  O        119.8980   35.8320   -4.2710 O.2   239  GLY239     -0.2717
     78  N        118.8830   36.6130   -2.3970 N.am  240  SER240     -0.1938
     79  CA       119.8690   37.6340   -2.0730 C.3   240  SER240      0.2055
     80  C        120.4440   37.2950   -0.7160 C.2   240  SER240      0.2642
     81  O        119.7140   37.2590    0.2800 O.2   240  SER240     -0.2714
     82  CB       119.2650   39.0330   -2.0470 C.3   240  SER240      0.2130
     83  OG       119.0070   39.4840   -3.3590 O.3   240  SER240     -0.2179
     84  N        121.7550   37.0670   -0.6820 N.am  241  MET241     -0.1976
     85  CA       122.4030   36.6580    0.5520 C.3   241  MET241      0.1605
     86  C        122.0840   37.6170    1.6890 C.2   241  MET241      0.2287
     87  O        121.7390   37.1850    2.7920 O.2   241  MET241     -0.2864
     88  CB       123.9100   36.5630    0.3310 C.3   241  MET241      0.0413
     89  CG       124.6250   35.8030    1.4090 C.3   241  MET241      0.0598
     90  SD       126.3840   36.1640    1.3870 S.3   241  MET241     -0.1393
     91  CE       126.2990   37.7440    2.1870 C.3   241  MET241      0.0692
     92  N        120.8220   29.4770    7.2880 N.3   255  PHE255     -0.1241
     93  CA       121.0210   29.7880    5.8830 C.3   255  PHE255      0.1605
     94  C        122.1660   28.9410    5.3550 C.2   255  PHE255      0.2264
     95  O        123.2180   28.8400    6.0000 O.2   255  PHE255     -0.2867
     96  CB       121.3340   31.2870    5.6810 C.3   255  PHE255      0.0534
     97  CG       121.7610   31.6330    4.2880 C.ar  255  PHE255     -0.0203
     98  CD1      120.8160   31.8070    3.2890 C.ar  255  PHE255     -0.0042
     99  CD2      123.1080   31.8060    3.9800 C.ar  255  PHE255     -0.0042
    100  CE1      121.2060   32.1410    1.9940 C.ar  255  PHE255     -0.0003
    101  CE2      123.5140   32.1310    2.6970 C.ar  255  PHE255     -0.0003
    102  CZ       122.5570   32.3030    1.6970 C.ar  255  PHE255     -0.0000
    103  N        124.5780   27.7720    1.8600 N.3   257  TYR257     -0.1241
    104  CA       125.0710   27.5900    0.4950 C.3   257  TYR257      0.1605
    105  C        126.2650   26.6460    0.5810 C.2   257  TYR257      0.2264
    106  O        127.4320   27.0710    0.5570 O.2   257  TYR257     -0.2867
    107  CB       125.4220   28.9130   -0.1860 C.3   257  TYR257      0.0534
    108  CG       125.3070   28.7990   -1.6940 C.ar  257  TYR257     -0.0201
    109  CD1      124.5160   29.6790   -2.4070 C.ar  257  TYR257     -0.0009
    110  CD2      125.9360   27.7680   -2.3920 C.ar  257  TYR257     -0.0009
    111  CE1      124.3750   29.5700   -3.7600 C.ar  257  TYR257      0.0417
    112  CE2      125.7990   27.6500   -3.7550 C.ar  257  TYR257      0.0417
    113  CZ       125.0180   28.5620   -4.4340 C.ar  257  TYR257      0.1957
    114  OH       124.8710   28.4850   -5.7970 O.3   257  TYR257     -0.2866
    115  N        129.6960   28.5940   -3.7110 N.3   267  LYS267     -0.1231
    116  CA       129.5610   29.7100   -4.6390 C.3   267  LYS267      0.1693
    117  C        129.9840   31.0450   -4.0400 C.2   267  LYS267      0.2591
    118  O        130.6630   31.8250   -4.7130 O.2   267  LYS267     -0.2718
    119  CB       128.1190   29.8210   -5.1430 C.3   267  LYS267      0.0285
    120  CG       127.9200   31.0400   -6.0310 C.3   267  LYS267      0.0035
    121  CD       126.4720   31.2170   -6.4700 C.3   267  LYS267      0.0206
    122  CE       126.3060   32.5450   -7.2110 C.3   267  LYS267      0.1093
    123  NZ       124.8520   32.8140   -7.4160 N.3   267  LYS267     -0.1314
    124  N        129.6270   31.3010   -2.7810 N.am  268  LEU268     -0.1980
    125  CA       129.7940   32.6090   -2.1690 C.3   268  LEU268      0.1596
    126  C        131.2700   32.8940   -1.8830 C.2   268  LEU268      0.2287
    127  O        132.0810   31.9800   -1.6860 O.2   268  LEU268     -0.2864
    128  CB       128.9560   32.6970   -0.8870 C.3   268  LEU268      0.0297
    129  CG       127.4530   32.4560   -1.0940 C.3   268  LEU268      0.0022
    130  CD1      126.6160   32.5590    0.1910 C.3   268  LEU268      0.0001
    131  CD2      126.9530   33.4260   -2.1430 C.3   268  LEU268      0.0001
    132  N        131.7520   38.4400    1.0980 N.3   273  GLU273     -0.1245
    133  CA       130.4060   37.9210    1.3570 C.3   273  GLU273      0.1567
    134  C        130.3760   37.0990    2.6350 C.2   273  GLU273      0.2260
    135  O        129.6650   37.4570    3.5770 O.2   273  GLU273     -0.2867
    136  CB       129.8940   37.0920    0.1650 C.3   273  GLU273      0.0388
    137  CG       129.6500   37.9490   -1.0780 C.3   273  GLU273      0.1160
    138  CD       129.0720   37.1890   -2.2730 C.2   273  GLU273      0.3649
    139  OE1      129.5580   36.0750   -2.5590 O.co2 273  GLU273     -0.2457
    140  OE2      128.1640   37.7350   -2.9570 O.co2 273  GLU273     -0.2457
@<TRIPOS>BOND
     1    33    32    2
     2    39    38    2
     3    37    40    1
     4    37    38    1
     5    37    36    1
     6    35    34    1
     7    40    41    1
     8    34    31    1
     9    32    36   am
    10    32    31    1
    11    31    30    1
    12    58    56   ar
    13    58    60   ar
    14    61    60    1
    15     4     3    2
    16     9     7   ar
    17     8     7   ar
    18    56    55   ar
    19    60    59   ar
    20     3     2    1
    21    30    28   am
    22     7     6    1
    23   123   122    1
    24   122   121    1
    25    29    28    2
    26    28    27    1
    27    55    54    1
    28    55    57   ar
    29   121   120    1
    30    51    50    1
    31    51    54    1
    32    51    52    1
    33    49    47   am
    34    59    57   ar
    35     6     5    1
    36   120   119    1
    37     2     5    1
    38     2     1    1
    39   114   113    1
    40    52    53    2
    41    48    47    2
    42    47    46    1
    43    27    26    1
    44   119   116    1
    45    26    20   am
    46   118   117    2
    47   116   117    1
    48   116   115    1
    49   113   111   ar
    50   113   112   ar
    51    16    15   ar
    52    77    76    2
    53    20    19    1
    54    20    21    2
    55    46    43    1
    56   117   124   am
    57    18    19    1
    58   111   109   ar
    59   112   110   ar
    60    19    22    1
    61    17    15   ar
    62    45    44    2
    63    15    14    1
    64    75    76    1
    65    75    74    1
    66    76    78   am
    67    83    82    1
    68    44    43    1
    69    71    69   ar
    70    71    72   ar
    71    43    42    1
    72   140   138   ar
    73   124   125    1
    74    73    72    1
    75    69    67   ar
    76    24    23   ar
    77   139   138   ar
    78    12    11    1
    79    12    13    2
    80   109   108   ar
    81    78    79    1
    82   110   108   ar
    83    11    14    1
    84    11    10    1
    85    72    70   ar
    86   138   137    1
    87    22    23    1
    88   125   126    1
    89   125   128    1
    90   131   129    1
    91    65    64    2
    92    23    25   ar
    93    79    82    1
    94    79    80    1
    95   126   127    2
    96   108   107    1
    97    67    66    1
    98    67    68   ar
    99   129   128    1
   100   129   130    1
   101   137   136    1
   102    64    63    1
   103    70    68   ar
   104    66    63    1
   105    80    84   am
   106    80    81    2
   107    84    85    1
   108   107   104    1
   109    63    62    1
   110   136   133    1
   111    88    85    1
   112    88    89    1
   113   104   105    1
   114   104   103    1
   115    85    86    1
   116   106   105    2
   117   132   133    1
   118   133   134    1
   119    90    89    1
   120    90    91    1
   121    86    87    2
   122   102   100   ar
   123   102   101   ar
   124   100    98   ar
   125   134   135    2
   126   101    99   ar
   127    98    97   ar
   128    99    97   ar
   129    97    96    1
   130    94    93    1
   131    94    95    2
   132    96    93    1
   133    93    92    1
