@<TRIPOS>MOLECULE
tmp/5q0eA00.pdb
 202 200 0 0 0
SMALL
GASTEIGER

@<TRIPOS>ATOM
      1  N         49.4610  -27.3180   37.1260 N.3    26  ARG26      -0.1231
      2  CA        49.2370  -25.9210   36.7580 C.3    26  ARG26       0.1694
      3  C         47.7720  -25.5750   37.0160 C.2    26  ARG26       0.2592
      4  O         46.9160  -26.4700   37.0500 O.2    26  ARG26      -0.2718
      5  CB        49.6040  -25.6670   35.2740 C.3    26  ARG26       0.0321
      6  CG        48.6900  -26.4090   34.2900 C.3    26  ARG26       0.0489
      7  CD        49.0320  -26.2700   32.8200 C.3    26  ARG26       0.2205
      8  NE        48.0730  -27.0530   32.0280 N.pl3  26  ARG26      -0.0865
      9  CZ        47.1200  -26.5430   31.2510 C.cat  26  ARG26       0.5346
     10  NH1       47.0300  -25.2330   31.0730 N.pl3  26  ARG26       0.1354
     11  NH2       46.2810  -27.3440   30.6090 N.pl3  26  ARG26       0.1354
     12  N         47.4900  -24.2780   37.1460 N.am   27  HIS27      -0.1962
     13  CA        46.1390  -23.7490   37.2710 C.3    27  HIS27       0.1787
     14  C         45.4210  -24.1060   35.9500 C.2    27  HIS27       0.2620
     15  O         46.0030  -23.9420   34.8760 O.2    27  HIS27      -0.2715
     16  CB        46.1900  -22.2190   37.4500 C.3    27  HIS27       0.0785
     17  CG        44.8760  -21.5360   37.2090 C.ar   27  HIS27       0.0821
     18  ND1       43.9620  -21.3430   38.2390 N.ar   27  HIS27      -0.2267
     19  CD2       44.3730  -20.9990   36.0680 C.ar   27  HIS27       0.1154
     20  CE1       42.9220  -20.7310   37.6920 C.ar   27  HIS27       0.1986
     21  NE2       43.1130  -20.5120   36.3820 N.ar   27  HIS27      -0.2212
     22  N         44.1980  -24.6330   36.0410 N.am   28  LEU28      -0.1963
     23  CA        43.3930  -25.0050   34.8820 C.3    28  LEU28       0.1728
     24  C         42.2370  -24.0200   34.6810 C.2    28  LEU28       0.2616
     25  O         42.0170  -23.5260   33.5710 O.2    28  LEU28      -0.2715
     26  CB        42.8400  -26.4280   35.0880 C.3    28  LEU28       0.0311
     27  CG        42.0100  -27.0460   33.9640 C.3    28  LEU28       0.0022
     28  CD1       42.9100  -27.4360   32.7840 C.3    28  LEU28       0.0001
     29  CD2       41.2140  -28.2610   34.4780 C.3    28  LEU28       0.0001
     30  N         41.4770  -23.7650   35.7480 N.am   29  CYS29      -0.1968
     31  CA        40.2650  -22.9610   35.6850 C.3    29  CYS29       0.1712
     32  C         39.9290  -22.3890   37.0510 C.2    29  CYS29       0.2296
     33  O         40.4720  -22.8250   38.0580 O.2    29  CYS29      -0.2864
     34  CB        39.1180  -23.8530   35.1860 C.3    29  CYS29       0.0983
     35  SG        38.9380  -23.8880   33.3810 S.3    29  CYS29      -0.0798
     36  N         33.5310  -26.6130   29.7900 N.3    44  HIS44      -0.1226
     37  CA        34.6520  -26.6170   28.8150 C.3    44  HIS44       0.1752
     38  C         36.0460  -26.7670   29.4540 C.2    44  HIS44       0.2596
     39  O         37.0090  -27.1220   28.7600 O.2    44  HIS44      -0.2718
     40  CB        34.6010  -25.4110   27.8620 C.3    44  HIS44       0.0759
     41  CG        35.1310  -24.1450   28.4490 C.ar   44  HIS44       0.0818
     42  ND1       34.2880  -23.1760   28.9320 N.ar   44  HIS44      -0.2268
     43  CD2       36.4090  -23.7380   28.6160 C.ar   44  HIS44       0.1154
     44  CE1       35.0590  -22.1930   29.3480 C.ar   44  HIS44       0.1986
     45  NE2       36.3500  -22.4950   29.2010 N.ar   44  HIS44      -0.2212
     46  N         36.1510  -26.5280   30.7700 N.am   45  CYS45      -0.1970
     47  CA        37.4010  -26.7120   31.5290 C.3    45  CYS45       0.1712
     48  C         37.8910  -28.1600   31.5050 C.2    45  CYS45       0.2296
     49  O         39.0650  -28.3940   31.7610 O.2    45  CYS45      -0.2864
     50  CB        37.1950  -26.2570   32.9720 C.3    45  CYS45       0.0983
     51  SG        37.0070  -24.4720   33.1430 S.3    45  CYS45      -0.0798
     52  N         37.7820  -30.3470   28.9250 N.3    47  TYR47      -0.1241
     53  CA        38.1230  -30.8690   27.6000 C.3    47  TYR47       0.1605
     54  C         39.4150  -31.7000   27.7530 C.2    47  TYR47       0.2264
     55  O         40.3920  -31.2030   28.3080 O.2    47  TYR47      -0.2867
     56  CB        38.3280  -29.7180   26.5810 C.3    47  TYR47       0.0534
     57  CG        38.6900  -30.2410   25.2060 C.ar   47  TYR47      -0.0201
     58  CD1       37.7060  -30.7090   24.3370 C.ar   47  TYR47      -0.0009
     59  CD2       40.0240  -30.3610   24.8120 C.ar   47  TYR47      -0.0009
     60  CE1       38.0350  -31.2420   23.0900 C.ar   47  TYR47       0.0417
     61  CE2       40.3660  -30.8970   23.5670 C.ar   47  TYR47       0.0417
     62  CZ        39.3640  -31.3150   22.7020 C.ar   47  TYR47       0.1957
     63  OH        39.6750  -31.8360   21.4750 O.3    47  TYR47      -0.2866
     64  N         44.8780  -14.3040   32.3060 N.3   134  TYR134     -0.1241
     65  CA        45.7180  -13.3580   31.5710 C.3   134  TYR134      0.1605
     66  C         45.1670  -11.9370   31.6790 C.2   134  TYR134      0.2264
     67  O         43.9550  -11.7590   31.8070 O.2   134  TYR134     -0.2867
     68  CB        45.7200  -13.7530   30.0880 C.3   134  TYR134      0.0534
     69  CG        46.5090  -14.9780   29.6640 C.ar  134  TYR134     -0.0201
     70  CD1       46.9080  -15.9410   30.5930 C.ar  134  TYR134     -0.0009
     71  CD2       46.7720  -15.2240   28.3160 C.ar  134  TYR134     -0.0009
     72  CE1       47.5560  -17.1110   30.1910 C.ar  134  TYR134      0.0417
     73  CE2       47.4280  -16.3860   27.9040 C.ar  134  TYR134      0.0417
     74  CZ        47.8130  -17.3270   28.8420 C.ar  134  TYR134      0.1957
     75  OH        48.4860  -18.4430   28.4170 O.3   134  TYR134     -0.2866
     76  N         45.5570  -10.9410   25.7420 N.3   137  LEU137     -0.1245
     77  CA        45.4770  -12.1570   24.9270 C.3   137  LEU137      0.1561
     78  C         46.7170  -13.0550   24.9970 C.2   137  LEU137      0.2260
     79  O         46.5600  -14.2780   25.0540 O.2   137  LEU137     -0.2867
     80  CB        45.1030  -11.8440   23.4720 C.3   137  LEU137      0.0270
     81  CG        44.2000  -12.8730   22.7580 C.3   137  LEU137      0.0019
     82  CD1       43.0810  -13.4030   23.6600 C.3   137  LEU137      0.0001
     83  CD2       43.5890  -12.2800   21.5010 C.3   137  LEU137      0.0001
     84  N         50.2810  -14.4880   30.8230 N.3   140  LYS140     -0.1231
     85  CA        50.4960  -15.6360   31.6730 C.3   140  LYS140      0.1693
     86  C         49.5290  -15.5460   32.8450 C.2   140  LYS140      0.2591
     87  O         48.9850  -14.4710   33.1250 O.2   140  LYS140     -0.2718
     88  CB        51.9720  -15.6690   32.1520 C.3   140  LYS140      0.0285
     89  CG        52.4340  -14.4320   32.8880 C.3   140  LYS140      0.0035
     90  CD        53.8660  -14.5080   33.3780 C.3   140  LYS140      0.0206
     91  CE        54.0160  -13.3910   34.3890 C.3   140  LYS140      0.1093
     92  NZ        55.3820  -13.0330   34.6710 N.3   140  LYS140     -0.1314
     93  N         49.3340  -16.6650   33.5290 N.am  141  ILE141     -0.1980
     94  CA        48.4950  -16.7610   34.7340 C.3   141  ILE141      0.1595
     95  C         49.0730  -15.7820   35.7740 C.2   141  ILE141      0.2287
     96  O         50.2920  -15.6810   35.9120 O.2   141  ILE141     -0.2864
     97  CB        48.4420  -18.2480   35.2160 C.3   141  ILE141      0.0276
     98  CG1       47.5890  -19.1070   34.2480 C.3   141  ILE141      0.0022
     99  CG2       47.9710  -18.4300   36.6870 C.3   141  ILE141      0.0022
    100  CD1       46.1410  -18.5610   33.8640 C.3   141  ILE141      0.0001
    101  N         37.4140   -7.2050   31.3590 N.3   182  ASP182     -0.1225
    102  CA        36.8050   -8.4950   30.9870 C.3   182  ASP182      0.1805
    103  C         37.5790   -9.6270   31.6100 C.2   182  ASP182      0.2598
    104  O         38.6930   -9.4400   32.1070 O.2   182  ASP182     -0.2718
    105  CB        36.9410   -8.6760   29.4440 C.3   182  ASP182      0.1424
    106  CG        36.0470   -9.6970   28.7530 C.2   182  ASP182      0.3668
    107  OD1       35.1420  -10.2620   29.4250 O.co2 182  ASP182     -0.2456
    108  OD2       36.2370   -9.9170   27.5400 O.co2 182  ASP182     -0.2456
    109  N         37.0430  -10.8330   31.4380 N.am  183  ALA183     -0.1966
    110  CA        37.7240  -12.0680   31.7560 C.3   183  ALA183      0.1728
    111  C         38.6500  -12.3400   30.5730 C.2   183  ALA183      0.2616
    112  O         38.4710  -11.7580   29.4900 O.2   183  ALA183     -0.2715
    113  CB        36.7040  -13.1840   31.8630 C.3   183  ALA183      0.0334
    114  N         39.6430  -13.1980   30.7780 N.am  184  CYS184     -0.1954
    115  CA        40.5500  -13.6230   29.7130 C.3   184  CYS184      0.1843
    116  C         41.0120  -15.0600   30.0130 C.2   184  CYS184      0.2625
    117  O         40.4970  -15.6790   30.9480 O.2   184  CYS184     -0.2714
    118  CB        41.7180  -12.6470   29.5260 C.3   184  CYS184      0.0997
    119  SG        42.4120  -12.6370   27.8410 S.3   184  CYS184     -0.0797
    120  N         41.9120  -15.6160   29.2070 N.am  185  LYS185     -0.1963
    121  CA        42.4210  -16.9900   29.3460 C.3   185  LYS185      0.1728
    122  C         42.8340  -17.3460   30.7820 C.2   185  LYS185      0.2616
    123  O         43.6700  -16.6600   31.3660 O.2   185  LYS185     -0.2715
    124  CB        43.6060  -17.1810   28.4030 C.3   185  LYS185      0.0311
    125  CG        43.2240  -17.0750   26.9380 C.3   185  LYS185      0.0038
    126  CD        44.4240  -17.4090   26.0410 C.3   185  LYS185      0.0206
    127  CE        44.0760  -17.3440   24.5730 C.3   185  LYS185      0.1093
    128  NZ        44.9970  -18.1800   23.7660 N.3   185  LYS185     -0.1314
    129  N         42.2590  -18.4150   31.3280 N.am  186  GLY186     -0.1955
    130  CA        42.5390  -18.8630   32.6960 C.3   186  GLY186      0.1869
    131  C         41.4890  -18.4320   33.6960 C.2   186  GLY186      0.2309
    132  O         41.4560  -18.9380   34.8230 O.2   186  GLY186     -0.2863
    133  N         38.1040  -18.7010   33.0070 N.3   188  SER188     -0.1217
    134  CA        36.9330  -19.5610   32.7680 C.3   188  SER188      0.1889
    135  C         36.5740  -20.4300   33.9420 C.2   188  SER188      0.2288
    136  O         37.4730  -20.9610   34.6030 O.2   188  SER188     -0.2866
    137  CB        37.1630  -20.4510   31.5600 C.3   188  SER188      0.2089
    138  OG        36.8270  -19.7560   30.3760 O.3   188  SER188     -0.2183
    139  N         32.1040  -17.5940   34.1170 N.3   206  THR206     -0.1203
    140  CA        32.9510  -17.1400   32.9900 C.3   206  THR206      0.1994
    141  C         33.0440  -18.2430   31.9470 C.2   206  THR206      0.2619
    142  O         33.4590  -19.3610   32.2660 O.2   206  THR206     -0.2717
    143  CB        34.3210  -16.6940   33.4930 C.3   206  THR206      0.1784
    144  OG1       34.1300  -15.6910   34.4910 O.3   206  THR206     -0.2211
    145  CG2       35.2470  -16.1940   32.3490 C.3   206  THR206      0.0376
    146  N         32.6480  -17.9280   30.7080 N.am  207  SER207     -0.1937
    147  CA        32.5470  -18.9450   29.6580 C.3   207  SER207      0.2055
    148  C         33.3550  -18.6070   28.4230 C.2   207  SER207      0.2643
    149  O         34.3550  -19.2780   28.1540 O.2   207  SER207     -0.2714
    150  CB        31.0680  -19.2110   29.3240 C.3   207  SER207      0.2130
    151  OG        30.8760  -20.2520   28.3790 O.3   207  SER207     -0.2179
    152  N         32.9580  -17.5710   27.6750 N.am  208  TRP208     -0.1959
    153  CA        33.7040  -17.2670   26.4340 C.3   208  TRP208      0.1771
    154  C         33.5240  -15.8080   25.9810 C.2   208  TRP208      0.2620
    155  O         32.7040  -15.0850   26.5300 O.2   208  TRP208     -0.2715
    156  CB        33.3000  -18.2690   25.3060 C.3   208  TRP208      0.0590
    157  CG        31.8680  -18.1330   24.8600 C.ar  208  TRP208      0.0006
    158  CD1       30.7690  -18.6430   25.4810 C.ar  208  TRP208      0.0946
    159  CD2       31.3790  -17.3550   23.7440 C.ar  208  TRP208      0.0152
    160  NE1       29.6280  -18.2500   24.8180 N.ar  208  TRP208     -0.2442
    161  CE2       29.9760  -17.4900   23.7260 C.ar  208  TRP208      0.0810
    162  CE3       32.0020  -16.6070   22.7220 C.ar  208  TRP208      0.0012
    163  CZ2       29.1740  -16.8900   22.7350 C.ar  208  TRP208      0.0191
    164  CZ3       31.2090  -15.9710   21.7710 C.ar  208  TRP208      0.0001
    165  CH2       29.8180  -16.1490   21.7570 C.ar  208  TRP208      0.0015
    166  N         34.3210  -15.3950   25.0160 N.am  209  GLY209     -0.1954
    167  CA        34.2420  -14.0750   24.3920 C.3   209  GLY209      0.1869
    168  C         35.0660  -14.0850   23.1150 C.2   209  GLY209      0.2309
    169  O         35.9000  -14.9870   22.9360 O.2   209  GLY209     -0.2863
    170  N         38.0420  -12.6960   21.7330 N.3   211  GLY211     -0.1210
    171  CA        39.2210  -12.0230   22.2840 C.3   211  GLY211      0.1956
    172  C         38.9270  -11.6260   23.7310 C.2   211  GLY211      0.2612
    173  O         38.0040  -12.1760   24.3390 O.2   211  GLY211     -0.2717
    174  N         39.6650  -10.6660   24.2920 N.am  212  CYS212     -0.1970
    175  CA        39.4710  -10.2280   25.6850 C.3   212  CYS212      0.1712
    176  C         39.3440   -8.7220   25.7720 C.2   212  CYS212      0.2296
    177  O         40.2060   -8.0390   25.2310 O.2   212  CYS212     -0.2864
    178  CB        40.6120  -10.7160   26.5710 C.3   212  CYS212      0.0983
    179  SG        40.8980  -12.4980   26.4980 S.3   212  CYS212     -0.0798
    180  N         31.8890  -10.1350   27.5270 N.3   219  GLY219     -0.1210
    181  CA        32.1750  -11.4870   27.9770 C.3   219  GLY219      0.1956
    182  C         30.8450  -12.2080   28.0540 C.2   219  GLY219      0.2612
    183  O         29.8310  -11.5930   28.3720 O.2   219  GLY219     -0.2717
    184  N         30.8250  -13.4950   27.7050 N.am  220  VAL220     -0.1965
    185  CA        29.6250  -14.3380   27.7420 C.3   220  VAL220      0.1727
    186  C         29.7810  -15.2940   28.9000 C.2   220  VAL220      0.2616
    187  O         30.8100  -15.9680   29.0270 O.2   220  VAL220     -0.2715
    188  CB        29.3340  -15.0550   26.3930 C.3   220  VAL220      0.0290
    189  CG1       27.9690  -15.7500   26.4270 C.3   220  VAL220      0.0023
    190  CG2       29.3950  -14.0540   25.2180 C.3   220  VAL220      0.0023
    191  N         28.7750  -15.3120   29.7670 N.am  221  TYR221     -0.1974
    192  CA        28.7570  -16.1050   30.9770 C.3   221  TYR221      0.1639
    193  C         27.5850  -17.0530   30.9770 C.2   221  TYR221      0.2290
    194  O         26.5440  -16.7280   30.4080 O.2   221  TYR221     -0.2864
    195  CB        28.6580  -15.1820   32.2160 C.3   221  TYR221      0.0560
    196  CG        29.8260  -14.2180   32.3440 C.ar  221  TYR221     -0.0198
    197  CD1       29.8940  -13.0620   31.5650 C.ar  221  TYR221     -0.0009
    198  CD2       30.8470  -14.4480   33.2630 C.ar  221  TYR221     -0.0009
    199  CE1       30.9850  -12.1990   31.6500 C.ar  221  TYR221      0.0417
    200  CE2       31.9280  -13.5720   33.3790 C.ar  221  TYR221      0.0417
    201  CZ        31.9920  -12.4490   32.5670 C.ar  221  TYR221      0.1957
    202  OH        33.0530  -11.5850   32.6760 O.3   221  TYR221     -0.2866
@<TRIPOS>BOND
     1    63    62    1
     2    83    81    1
     3   170   171    1
     4   165   164   ar
     5   165   163   ar
     6   164   162   ar
     7   171   172    1
     8    62    60   ar
     9    62    61   ar
    10   162   159   ar
    11   163   161   ar
    12    81    80    1
    13    81    82    1
    14   169   168    2
    15    60    58   ar
    16   168   167    1
    17    80    77    1
    18    61    59   ar
    19   161   159   ar
    20   161   160   ar
    21   172   174   am
    22   172   173    2
    23   159   157   ar
    24   128   127    1
    25   174   175    1
    26    58    57   ar
    27   167   166    1
    28   127   126    1
    29    59    57   ar
    30   160   158   ar
    31   157   156    1
    32   157   158   ar
    33    77    78    1
    34    77    76    1
    35    78    79    2
    36   166   154   am
    37    57    56    1
    38   190   188    1
    39   177   176    2
    40   156   153    1
    41   175   176    1
    42   175   178    1
    43   154   153    1
    44   154   155    2
    45   126   125    1
    46   188   189    1
    47   188   185    1
    48   153   152    1
    49   179   178    1
    50   179   119    1
    51    56    53    1
    52   125   124    1
    53   180   181    1
    54   108   106   ar
    55    53    54    1
    56    53    52    1
    57   152   148   am
    58   184   185    1
    59   184   182   am
    60   185   186    1
    61    54    55    2
    62   119   118    1
    63    40    41    1
    64    40    37    1
    65    73    71   ar
    66    73    74   ar
    67   181   182    1
    68   182   183    2
    69   149   148    2
    70    71    69   ar
    71   151   150    1
    72   124   121    1
    73    75    74    1
    74   148   147    1
    75    41    43   ar
    76    41    42   ar
    77    43    45   ar
    78   106   107   ar
    79   106   105    1
    80    39    38    2
    81    37    38    1
    82    37    36    1
    83    74    72   ar
    84   186   187    2
    85   186   191   am
    86    42    44   ar
    87    45    44   ar
    88   120   121    1
    89   120   116   am
    90   150   147    1
    91   121   122    1
    92   105   102    1
    93    38    46   am
    94   112   111    2
    95   118   115    1
    96   147   146    1
    97    69    68    1
    98    69    70   ar
    99   115   116    1
   100   115   114    1
   101   191   192    1
   102   116   117    2
   103    68    65    1
   104    72    70   ar
   105   138   137    1
   106   194   193    2
   107   111   114   am
   108   111   110    1
   109    11     9    1
   110   146   141   am
   111    46    47    1
   112   122   129   am
   113   122   123    2
   114    84    85    1
   115   193   192    1
   116   192   195    1
   117   102   101    1
   118   102   103    1
   119    10     9    1
   120     9     8    2
   121   129   130    1
   122   109   103   am
   123   109   110    1
   124    48    47    1
   125    48    49    2
   126    47    50    1
   127   137   134    1
   128   197   199   ar
   129   197   196   ar
   130    65    66    1
   131    65    64    1
   132   103   104    2
   133   199   201   ar
   134    85    88    1
   135    85    86    1
   136    66    67    2
   137   110   113    1
   138   141   142    2
   139   141   140    1
   140     8     7    1
   141    88    89    1
   142   195   196    1
   143   196   198   ar
   144   145   143    1
   145   201   202    1
   146   201   200   ar
   147   130   131    1
   148   134   133    1
   149   134   135    1
   150    28    27    1
   151     7     6    1
   152    86    87    2
   153    86    93   am
   154    89    90    1
   155    50    51    1
   156   140   143    1
   157   140   139    1
   158    51    35    1
   159   198   200   ar
   160    90    91    1
   161    35    34    1
   162   143   144    1
   163    93    94    1
   164    25    24    2
   165   131   132    2
   166   100    98    1
   167   135   136    2
   168    27    29    1
   169    27    26    1
   170    98    97    1
   171     6     5    1
   172    91    92    1
   173    24    23    1
   174    24    30   am
   175    94    97    1
   176    94    95    1
   177    15    14    2
   178    23    26    1
   179    23    22    1
   180    34    31    1
   181    97    99    1
   182     5     2    1
   183    31    30    1
   184    31    32    1
   185    95    96    2
   186    14    22   am
   187    14    13    1
   188    19    21   ar
   189    19    17   ar
   190    21    20   ar
   191     2     3    1
   192     2     1    1
   193     3     4    2
   194     3    12   am
   195    32    33    2
   196    12    13    1
   197    17    16    1
   198    17    18   ar
   199    13    16    1
   200    20    18   ar
