@<TRIPOS>MOLECULE
tmp/5q0hA00.pdb
 182 180 0 0 0
SMALL
GASTEIGER

@<TRIPOS>ATOM
      1  N         49.3530  -27.3330   37.2220 N.3    26  ARG26      -0.1231
      2  CA        49.1250  -25.9520   36.8140 C.3    26  ARG26       0.1694
      3  C         47.6740  -25.5530   36.9960 C.2    26  ARG26       0.2592
      4  O         46.7880  -26.4070   37.0140 O.2    26  ARG26      -0.2718
      5  CB        49.6050  -25.6880   35.3630 C.3    26  ARG26       0.0321
      6  CG        48.8200  -26.3800   34.2600 C.3    26  ARG26       0.0489
      7  CD        49.6230  -26.3210   32.9690 C.3    26  ARG26       0.2205
      8  NE        48.9720  -25.5190   31.9280 N.pl3  26  ARG26      -0.0865
      9  CZ        49.5490  -24.5180   31.2620 C.cat  26  ARG26       0.5346
     10  NH1       50.8080  -24.1730   31.5200 N.pl3  26  ARG26       0.1354
     11  NH2       48.8720  -23.8560   30.3310 N.pl3  26  ARG26       0.1354
     12  N         47.4260  -24.2370   37.1340 N.am   27  HIS27      -0.1962
     13  CA        46.0790  -23.7100   37.2220 C.3    27  HIS27       0.1787
     14  C         45.3690  -24.1020   35.8990 C.2    27  HIS27       0.2620
     15  O         45.9820  -24.0810   34.8160 O.2    27  HIS27      -0.2715
     16  CB        46.1340  -22.2070   37.4150 C.3    27  HIS27       0.0785
     17  CG        44.8290  -21.5010   37.1470 C.ar   27  HIS27       0.0821
     18  ND1       43.8970  -21.2930   38.1520 N.ar   27  HIS27      -0.2267
     19  CD2       44.3660  -20.9540   35.9950 C.ar   27  HIS27       0.1154
     20  CE1       42.9140  -20.6200   37.5840 C.ar   27  HIS27       0.1986
     21  NE2       43.1510  -20.4030   36.2810 N.ar   27  HIS27      -0.2212
     22  N         44.1120  -24.5300   36.0110 N.am   28  LEU28      -0.1963
     23  CA        43.2970  -24.9510   34.8760 C.3    28  LEU28       0.1728
     24  C         42.1250  -23.9870   34.6500 C.2    28  LEU28       0.2616
     25  O         41.9050  -23.5100   33.5330 O.2    28  LEU28      -0.2715
     26  CB        42.7720  -26.3780   35.1040 C.3    28  LEU28       0.0311
     27  CG        41.8470  -26.9300   34.0270 C.3    28  LEU28       0.0022
     28  CD1       42.5980  -27.1940   32.7440 C.3    28  LEU28       0.0001
     29  CD2       41.0730  -28.1380   34.5250 C.3    28  LEU28       0.0001
     30  N         41.3780  -23.7100   35.7200 N.am   29  CYS29      -0.1968
     31  CA        40.1570  -22.9080   35.6700 C.3    29  CYS29       0.1712
     32  C         39.8960  -22.3290   37.0490 C.2    29  CYS29       0.2296
     33  O         40.4670  -22.7730   38.0650 O.2    29  CYS29      -0.2864
     34  CB        38.9840  -23.8110   35.2490 C.3    29  CYS29       0.0983
     35  SG        38.7430  -23.9610   33.4470 S.3    29  CYS29      -0.0798
     36  N         33.4870  -26.5850   29.8240 N.3    44  HIS44      -0.1226
     37  CA        34.5940  -26.5710   28.8450 C.3    44  HIS44       0.1752
     38  C         35.9520  -26.8270   29.5050 C.2    44  HIS44       0.2596
     39  O         36.9080  -27.2380   28.8320 O.2    44  HIS44      -0.2718
     40  CB        34.6170  -25.3210   27.9480 C.3    44  HIS44       0.0759
     41  CG        35.1210  -24.0740   28.6110 C.ar   44  HIS44       0.0818
     42  ND1       34.2620  -23.0670   28.9930 N.ar   44  HIS44      -0.2268
     43  CD2       36.3830  -23.7150   28.9430 C.ar   44  HIS44       0.1154
     44  CE1       35.0150  -22.1480   29.5620 C.ar   44  HIS44       0.1986
     45  NE2       36.2980  -22.5080   29.5700 N.ar   44  HIS44      -0.2212
     46  N         36.0220  -26.5890   30.8170 N.am   45  CYS45      -0.1970
     47  CA        37.2350  -26.7790   31.6090 C.3    45  CYS45       0.1712
     48  C         37.7770  -28.1990   31.5330 C.2    45  CYS45       0.2296
     49  O         38.9860  -28.3880   31.6490 O.2    45  CYS45      -0.2864
     50  CB        36.9920  -26.3570   33.0560 C.3    45  CYS45       0.0983
     51  SG        36.7980  -24.5740   33.2660 S.3    45  CYS45      -0.0798
     52  N         37.7420  -30.3880   28.9620 N.3    47  TYR47      -0.1241
     53  CA        38.0670  -30.9100   27.6380 C.3    47  TYR47       0.1605
     54  C         39.3500  -31.7530   27.7760 C.2    47  TYR47       0.2264
     55  O         40.3520  -31.2890   28.3350 O.2    47  TYR47      -0.2867
     56  CB        38.2540  -29.7720   26.6040 C.3    47  TYR47       0.0534
     57  CG        38.5990  -30.3180   25.2380 C.ar   47  TYR47      -0.0201
     58  CD1       37.6020  -30.7660   24.3710 C.ar   47  TYR47      -0.0009
     59  CD2       39.9290  -30.4490   24.8300 C.ar   47  TYR47      -0.0009
     60  CE1       37.9150  -31.2960   23.1210 C.ar   47  TYR47       0.0417
     61  CE2       40.2540  -30.9980   23.5880 C.ar   47  TYR47       0.0417
     62  CZ        39.2430  -31.4240   22.7370 C.ar   47  TYR47       0.1957
     63  OH        39.5430  -31.9730   21.5080 O.3    47  TYR47      -0.2866
     64  N         44.9980  -14.0940   32.4100 N.3   134  TYR134     -0.1241
     65  CA        45.8230  -13.0750   31.7500 C.3   134  TYR134      0.1605
     66  C         45.1700  -11.7050   31.8330 C.2   134  TYR134      0.2264
     67  O         43.9480  -11.6010   31.9350 O.2   134  TYR134     -0.2867
     68  CB        46.0030  -13.4170   30.2570 C.3   134  TYR134      0.0534
     69  CG        46.6910  -14.7080   29.8610 C.ar  134  TYR134     -0.0201
     70  CD1       47.0450  -15.6590   30.8120 C.ar  134  TYR134     -0.0009
     71  CD2       46.9900  -14.9780   28.5220 C.ar  134  TYR134     -0.0009
     72  CE1       47.6370  -16.8720   30.4400 C.ar  134  TYR134      0.0417
     73  CE2       47.5990  -16.1760   28.1420 C.ar  134  TYR134      0.0417
     74  CZ        47.9030  -17.1270   29.1010 C.ar  134  TYR134      0.1957
     75  OH        48.5280  -18.2930   28.7270 O.3   134  TYR134     -0.2866
     76  N         50.6340  -14.4000   31.0380 N.3   140  LYS140     -0.1231
     77  CA        50.7780  -15.5290   31.9420 C.3   140  LYS140      0.1693
     78  C         49.7090  -15.3880   33.0120 C.2   140  LYS140      0.2591
     79  O         49.1170  -14.3150   33.1770 O.2   140  LYS140     -0.2718
     80  CB        52.2080  -15.5760   32.5620 C.3   140  LYS140      0.0285
     81  CG        52.6440  -14.3150   33.2940 C.3   140  LYS140      0.0035
     82  CD        54.0230  -14.4450   33.9700 C.3   140  LYS140      0.0206
     83  CE        55.2210  -14.2470   33.0460 C.3   140  LYS140      0.1093
     84  NZ        55.3730  -12.8370   32.5800 N.3   140  LYS140     -0.1314
     85  N         49.4520  -16.4800   33.7130 N.am  141  ILE141     -0.1980
     86  CA        48.5260  -16.5540   34.8420 C.3   141  ILE141      0.1595
     87  C         49.0800  -15.6170   35.9470 C.2   141  ILE141      0.2287
     88  O         50.2890  -15.6250   36.2160 O.2   141  ILE141     -0.2864
     89  CB        48.4230  -18.0670   35.2660 C.3   141  ILE141      0.0276
     90  CG1       47.4820  -18.8390   34.3120 C.3   141  ILE141      0.0022
     91  CG2       48.0840  -18.3270   36.7540 C.3   141  ILE141      0.0022
     92  CD1       46.0430  -18.3700   34.1700 C.3   141  ILE141      0.0001
     93  N         37.4490   -7.0190   31.4250 N.3   182  ASP182     -0.1225
     94  CA        36.8390   -8.3070   31.0810 C.3   182  ASP182      0.1805
     95  C         37.6050   -9.4670   31.6860 C.2   182  ASP182      0.2598
     96  O         38.6990   -9.3090   32.2250 O.2   182  ASP182     -0.2718
     97  CB        36.9010   -8.4860   29.5270 C.3   182  ASP182      0.1424
     98  CG        35.9910   -9.5260   28.8650 C.2   182  ASP182      0.3668
     99  OD1       35.0270  -10.0100   29.5430 O.co2 182  ASP182     -0.2456
    100  OD2       36.2110   -9.8280   27.6600 O.co2 182  ASP182     -0.2456
    101  N         37.0490  -10.6480   31.5020 N.am  183  ALA183     -0.1966
    102  CA        37.6730  -11.9230   31.7830 C.3   183  ALA183      0.1728
    103  C         38.6440  -12.1480   30.6260 C.2   183  ALA183      0.2616
    104  O         38.4480  -11.6200   29.5390 O.2   183  ALA183     -0.2715
    105  CB        36.6180  -13.0320   31.7750 C.3   183  ALA183      0.0334
    106  N         39.6910  -12.9010   30.8720 N.am  184  CYS184     -0.1954
    107  CA        40.6260  -13.3080   29.8550 C.3   184  CYS184      0.1843
    108  C         41.1010  -14.7600   30.1450 C.2   184  CYS184      0.2625
    109  O         40.5920  -15.3910   31.0710 O.2   184  CYS184     -0.2714
    110  CB        41.7790  -12.3170   29.7260 C.3   184  CYS184      0.0997
    111  SG        42.6670  -12.4310   28.1560 S.3   184  CYS184     -0.0797
    112  N         41.9980  -15.3020   29.3100 N.am  185  LYS185     -0.1963
    113  CA        42.5640  -16.6550   29.3950 C.3   185  LYS185      0.1728
    114  C         42.9400  -17.0780   30.7900 C.2   185  LYS185      0.2616
    115  O         43.8150  -16.4760   31.4200 O.2   185  LYS185     -0.2715
    116  CB        43.7540  -16.7980   28.4510 C.3   185  LYS185      0.0311
    117  CG        43.3450  -16.7670   26.9990 C.3   185  LYS185      0.0038
    118  CD        44.4250  -16.1320   26.1470 C.3   185  LYS185      0.0206
    119  CE        44.3650  -16.5700   24.7150 C.3   185  LYS185      0.1093
    120  NZ        45.6550  -16.2820   24.0350 N.3   185  LYS185     -0.1314
    121  N         42.2460  -18.0940   31.2780 N.am  186  GLY186     -0.1955
    122  CA        42.5010  -18.6400   32.6090 C.3   186  GLY186      0.1869
    123  C         41.4520  -18.2710   33.6340 C.2   186  GLY186      0.2309
    124  O         41.4970  -18.7770   34.7660 O.2   186  GLY186     -0.2863
    125  N         38.0880  -18.6410   33.0350 N.3   188  SER188     -0.1217
    126  CA        36.9270  -19.4980   32.7580 C.3   188  SER188      0.1889
    127  C         36.5720  -20.4330   33.9040 C.2   188  SER188      0.2288
    128  O         37.4640  -20.9550   34.5760 O.2   188  SER188     -0.2866
    129  CB        37.1100  -20.2470   31.4530 C.3   188  SER188      0.2089
    130  OG        37.9820  -21.3520   31.5930 O.3   188  SER188     -0.2183
    131  N         32.0970  -17.5260   34.0990 N.3   206  THR206     -0.1203
    132  CA        32.9700  -17.0760   33.0080 C.3   206  THR206      0.1994
    133  C         33.0920  -18.1920   31.9660 C.2   206  THR206      0.2619
    134  O         33.5070  -19.3000   32.2810 O.2   206  THR206     -0.2717
    135  CB        34.2930  -16.5960   33.5950 C.3   206  THR206      0.1784
    136  OG1       34.0010  -15.6110   34.5970 O.3   206  THR206     -0.2211
    137  CG2       35.2300  -16.0540   32.5350 C.3   206  THR206      0.0376
    138  N         32.6840  -17.9000   30.7390 N.am  207  SER207     -0.1937
    139  CA        32.5870  -18.9210   29.7040 C.3   207  SER207      0.2055
    140  C         33.4310  -18.6310   28.4940 C.2   207  SER207      0.2643
    141  O         34.4150  -19.3310   28.2310 O.2   207  SER207     -0.2714
    142  CB        31.1160  -19.0980   29.3120 C.3   207  SER207      0.2130
    143  OG        30.9030  -20.2310   28.4960 O.3   207  SER207     -0.2179
    144  N         33.0190  -17.6340   27.7140 N.am  208  TRP208     -0.1959
    145  CA        33.7340  -17.3040   26.4760 C.3   208  TRP208      0.1771
    146  C         33.5450  -15.8330   26.0890 C.2   208  TRP208      0.2620
    147  O         32.8190  -15.1050   26.7620 O.2   208  TRP208     -0.2715
    148  CB        33.2800  -18.2750   25.3540 C.3   208  TRP208      0.0590
    149  CG        31.8410  -18.0960   24.9470 C.ar  208  TRP208      0.0006
    150  CD1       30.7400  -18.5970   25.5700 C.ar  208  TRP208      0.0946
    151  CD2       31.3590  -17.3790   23.7900 C.ar  208  TRP208      0.0152
    152  NE1       29.6010  -18.1990   24.9100 N.ar  208  TRP208     -0.2442
    153  CE2       29.9500  -17.4770   23.7970 C.ar  208  TRP208      0.0810
    154  CE3       31.9880  -16.6380   22.7580 C.ar  208  TRP208      0.0012
    155  CZ2       29.1510  -16.8830   22.8060 C.ar  208  TRP208      0.0191
    156  CZ3       31.1910  -16.0070   21.8090 C.ar  208  TRP208      0.0001
    157  CH2       29.7940  -16.1600   21.8200 C.ar  208  TRP208      0.0015
    158  N         34.2280  -15.4270   25.0270 N.am  209  GLY209     -0.1954
    159  CA        34.1600  -14.1260   24.3730 C.3   209  GLY209      0.1869
    160  C         34.9700  -14.2030   23.0890 C.2   209  GLY209      0.2309
    161  O         35.5770  -15.2390   22.8140 O.2   209  GLY209     -0.2863
    162  N         38.1160  -12.8440   21.7500 N.3   211  GLY211     -0.1210
    163  CA        39.2900  -12.1680   22.3040 C.3   211  GLY211      0.1956
    164  C         39.0570  -11.7980   23.7680 C.2   211  GLY211      0.2612
    165  O         38.2570  -12.4550   24.4540 O.2   211  GLY211     -0.2717
    166  N         39.7440  -10.7600   24.2690 N.am  212  CYS212     -0.1970
    167  CA        39.5980  -10.3160   25.6730 C.3   212  CYS212      0.1712
    168  C         39.3620   -8.8220   25.7050 C.2   212  CYS212      0.2296
    169  O         40.1520   -8.0950   25.1110 O.2   212  CYS212     -0.2864
    170  CB        40.8370  -10.6520   26.5050 C.3   212  CYS212      0.0983
    171  SG        41.1870  -12.4160   26.7010 S.3   212  CYS212     -0.0798
    172  N         31.9160  -10.1430   27.5040 N.3   219  GLY219     -0.1210
    173  CA        32.1960  -11.4960   27.9210 C.3   219  GLY219      0.1956
    174  C         30.8620  -12.2010   28.0150 C.2   219  GLY219      0.2611
    175  O         29.8630  -11.5850   28.3810 O.2   219  GLY219     -0.2717
    176  N         30.8290  -13.4750   27.6210 N.am  220  VAL220     -0.1979
    177  CA        29.6420  -14.3090   27.6750 C.3   220  VAL220      0.1595
    178  C         29.7990  -15.2930   28.8140 C.2   220  VAL220      0.2287
    179  O         30.8450  -15.9340   28.9680 O.2   220  VAL220     -0.2864
    180  CB        29.2930  -14.9600   26.3240 C.3   220  VAL220      0.0276
    181  CG1       27.9120  -15.5930   26.3950 C.3   220  VAL220      0.0022
    182  CG2       29.3580  -13.9210   25.1830 C.3   220  VAL220      0.0022
@<TRIPOS>BOND
     1    63    62    1
     2   162   163    1
     3   156   157   ar
     4   156   154   ar
     5   157   155   ar
     6   163   164    1
     7    62    60   ar
     8    62    61   ar
     9   154   151   ar
    10   155   153   ar
    11   161   160    2
    12   160   159    1
    13    60    58   ar
    14    61    59   ar
    15   164   166   am
    16   164   165    2
    17   151   153   ar
    18   151   149   ar
    19   153   152   ar
    20   120   119    1
    21   166   167    1
    22    58    57   ar
    23   159   158    1
    24   119   118    1
    25    59    57   ar
    26   152   150   ar
    27   149   148    1
    28   149   150   ar
    29   158   146   am
    30   169   168    2
    31   182   180    1
    32    57    56    1
    33   148   145    1
    34   167   168    1
    35   167   170    1
    36   146   145    1
    37   146   147    2
    38   118   117    1
    39   180   181    1
    40   180   177    1
    41   145   144    1
    42   170   171    1
    43    56    53    1
    44   171   111    1
    45   117   116    1
    46   172   173    1
    47   176   177    1
    48   176   174   am
    49    53    54    1
    50    53    52    1
    51   100    98   ar
    52   177   178    1
    53   144   140   am
    54    54    55    2
    55   173   174    1
    56    40    41    1
    57    40    37    1
    58   174   175    2
    59    73    71   ar
    60    73    74   ar
    61   111   110    1
    62   141   140    2
    63   116   113    1
    64   140   139    1
    65   143   142    1
    66    71    69   ar
    67    41    43   ar
    68    41    42   ar
    69    75    74    1
    70   178   179    2
    71    39    38    2
    72    37    38    1
    73    37    36    1
    74    98    97    1
    75    98    99   ar
    76    43    45   ar
    77    42    44   ar
    78    74    72   ar
    79   112   113    1
    80   112   108   am
    81   142   139    1
    82   113   114    1
    83    38    46   am
    84    97    94    1
    85   104   103    2
    86    44    45   ar
    87   139   138    1
    88   110   107    1
    89   107   108    1
    90   107   106    1
    91    69    68    1
    92    69    70   ar
    93   108   109    2
    94    68    65    1
    95    11     9    1
    96    72    70   ar
    97   103   106   am
    98   103   102    1
    99   138   133   am
   100   114   121   am
   101   114   115    2
   102    46    47    1
   103    76    77    1
   104    94    93    1
   105    94    95    1
   106     9    10    1
   107     9     8    2
   108   121   122    1
   109   129   130    1
   110   129   126    1
   111   101    95   am
   112   101   102    1
   113    48    47    1
   114    48    49    2
   115    47    50    1
   116    95    96    2
   117    65    66    1
   118    65    64    1
   119   105   102    1
   120    66    67    2
   121     8     7    1
   122    77    80    1
   123    77    78    1
   124   133   134    2
   125   133   132    1
   126   137   135    1
   127    80    81    1
   128    84    83    1
   129   122   123    1
   130    28    27    1
   131   126   125    1
   132   126   127    1
   133     7     6    1
   134   132   135    1
   135   132   131    1
   136    78    79    2
   137    78    85   am
   138    83    82    1
   139    50    51    1
   140    51    35    1
   141    81    82    1
   142    35    34    1
   143    25    24    2
   144   135   136    1
   145   123   124    2
   146    85    86    1
   147   127   128    2
   148    27    29    1
   149    27    26    1
   150    92    90    1
   151     6     5    1
   152    90    89    1
   153    24    23    1
   154    24    30   am
   155    15    14    2
   156    86    89    1
   157    86    87    1
   158    23    26    1
   159    23    22    1
   160    34    31    1
   161    89    91    1
   162     5     2    1
   163    31    30    1
   164    31    32    1
   165    14    22   am
   166    14    13    1
   167    87    88    2
   168    19    21   ar
   169    19    17   ar
   170    21    20   ar
   171     2     3    1
   172     2     1    1
   173     3     4    2
   174     3    12   am
   175    32    33    2
   176    12    13    1
   177    17    16    1
   178    17    18   ar
   179    13    16    1
   180    20    18   ar
