@<TRIPOS>MOLECULE
tmp/5q0iA01.pdb
 257 245 0 0 0
SMALL
GASTEIGER

@<TRIPOS>ATOM
      1  N         42.0870   23.2770   31.1360 N.3    23  MET23      -0.1245
      2  CA        41.0340   23.4430   30.1310 C.3    23  MET23       0.1570
      3  C         41.7030   23.2360   28.7660 C.2    23  MET23       0.2261
      4  O         42.6780   23.9300   28.4660 O.2    23  MET23      -0.2867
      5  CB        40.3800   24.8320   30.2070 C.3    23  MET23       0.0387
      6  CG        39.2840   25.0240   29.1640 C.3    23  MET23       0.0595
      7  SD        38.5330   26.6660   29.1890 S.3    23  MET23      -0.1393
      8  CE        37.4070   26.4950   30.5920 C.3    23  MET23       0.0692
      9  N         39.2510   26.6240   23.5310 N.3    28  THR28      -0.1218
     10  CA        39.4480   28.0610   23.3600 C.3    28  THR28       0.1862
     11  C         39.8880   28.3980   21.9330 C.2    28  THR28       0.2287
     12  O         39.4760   29.4280   21.4060 O.2    28  THR28      -0.2866
     13  CB        40.3780   28.6570   24.4360 C.3    28  THR28       0.1770
     14  OG1       41.6190   27.9600   24.4340 O.3    28  THR28      -0.2211
     15  CG2       39.7690   28.6070   25.8330 C.3    28  THR28       0.0375
     16  N         37.1740   29.1690   19.1020 N.3    31  ILE31      -0.1245
     17  CA        36.6120   30.5230   19.0880 C.3    31  ILE31       0.1561
     18  C         37.2460   31.3990   18.0040 C.2    31  ILE31       0.2260
     19  O         36.5170   32.1070   17.3030 O.2    31  ILE31      -0.2867
     20  CB        36.6500   31.1690   20.4900 C.3    31  ILE31       0.0252
     21  CG1       35.8390   30.3040   21.4840 C.3    31  ILE31       0.0019
     22  CG2       36.1250   32.6300   20.4580 C.3    31  ILE31       0.0019
     23  CD1       35.9670   30.7340   22.9440 C.3    31  ILE31       0.0001
     24  N         32.0560   31.7580   14.5610 N.3    36  PHE36      -0.1241
     25  CA        31.5760   31.9900   15.9100 C.3    36  PHE36       0.1605
     26  C         30.3590   32.9150   15.9600 C.2    36  PHE36       0.2264
     27  O         30.4760   34.0980   16.2850 O.2    36  PHE36      -0.2867
     28  CB        32.7240   32.4850   16.8080 C.3    36  PHE36       0.0534
     29  CG        32.4680   32.4090   18.2990 C.ar   36  PHE36      -0.0203
     30  CD1       32.5410   31.1960   18.9710 C.ar   36  PHE36      -0.0042
     31  CD2       32.2320   33.5590   19.0390 C.ar   36  PHE36      -0.0042
     32  CE1       32.3690   31.1300   20.3580 C.ar   36  PHE36      -0.0003
     33  CE2       32.0330   33.4880   20.4310 C.ar   36  PHE36      -0.0003
     34  CZ        32.0990   32.2730   21.0740 C.ar   36  PHE36      -0.0000
     35  N         28.6750   29.9030   19.7690 N.3    41  ASN41      -0.1240
     36  CA        28.9190   30.4880   21.0810 C.3    41  ASN41       0.1653
     37  C         28.2140   29.6390   22.1480 C.2    41  ASN41       0.2266
     38  O         28.8220   29.3200   23.1680 O.2    41  ASN41      -0.2867
     39  CB        28.4690   31.9620   21.1350 C.3    41  ASN41       0.1155
     40  CG        28.9930   32.7640   22.3210 C.2    41  ASN41       0.2627
     41  OD1       29.0680   33.9980   22.2790 O.2    41  ASN41      -0.2716
     42  ND2       29.3300   32.1100   23.4260 N.am   41  ASN41      -0.0877
     43  N         30.0940   26.0640   22.3640 N.3    44  ILE44      -0.1231
     44  CA        31.4070   26.1930   23.0040 C.3    44  ILE44       0.1692
     45  C         31.2390   26.4760   24.4960 C.2    44  ILE44       0.2591
     46  O         31.9880   25.9080   25.3090 O.2    44  ILE44      -0.2718
     47  CB        32.3100   27.1970   22.2560 C.3    44  ILE44       0.0266
     48  CG1       32.7270   26.5880   20.8850 C.3    44  ILE44       0.0019
     49  CG2       33.5500   27.5910   23.1060 C.3    44  ILE44       0.0020
     50  CD1       33.2910   27.5660   19.8700 C.3    44  ILE44       0.0001
     51  N         30.2260   27.3010   24.8560 N.am   45  LEU45      -0.1980
     52  CA        29.8780   27.5870   26.2520 C.3    45  LEU45       0.1596
     53  C         29.6130   26.2490   26.9790 C.2    45  LEU45       0.2287
     54  O         30.1260   26.0390   28.0820 O.2    45  LEU45      -0.2864
     55  CB        28.6140   28.4970   26.2840 C.3    45  LEU45       0.0297
     56  CG        27.9610   28.9480   27.6140 C.3    45  LEU45       0.0022
     57  CD1       26.9910   27.9250   28.1640 C.3    45  LEU45       0.0001
     58  CD2       28.9790   29.3570   28.6470 C.3    45  LEU45       0.0001
     59  N         32.7970   24.2200   27.5120 N.3    48  MET48      -0.1230
     60  CA        33.6010   24.8330   28.5730 C.3    48  MET48       0.1702
     61  C         33.0060   24.5960   29.9290 C.2    48  MET48       0.2592
     62  O         33.7410   24.2810   30.8720 O.2    48  MET48      -0.2718
     63  CB        33.7740   26.3470   28.3500 C.3    48  MET48       0.0401
     64  CG        34.6460   26.6730   27.1940 C.3    48  MET48       0.0596
     65  SD        34.9790   28.4360   27.1260 S.3    48  MET48      -0.1393
     66  CE        36.1460   28.4510   25.8050 C.3    48  MET48       0.0692
     67  N         31.6770   24.7880   30.0560 N.am   49  ALA49      -0.1980
     68  CA        30.9720   24.5870   31.3200 C.3    49  ALA49       0.1597
     69  C         31.1020   23.1130   31.7150 C.2    49  ALA49       0.2287
     70  O         31.3430   22.8240   32.8840 O.2    49  ALA49      -0.2864
     71  CB        29.5180   24.9730   31.1720 C.3    49  ALA49       0.0319
     72  N         34.4140   22.6390   33.2570 N.3    52  HIS52      -0.1241
     73  CA        34.3920   23.1610   34.6240 C.3    52  HIS52       0.1621
     74  C         33.7710   22.1550   35.5810 C.2    52  HIS52       0.2264
     75  O         34.3000   21.9800   36.6740 O.2    52  HIS52      -0.2867
     76  CB        33.5820   24.4640   34.7200 C.3    52  HIS52       0.0745
     77  CG        34.2790   25.6770   34.2210 C.ar   52  HIS52       0.0817
     78  ND1       35.5990   25.9270   34.5290 N.ar   52  HIS52      -0.2268
     79  CD2       33.7870   26.7210   33.5140 C.ar   52  HIS52       0.1154
     80  CE1       35.8930   27.0800   33.9500 C.ar   52  HIS52       0.1986
     81  NE2       34.8340   27.5930   33.3230 N.ar   52  HIS52      -0.2212
     82  N         28.2530   27.9960   40.2480 N.3    83  VAL83      -0.1245
     83  CA        28.3960   29.2130   39.4300 C.3    83  VAL83       0.1561
     84  C         29.6020   30.0510   39.8680 C.2    83  VAL83       0.2260
     85  O         30.4100   30.4740   39.0270 O.2    83  VAL83      -0.2867
     86  CB        27.0610   30.0030   39.4130 C.3    83  VAL83       0.0252
     87  CG1       27.2160   31.3870   38.7820 C.3    83  VAL83       0.0019
     88  CG2       25.9740   29.1940   38.7030 C.3    83  VAL83       0.0019
     89  N         32.8800   28.2490   39.0910 N.3    86  MET86      -0.1230
     90  CA        33.1170   28.3280   37.6390 C.3    86  MET86       0.1702
     91  C         33.6850   29.6830   37.2140 C.2    86  MET86       0.2592
     92  O         34.6970   29.7200   36.5030 O.2    86  MET86      -0.2718
     93  CB        31.8530   27.9950   36.8380 C.3    86  MET86       0.0401
     94  CG        31.4820   26.5440   36.9170 C.3    86  MET86       0.0596
     95  SD        29.9420   26.2520   36.0140 S.3    86  MET86      -0.1393
     96  CE        29.6300   24.6870   36.4990 C.3    86  MET86       0.0692
     97  N         33.0710   30.7860   37.6490 N.am   87  PHE87      -0.1976
     98  CA        33.5950   32.1050   37.3120 C.3    87  PHE87       0.1639
     99  C         34.9950   32.3520   37.8610 C.2    87  PHE87       0.2290
    100  O         35.7970   32.9860   37.1850 O.2    87  PHE87      -0.2864
    101  CB        32.6450   33.2270   37.7010 C.3    87  PHE87       0.0560
    102  CG        31.4780   33.3850   36.7610 C.ar   87  PHE87      -0.0200
    103  CD1       31.6810   33.6950   35.4170 C.ar   87  PHE87      -0.0042
    104  CD2       30.1760   33.2490   37.2180 C.ar   87  PHE87      -0.0042
    105  CE1       30.5940   33.8510   34.5440 C.ar   87  PHE87      -0.0003
    106  CE2       29.0880   33.4270   36.3500 C.ar   87  PHE87      -0.0003
    107  CZ        29.3050   33.7180   35.0160 C.ar   87  PHE87      -0.0000
    108  N         37.3400   30.4170   35.5420 N.3    90  SER90      -0.1217
    109  CA        37.3810   31.1390   34.2650 C.3    90  SER90       0.1889
    110  C         38.2080   32.4170   34.3740 C.2    90  SER90       0.2288
    111  O         39.0150   32.6890   33.4820 O.2    90  SER90      -0.2866
    112  CB        35.9790   31.4690   33.7820 C.3    90  SER90       0.2089
    113  OG        35.3920   30.2600   33.3470 O.3    90  SER90      -0.2183
    114  N         41.9000   31.4670   34.2560 N.3    93  ILE93      -0.1231
    115  CA        42.2850   31.1090   32.8830 C.3    93  ILE93       0.1692
    116  C         42.3990   32.3640   32.0090 C.2    93  ILE93       0.2592
    117  O         43.4370   32.6000   31.3770 O.2    93  ILE93      -0.2718
    118  CB        41.3440   30.0520   32.2740 C.3    93  ILE93       0.0266
    119  CG1       41.4120   28.7240   33.0530 C.3    93  ILE93       0.0019
    120  CG2       41.6240   29.8440   30.7630 C.3    93  ILE93       0.0020
    121  CD1       40.1890   27.8350   32.8030 C.3    93  ILE93       0.0001
    122  N         41.3410   33.1820   32.0160 N.am   94  PHE94      -0.1976
    123  CA        41.2410   34.4110   31.2450 C.3    94  PHE94       0.1639
    124  C         42.3730   35.3790   31.5450 C.2    94  PHE94       0.2290
    125  O         42.9850   35.8960   30.6150 O.2    94  PHE94      -0.2864
    126  CB        39.8840   35.0770   31.5040 C.3    94  PHE94       0.0560
    127  CG        39.5920   36.2540   30.6210 C.ar   94  PHE94      -0.0200
    128  CD1       39.1030   36.0730   29.3310 C.ar   94  PHE94      -0.0042
    129  CD2       39.7870   37.5550   31.0810 C.ar   94  PHE94      -0.0042
    130  CE1       38.8410   37.1730   28.5050 C.ar   94  PHE94      -0.0003
    131  CE2       39.5030   38.6540   30.2630 C.ar   94  PHE94      -0.0003
    132  CZ        39.0190   38.4560   28.9840 C.ar   94  PHE94      -0.0000
    133  N         45.9950   32.4050   29.2080 N.3    98  LEU98      -0.1245
    134  CA        45.9140   32.5470   27.7490 C.3    98  LEU98       0.1561
    135  C         47.1950   33.1410   27.1570 C.2    98  LEU98       0.2260
    136  O         47.8370   33.9510   27.8220 O.2    98  LEU98      -0.2867
    137  CB        44.7080   33.4260   27.3510 C.3    98  LEU98       0.0270
    138  CG        43.3160   32.9410   27.7860 C.3    98  LEU98       0.0019
    139  CD1       42.2770   34.0110   27.5520 C.3    98  LEU98       0.0001
    140  CD2       42.9190   31.6580   27.0590 C.3    98  LEU98       0.0001
    141  N         39.2580   36.9190   22.5820 N.3   106  LEU106     -0.1245
    142  CA        38.1610   36.0410   23.0250 C.3   106  LEU106      0.1561
    143  C         36.9630   36.8800   23.4650 C.2   106  LEU106      0.2260
    144  O         35.8180   36.6020   23.0500 O.2   106  LEU106     -0.2867
    145  CB        38.6370   35.0620   24.1020 C.3   106  LEU106      0.0270
    146  CG        39.7070   34.0060   23.6950 C.3   106  LEU106      0.0019
    147  CD1       39.9410   33.0270   24.8250 C.3   106  LEU106      0.0001
    148  CD2       39.2710   33.1890   22.4860 C.3   106  LEU106      0.0001
    149  N         33.1290   36.9610   21.6430 N.3   110  ILE110     -0.1245
    150  CA        31.9070   36.7490   22.4130 C.3   110  ILE110      0.1561
    151  C         30.9630   37.9430   22.2630 C.2   110  ILE110      0.2260
    152  O         29.7620   37.7440   22.0640 O.2   110  ILE110     -0.2867
    153  CB        32.2300   36.3760   23.8760 C.3   110  ILE110      0.0252
    154  CG1       32.8850   34.9630   23.9200 C.3   110  ILE110      0.0019
    155  CG2       30.9650   36.4110   24.7460 C.3   110  ILE110      0.0019
    156  CD1       33.5800   34.6260   25.1430 C.3   110  ILE110      0.0001
    157  N         24.7910   36.8200   20.9190 N.3   115  ILE115     -0.1245
    158  CA        24.2150   36.5680   22.2600 C.3   115  ILE115      0.1561
    159  C         24.0770   37.9070   23.0160 C.2   115  ILE115      0.2260
    160  O         24.9700   38.7480   22.9060 O.2   115  ILE115     -0.2867
    161  CB        25.0650   35.5190   23.0550 C.3   115  ILE115      0.0252
    162  CG1       24.8830   34.0920   22.4770 C.3   115  ILE115      0.0019
    163  CG2       24.7790   35.5670   24.5790 C.3   115  ILE115      0.0019
    164  CD1       25.5220   32.9420   23.2900 C.3   115  ILE115      0.0001
    165  N         27.0280   39.5780   29.8670 N.3   120  ILE120     -0.1245
    166  CA        28.3860   39.4860   29.3180 C.3   120  ILE120      0.1561
    167  C         29.2850   40.5810   29.8950 C.2   120  ILE120      0.2260
    168  O         30.3870   40.2990   30.3770 O.2   120  ILE120     -0.2867
    169  CB        28.3320   39.5310   27.7540 C.3   120  ILE120      0.0252
    170  CG1       27.5200   38.3450   27.1620 C.3   120  ILE120      0.0019
    171  CG2       29.7250   39.6550   27.1020 C.3   120  ILE120      0.0019
    172  CD1       27.9640   36.9410   27.5580 C.3   120  ILE120      0.0001
    173  N         30.3940   40.1030   33.4900 N.3   123  MET123     -0.1230
    174  CA        31.3430   38.9740   33.5770 C.3   123  MET123      0.1702
    175  C         32.7810   39.4710   33.2600 C.2   123  MET123      0.2592
    176  O         33.6880   39.2720   34.0630 O.2   123  MET123     -0.2718
    177  CB        30.9160   37.8190   32.6390 C.3   123  MET123      0.0401
    178  CG        31.9130   36.6800   32.5790 C.3   123  MET123      0.0596
    179  SD        31.5190   35.3950   31.3620 S.3   123  MET123     -0.1393
    180  CE        32.0170   36.1680   29.8250 C.3   123  MET123      0.0692
    181  N         32.9750   40.1340   32.1090 N.am  124  PHE124     -0.1976
    182  CA        34.2820   40.6800   31.7390 C.3   124  PHE124      0.1639
    183  C         34.7430   41.7670   32.7010 C.2   124  PHE124      0.2290
    184  O         35.9170   41.7940   33.0560 O.2   124  PHE124     -0.2864
    185  CB        34.3020   41.1340   30.2750 C.3   124  PHE124      0.0560
    186  CG        34.2700   39.9710   29.3100 C.ar  124  PHE124     -0.0200
    187  CD1       33.2340   39.8330   28.3980 C.ar  124  PHE124     -0.0042
    188  CD2       35.2880   39.0260   29.2970 C.ar  124  PHE124     -0.0042
    189  CE1       33.2200   38.7720   27.4880 C.ar  124  PHE124     -0.0003
    190  CE2       35.2560   37.9460   28.4080 C.ar  124  PHE124     -0.0003
    191  CZ        34.2210   37.8280   27.5100 C.ar  124  PHE124     -0.0000
    192  N         36.1870   39.9700   35.6440 N.3   127  TYR127     -0.1241
    193  CA        37.5360   39.4690   35.3180 C.3   127  TYR127      0.1605
    194  C         38.5710   40.5800   35.4300 C.2   127  TYR127      0.2264
    195  O         39.6350   40.3720   36.0070 O.2   127  TYR127     -0.2867
    196  CB        37.6000   38.8430   33.9240 C.3   127  TYR127      0.0534
    197  CG        36.7410   37.6130   33.7450 C.ar  127  TYR127     -0.0201
    198  CD1       36.2620   36.9040   34.8460 C.ar  127  TYR127     -0.0009
    199  CD2       36.3710   37.1820   32.4800 C.ar  127  TYR127     -0.0009
    200  CE1       35.4440   35.7930   34.6890 C.ar  127  TYR127      0.0417
    201  CE2       35.6120   36.0310   32.3080 C.ar  127  TYR127      0.0417
    202  CZ        35.1420   35.3440   33.4180 C.ar  127  TYR127      0.1957
    203  OH        34.3590   34.2360   33.2620 O.3   127  TYR127     -0.2866
    204  N         21.7560   33.3090   38.4170 N.3   205  HIS205     -0.1241
    205  CA        22.2970   32.4280   37.3800 C.3   205  HIS205      0.1621
    206  C         21.2490   31.8820   36.4130 C.2   205  HIS205      0.2264
    207  O         21.5830   31.7460   35.2490 O.2   205  HIS205     -0.2867
    208  CB        23.1850   31.3170   37.9380 C.3   205  HIS205      0.0745
    209  CG        22.4840   30.1220   38.4870 C.ar  205  HIS205      0.0817
    210  ND1       22.3450   29.9330   39.8550 N.ar  205  HIS205     -0.2268
    211  CD2       22.0220   29.0260   37.8480 C.ar  205  HIS205      0.1154
    212  CE1       21.7500   28.7580   39.9960 C.ar  205  HIS205      0.1986
    213  NE2       21.5390   28.1770   38.8160 N.ar  205  HIS205     -0.2212
    214  N         20.5940   34.5200   33.7910 N.3   208  MET208     -0.1230
    215  CA        21.8370   34.6420   33.0290 C.3   208  MET208      0.1702
    216  C         21.8780   33.5450   31.9590 C.2   208  MET208      0.2592
    217  O         22.0350   33.8430   30.7740 O.2   208  MET208     -0.2718
    218  CB        23.0420   34.5400   33.9850 C.3   208  MET208      0.0401
    219  CG        24.3750   34.3860   33.2940 C.3   208  MET208      0.0596
    220  SD        25.6820   34.1060   34.5020 S.3   208  MET208     -0.1393
    221  CE        26.1100   35.8030   34.8890 C.3   208  MET208      0.0692
    222  N         21.7150   32.2800   32.3900 N.am  209  LEU209     -0.1980
    223  CA        21.7090   31.1060   31.5220 C.3   209  LEU209      0.1596
    224  C         20.6270   31.2230   30.4860 C.2   209  LEU209      0.2287
    225  O         20.9040   30.9290   29.3280 O.2   209  LEU209     -0.2864
    226  CB        21.6080   29.7950   32.3090 C.3   209  LEU209      0.0297
    227  CG        22.8150   29.4940   33.1770 C.3   209  LEU209      0.0022
    228  CD1       22.4990   28.4450   34.2190 C.3   209  LEU209      0.0001
    229  CD2       24.0600   29.1930   32.3260 C.3   209  LEU209      0.0001
    230  N         21.5860   33.2580   27.5860 N.3   212  TRP212     -0.1241
    231  CA        22.6080   32.6320   26.7450 C.3   212  TRP212      0.1605
    232  C         22.0490   31.5000   25.8890 C.2   212  TRP212      0.2264
    233  O         22.7630   30.9620   25.0490 O.2   212  TRP212     -0.2867
    234  CB        23.8270   32.1920   27.5780 C.3   212  TRP212      0.0550
    235  CG        24.5450   33.3260   28.2640 C.ar  212  TRP212      0.0003
    236  CD1       24.3890   34.6620   28.0310 C.ar  212  TRP212      0.0946
    237  CD2       25.5440   33.2120   29.2880 C.ar  212  TRP212      0.0152
    238  NE1       25.2070   35.3870   28.8620 N.ar  212  TRP212     -0.2442
    239  CE2       25.9470   34.5240   29.6280 C.ar  212  TRP212      0.0810
    240  CE3       26.1390   32.1290   29.9520 C.ar  212  TRP212      0.0012
    241  CZ2       26.9300   34.7840   30.5900 C.ar  212  TRP212      0.0191
    242  CZ3       27.1110   32.3860   30.9170 C.ar  212  TRP212      0.0001
    243  CH2       27.4940   33.6990   31.2280 C.ar  212  TRP212      0.0015
    244  N         23.1810   23.1830   37.6130 N.3   225  TRP225     -0.1241
    245  CA        22.6410   24.5370   37.6140 C.3   225  TRP225      0.1605
    246  C         21.1430   24.6420   37.9450 C.2   225  TRP225      0.2264
    247  O         20.6270   25.7600   37.9800 O.2   225  TRP225     -0.2867
    248  CB        22.8740   25.1880   36.2430 C.3   225  TRP225      0.0550
    249  CG        24.2860   25.5850   35.9370 C.ar  225  TRP225      0.0003
    250  CD1       25.2550   25.9730   36.8220 C.ar  225  TRP225      0.0946
    251  CD2       24.8470   25.7310   34.6360 C.ar  225  TRP225      0.0152
    252  NE1       26.4070   26.3000   36.1430 N.ar  225  TRP225     -0.2442
    253  CE2       26.1830   26.1600   34.7980 C.ar  225  TRP225      0.0810
    254  CE3       24.3570   25.5090   33.3390 C.ar  225  TRP225      0.0012
    255  CZ2       27.0210   26.4140   33.7100 C.ar  225  TRP225      0.0191
    256  CZ3       25.1880   25.7530   32.2610 C.ar  225  TRP225      0.0001
    257  CH2       26.5000   26.2110   32.4500 C.ar  225  TRP225      0.0015
@<TRIPOS>BOND
     1    24    25    1
     2    25    26    1
     3    25    28    1
     4    26    27    2
     5    28    29    1
     6    19    18    2
     7    18    17    1
     8    29    30   ar
     9    29    31   ar
    10    30    32   ar
    11    31    33   ar
    12    17    16    1
    13    17    20    1
    14    35    36    1
    15    50    48    1
    16    32    34   ar
    17    33    34   ar
    18    22    20    1
    19    20    21    1
    20    48    47    1
    21   157   158    1
    22    36    39    1
    23    36    37    1
    24    39    40    1
    25    12    11    2
    26    21    23    1
    27   149   150    1
    28    11    10    1
    29   152   151    2
    30    37    38    2
    31    47    44    1
    32    47    49    1
    33   158   159    1
    34   158   161    1
    35   151   150    1
    36    41    40    2
    37    40    42   am
    38    43    44    1
    39   150   153    1
    40   162   161    1
    41   162   164    1
    42   148   146    1
    43   141   142    1
    44   160   159    2
    45    44    45    1
    46   142   143    1
    47   142   145    1
    48   144   143    2
    49   161   163    1
    50    10     9    1
    51    10    13    1
    52   146   145    1
    53   146   147    1
    54   153   154    1
    55   153   155    1
    56   154   156    1
    57    14    13    1
    58    13    15    1
    59    45    51   am
    60    45    46    2
    61    51    52    1
    62   233   232    2
    63    66    65    1
    64   232   231    1
    65    52    55    1
    66    52    53    1
    67    55    56    1
    68   231   234    1
    69   231   230    1
    70    53    54    2
    71   140   138    1
    72   171   169    1
    73    65    64    1
    74   135   134    1
    75   135   136    2
    76   170   172    1
    77   170   169    1
    78    64    63    1
    79   137   134    1
    80   137   138    1
    81   189   191   ar
    82   189   187   ar
    83   191   190   ar
    84    59    60    1
    85   139   138    1
    86   234   235    1
    87    56    57    1
    88    56    58    1
    89   134   133    1
    90   169   166    1
    91   236   235   ar
    92   236   238   ar
    93   235   237   ar
    94    63    60    1
    95   187   186   ar
    96   190   188   ar
    97     4     3    2
    98   130   132   ar
    99   130   128   ar
   100    60    61    1
   101     3     2    1
   102   238   239   ar
   103   132   131   ar
   104     6     7    1
   105     6     5    1
   106     7     8    1
   107   237   239   ar
   108   237   240   ar
   109   188   186   ar
   110   186   185    1
   111   166   165    1
   112   166   167    1
   113   225   224    2
   114   128   127   ar
   115   239   241   ar
   116   180   179    1
   117   167   168    2
   118    61    67   am
   119    61    62    2
   120   240   242   ar
   121    67    68    1
   122     2     5    1
   123     2     1    1
   124   131   129   ar
   125   185   182    1
   126   224   223    1
   127   241   243   ar
   128   125   124    2
   129   127   129   ar
   130   127   126    1
   131   120   118    1
   132   217   216    2
   133   242   243   ar
   134    71    68    1
   135   123   126    1
   136   123   124    1
   137   123   122    1
   138    68    69    1
   139   179   178    1
   140   117   116    2
   141   223   226    1
   142   223   222    1
   143    69    70    2
   144   182   181    1
   145   182   183    1
   146   216   222   am
   147   216   215    1
   148   116   122   am
   149   116   115    1
   150   181   175   am
   151   256   257   ar
   152   256   254   ar
   153   118   115    1
   154   118   119    1
   155   201   199   ar
   156   201   202   ar
   157   226   227    1
   158   229   227    1
   159   257   255   ar
   160   199   197   ar
   161   178   177    1
   162   177   174    1
   163   183   184    2
   164   121   119    1
   165   115   114    1
   166   215   214    1
   167   215   218    1
   168   227   228    1
   169    72    73    1
   170   175   174    1
   171   175   176    2
   172   203   202    1
   173   219   218    1
   174   219   220    1
   175    81    79   ar
   176    81    80   ar
   177   254   251   ar
   178   113   112    1
   179   202   200   ar
   180   111   110    2
   181   173   174    1
   182    79    77   ar
   183   255   253   ar
   184   197   196    1
   185   197   198   ar
   186   112   109    1
   187   196   193    1
   188    80    78   ar
   189    77    78   ar
   190    77    76    1
   191   109   110    1
   192   109   108    1
   193   220   221    1
   194   105   107   ar
   195   105   103   ar
   196    73    76    1
   197    73    74    1
   198   251   253   ar
   199   251   249   ar
   200   200   198   ar
   201   253   252   ar
   202   107   106   ar
   203   207   206    2
   204   193   194    1
   205   193   192    1
   206   103   102   ar
   207   194   195    2
   208    74    75    2
   209   249   248    1
   210   249   250   ar
   211    95    96    1
   212    95    94    1
   213   252   250   ar
   214   248   245    1
   215   106   104   ar
   216   206   205    1
   217    92    91    2
   218   102   104   ar
   219   102   101    1
   220    93    94    1
   221    93    90    1
   222   100    99    2
   223    91    90    1
   224    91    97   am
   225    98    97    1
   226    98   101    1
   227    98    99    1
   228   205   208    1
   229   205   204    1
   230   244   245    1
   231   245   246    1
   232    90    89    1
   233   211   209   ar
   234   211   213   ar
   235   208   209    1
   236   246   247    2
   237   209   210   ar
   238    88    86    1
   239    87    86    1
   240   213   212   ar
   241    85    84    2
   242    86    83    1
   243    83    84    1
   244    83    82    1
   245   210   212   ar
