@<TRIPOS>MOLECULE
tmp/5q0iA00.pdb
 104 98 0 0 0
SMALL
GASTEIGER

@<TRIPOS>ATOM
      1  N         32.6270   21.5460   35.2090 N.3    53  VAL53      -0.1231
      2  CA        31.9260   20.5810   36.0680 C.3    53  VAL53       0.1692
      3  C         32.8110   19.3900   36.3600 C.2    53  VAL53       0.2591
      4  O         32.9600   19.0220   37.5240 O.2    53  VAL53      -0.2718
      5  CB        30.5150   20.1540   35.5690 C.3    53  VAL53       0.0266
      6  CG1       29.8400   19.1960   36.5600 C.3    53  VAL53       0.0020
      7  CG2       29.6400   21.3720   35.3490 C.3    53  VAL53       0.0020
      8  N         33.4810   18.8690   35.3240 N.am   54  GLN54      -0.1979
      9  CA        34.3680   17.7080   35.4430 C.3    54  GLN54       0.1601
     10  C         35.5430   18.0340   36.4090 C.2    54  GLN54       0.2287
     11  O         35.8410   17.2460   37.3080 O.2    54  GLN54      -0.2864
     12  CB        34.8580   17.2750   34.0400 C.3    54  GLN54       0.0394
     13  CG        33.7160   16.8470   33.0860 C.3    54  GLN54       0.0908
     14  CD        34.1540   16.6130   31.6470 C.2    54  GLN54       0.2608
     15  OE1       35.1080   17.2360   31.1480 O.2    54  GLN54      -0.2717
     16  NE2       33.4430   15.7220   30.9370 N.am   54  GLN54      -0.0878
     17  N         34.1580   18.9130   40.2300 N.3    57  VAL57      -0.1231
     18  CA        33.7400   17.7360   40.9820 C.3    57  VAL57       0.1692
     19  C         34.9770   17.0420   41.5400 C.2    57  VAL57       0.2591
     20  O         35.0210   16.7800   42.7400 O.2    57  VAL57      -0.2718
     21  CB        32.7940   16.7700   40.2110 C.3    57  VAL57       0.0266
     22  CG1       32.5470   15.4890   41.0080 C.3    57  VAL57       0.0020
     23  CG2       31.4630   17.4430   39.9040 C.3    57  VAL57       0.0020
     24  N         36.0210   16.8650   40.7060 N.am   58  GLU58      -0.1979
     25  CA        37.2730   16.2260   41.1030 C.3    58  GLU58       0.1602
     26  C         37.9500   17.0070   42.2160 C.2    58  GLU58       0.2287
     27  O         38.3590   16.4130   43.2080 O.2    58  GLU58      -0.2864
     28  CB        38.1950   16.0260   39.8800 C.3    58  GLU58       0.0415
     29  CG        39.5920   15.4950   40.1880 C.3    58  GLU58       0.1163
     30  CD        39.7420   14.0200   40.5280 C.2    58  GLU58       0.3649
     31  OE1       38.7450   13.2650   40.4360 O.co2  58  GLU58      -0.2457
     32  OE2       40.8770   13.6160   40.8710 O.co2  58  GLU58      -0.2457
     33  N         35.9820   16.8390   45.6320 N.3    61  LYS61      -0.1231
     34  CA        36.2130   15.5260   46.2390 C.3    61  LYS61       0.1693
     35  C         37.5210   15.4290   47.0300 C.2    61  LYS61       0.2591
     36  O         37.5710   14.6920   48.0190 O.2    61  LYS61      -0.2718
     37  CB        36.1460   14.4280   45.1800 C.3    61  LYS61       0.0285
     38  CG        34.7260   13.9890   44.8680 C.3    61  LYS61       0.0035
     39  CD        34.6240   13.1510   43.5840 C.3    61  LYS61       0.0206
     40  CE        35.1800   11.7490   43.6870 C.3    61  LYS61       0.1093
     41  NZ        34.8140   10.9380   42.4940 N.3    61  LYS61      -0.1314
     42  N         38.5660   16.1710   46.6110 N.am   62  LYS62      -0.1980
     43  CA        39.8720   16.2070   47.2860 C.3    62  LYS62       0.1596
     44  C         39.9890   17.3200   48.3500 C.2    62  LYS62       0.2287
     45  O         41.0540   17.4660   48.9590 O.2    62  LYS62      -0.2864
     46  CB        41.0120   16.3010   46.2640 C.3    62  LYS62       0.0298
     47  CG        41.3660   14.9680   45.5890 C.3    62  LYS62       0.0038
     48  CD        42.3160   14.1190   46.4330 C.3    62  LYS62       0.0206
     49  CE        42.6000   12.7830   45.7960 C.3    62  LYS62       0.1093
     50  NZ        43.3980   11.9090   46.6960 N.3    62  LYS62      -0.1314
     51  N         36.0690   17.2010   53.1560 N.3    66  PHE66      -0.1241
     52  CA        34.8170   17.1700   52.3880 C.3    66  PHE66       0.1605
     53  C         34.0530   15.8580   52.5810 C.2    66  PHE66       0.2264
     54  O         32.8120   15.8600   52.6200 O.2    66  PHE66      -0.2867
     55  CB        35.1160   17.3530   50.9010 C.3    66  PHE66       0.0534
     56  CG        33.8890   17.5850   50.0530 C.ar   66  PHE66      -0.0203
     57  CD1       33.2360   18.8130   50.0730 C.ar   66  PHE66      -0.0042
     58  CD2       33.3990   16.5800   49.2220 C.ar   66  PHE66      -0.0042
     59  CE1       32.0860   19.0260   49.2990 C.ar   66  PHE66      -0.0003
     60  CE2       32.2710   16.8020   48.4210 C.ar   66  PHE66      -0.0003
     61  CZ        31.6190   18.0270   48.4700 C.ar   66  PHE66      -0.0000
     62  N         26.4570   12.5650   52.0410 N.3    71  HIS71      -0.1241
     63  CA        26.3530   12.7290   50.5860 C.3    71  HIS71       0.1621
     64  C         25.3990   13.8650   50.1720 C.2    71  HIS71       0.2264
     65  O         25.7200   14.6130   49.2520 O.2    71  HIS71      -0.2867
     66  CB        26.0350   11.4040   49.8980 C.3    71  HIS71       0.0745
     67  CG        27.1080   10.3890   50.1880 C.ar   71  HIS71       0.0817
     68  ND1       26.8030    9.0680   50.4230 N.ar   71  HIS71      -0.2268
     69  CD2       28.4490   10.5630   50.3400 C.ar   71  HIS71       0.1154
     70  CE1       27.9600    8.4700   50.6890 C.ar   71  HIS71       0.1986
     71  NE2       28.9740    9.3280   50.6530 N.ar   71  HIS71      -0.2212
     72  N         27.3070   17.1120   50.6550 N.3    74  GLN74      -0.1231
     73  CA        28.3210   17.1860   49.6010 C.3    74  GLN74       0.1698
     74  C         27.6970   17.7040   48.2940 C.2    74  GLN74       0.2592
     75  O         28.2250   18.6480   47.6900 O.2    74  GLN74      -0.2718
     76  CB        28.9190   15.7870   49.3560 C.3    74  GLN74       0.0381
     77  CG        29.8870   15.3590   50.4680 C.3    74  GLN74       0.0905
     78  CD        30.5300   14.0360   50.1490 C.2    74  GLN74       0.2608
     79  OE1       30.8580   13.7570   48.9910 O.2    74  GLN74      -0.2717
     80  NE2       30.7040   13.1840   51.1630 N.am   74  GLN74      -0.0878
     81  N         26.5360   17.1460   47.9080 N.am   75  ILE75      -0.1980
     82  CA        25.8180   17.5520   46.6880 C.3    75  ILE75       0.1595
     83  C         25.3550   19.0060   46.8180 C.2    75  ILE75       0.2287
     84  O         25.4840   19.7790   45.8740 O.2    75  ILE75      -0.2864
     85  CB        24.6390   16.5910   46.3700 C.3    75  ILE75       0.0276
     86  CG1       25.1660   15.2170   45.9100 C.3    75  ILE75       0.0022
     87  CG2       23.6760   17.1990   45.3220 C.3    75  ILE75       0.0022
     88  CD1       25.5770   15.1290   44.3680 C.3    75  ILE75       0.0001
     89  N         28.2160   21.3910   46.3450 N.3    78  LEU78      -0.1245
     90  CA        28.5930   21.3960   44.9310 C.3    78  LEU78       0.1561
     91  C         27.6520   22.2390   44.0930 C.2    78  LEU78       0.2260
     92  O         28.1160   23.1140   43.3750 O.2    78  LEU78      -0.2867
     93  CB        28.6830   19.9810   44.3760 C.3    78  LEU78       0.0270
     94  CG        30.0810   19.4350   44.1620 C.3    78  LEU78       0.0019
     95  CD1       30.0090   18.1210   43.4500 C.3    78  LEU78       0.0001
     96  CD2       30.9280   20.3770   43.3120 C.3    78  LEU78       0.0001
     97  N         23.9860   16.8270   32.5190 N.3   220  LEU220     -0.1245
     98  CA        24.8850   17.1540   33.6220 C.3   220  LEU220      0.1561
     99  C         24.7790   18.6350   34.0190 C.2   220  LEU220      0.2260
    100  O         24.6910   18.9370   35.2190 O.2   220  LEU220     -0.2867
    101  CB        26.3450   16.7740   33.2920 C.3   220  LEU220      0.0270
    102  CG        27.3800   16.9460   34.4160 C.3   220  LEU220      0.0019
    103  CD1       27.0300   16.1170   35.6350 C.3   220  LEU220      0.0001
    104  CD2       28.7780   16.5960   33.9460 C.3   220  LEU220      0.0001
@<TRIPOS>BOND
     1    16    14   am
     2    15    14    2
     3    14    13    1
     4    97    98    1
     5    13    12    1
     6   101    98    1
     7   101   102    1
     8    98    99    1
     9   104   102    1
    10    99   100    2
    11    12     9    1
    12   102   103    1
    13     1     2    1
    14     8     9    1
    15     8     3   am
    16     7     5    1
    17     9    10    1
    18     5     2    1
    19     5     6    1
    20     2     3    1
    21     3     4    2
    22    10    11    2
    23    28    29    1
    24    28    25    1
    25    23    21    1
    26    29    30    1
    27    21    18    1
    28    21    22    1
    29    17    18    1
    30    31    30   ar
    31    30    32   ar
    32    24    25    1
    33    24    19   am
    34    18    19    1
    35    25    26    1
    36    19    20    2
    37    26    27    2
    38    41    40    1
    39    96    94    1
    40    92    91    2
    41    95    94    1
    42    39    40    1
    43    39    38    1
    44    91    90    1
    45    94    93    1
    46    88    86    1
    47    93    90    1
    48    38    37    1
    49    90    89    1
    50    37    34    1
    51    87    85    1
    52    47    46    1
    53    47    48    1
    54    33    34    1
    55    49    48    1
    56    49    50    1
    57    84    83    2
    58    86    85    1
    59    34    35    1
    60    46    43    1
    61    85    82    1
    62    42    35   am
    63    42    43    1
    64    82    83    1
    65    82    81    1
    66    35    36    2
    67    43    44    1
    68    75    74    2
    69    81    74   am
    70    74    73    1
    71    44    45    2
    72    60    61   ar
    73    60    58   ar
    74    61    59   ar
    75    79    78    2
    76    58    56   ar
    77    65    64    2
    78    59    57   ar
    79    76    73    1
    80    76    77    1
    81    73    72    1
    82    66    67    1
    83    66    63    1
    84    56    57   ar
    85    56    55    1
    86    78    77    1
    87    78    80   am
    88    64    63    1
    89    67    69   ar
    90    67    68   ar
    91    69    71   ar
    92    68    70   ar
    93    63    62    1
    94    71    70   ar
    95    55    52    1
    96    52    53    1
    97    52    51    1
    98    53    54    2
