@<TRIPOS>MOLECULE
tmp/5q0jA01.pdb
 192 183 0 0 0
SMALL
GASTEIGER

@<TRIPOS>ATOM
      1  N          4.4310   20.5820    6.8850 N.3    27  ILE27      -0.1231
      2  CA         5.7850   21.1250    6.9980 C.3    27  ILE27       0.1692
      3  C          5.7690   22.5030    7.6600 C.2    27  ILE27       0.2592
      4  O          6.5080   22.7550    8.6190 O.2    27  ILE27      -0.2718
      5  CB         6.4460   21.1520    5.6080 C.3    27  ILE27       0.0266
      6  CG1        6.5200   19.7240    5.0520 C.3    27  ILE27       0.0019
      7  CG2        7.7800   21.8020    5.6390 C.3    27  ILE27       0.0020
      8  CD1        6.1040   19.5450    3.6060 C.3    27  ILE27       0.0001
      9  N          4.9280   23.4220    7.1670 N.am   28  THR28      -0.1953
     10  CA         4.9530   24.7620    7.7390 C.3    28  THR28       0.1897
     11  C          4.3750   24.7690    9.1470 C.2    28  THR28       0.2313
     12  O          4.7500   25.6250    9.9510 O.2    28  THR28      -0.2863
     13  CB         4.2230   25.7560    6.8390 C.3    28  THR28       0.1794
     14  OG1        2.8810   25.3140    6.6260 O.3    28  THR28      -0.2208
     15  CG2        4.9210   25.8330    5.4740 C.3    28  THR28       0.0378
     16  N          7.3470   24.0730   11.5750 N.3    31  ILE31      -0.1245
     17  CA         8.2760   25.1990   11.6210 C.3    31  ILE31       0.1561
     18  C          7.6580   26.3910   12.3580 C.2    31  ILE31       0.2260
     19  O          8.3290   27.0670   13.1450 O.2    31  ILE31      -0.2867
     20  CB         8.6770   25.5800   10.1870 C.3    31  ILE31       0.0252
     21  CG1        9.4080   24.4330    9.4940 C.3    31  ILE31       0.0019
     22  CG2        9.5060   26.8420   10.1770 C.3    31  ILE31       0.0019
     23  CD1        9.4560   24.5930    7.9740 C.3    31  ILE31       0.0001
     24  N         16.8810   21.9280   13.7260 N.3    41  ASN41      -0.1240
     25  CA        16.4690   22.2620   12.3640 C.3    41  ASN41       0.1653
     26  C         17.2200   21.4240   11.3330 C.2    41  ASN41       0.2266
     27  O         16.6400   20.9940   10.3280 O.2    41  ASN41      -0.2867
     28  CB        16.6800   23.7480   12.0890 C.3    41  ASN41       0.1155
     29  CG        15.5950   24.6140   12.6870 C.2    41  ASN41       0.2627
     30  OD1       14.4350   24.2140   12.7510 O.2    41  ASN41      -0.2716
     31  ND2       15.9690   25.8180   13.1250 N.am   41  ASN41      -0.0877
     32  N         15.5570   18.1910   11.2400 N.3    44  ILE44      -0.1231
     33  CA        14.2790   18.3140   10.5400 C.3    44  ILE44       0.1692
     34  C         14.5090   18.3170    9.0340 C.2    44  ILE44       0.2591
     35  O         13.8310   17.6070    8.2860 O.2    44  ILE44      -0.2718
     36  CB        13.5290   19.5690   11.0350 C.3    44  ILE44       0.0266
     37  CG1       13.1070   19.3490   12.5060 C.3    44  ILE44       0.0019
     38  CG2       12.2810   19.8890   10.1620 C.3    44  ILE44       0.0020
     39  CD1       12.5820   20.5930   13.2410 C.3    44  ILE44       0.0001
     40  N         15.5490   19.0250    8.5820 N.am   45  LEU45      -0.1980
     41  CA        15.8730   19.0630    7.1540 C.3    45  LEU45       0.1596
     42  C         16.2330   17.6790    6.6180 C.2    45  LEU45       0.2287
     43  O         15.7100   17.2420    5.5810 O.2    45  LEU45      -0.2864
     44  CB        17.0340   20.0370    6.9200 C.3    45  LEU45       0.0297
     45  CG        17.5960   19.9780    5.5000 C.3    45  LEU45       0.0022
     46  CD1       16.4800   20.3810    4.5280 C.3    45  LEU45       0.0001
     47  CD2       18.8260   20.8510    5.3310 C.3    45  LEU45       0.0001
     48  N         13.0790   15.5500    6.4880 N.3    48  MET48      -0.1230
     49  CA        12.2180   15.9940    5.3850 C.3    48  MET48       0.1702
     50  C         12.7810   15.5810    4.0370 C.2    48  MET48       0.2592
     51  O         12.0370   15.1290    3.1610 O.2    48  MET48      -0.2718
     52  CB        12.0690   17.5140    5.3970 C.3    48  MET48       0.0401
     53  CG        11.3030   18.1100    6.5830 C.3    48  MET48       0.0596
     54  SD         9.6560   17.4470    6.5950 S.3    48  MET48      -0.1393
     55  CE         9.2040   17.7790    4.9100 C.3    48  MET48       0.0692
     56  N         14.0950   15.7590    3.8510 N.am   49  ALA49      -0.1980
     57  CA        14.7180   15.5300    2.5580 C.3    49  ALA49       0.1597
     58  C         14.8110   14.0510    2.2560 C.2    49  ALA49       0.2287
     59  O         14.7190   13.6630    1.0940 O.2    49  ALA49      -0.2864
     60  CB        16.1000   16.1760    2.4950 C.3    49  ALA49       0.0319
     61  N         11.4450   13.1900    1.0980 N.3    52  HIS52      -0.1241
     62  CA        11.2240   13.7570   -0.2320 C.3    52  HIS52       0.1621
     63  C         11.8570   12.9040   -1.3320 C.2    52  HIS52       0.2264
     64  O         11.2230   12.6330   -2.3540 O.2    52  HIS52      -0.2867
     65  CB        11.7390   15.1910   -0.2860 C.3    52  HIS52       0.0745
     66  CG        11.5790   15.8140   -1.6240 C.ar   52  HIS52       0.0817
     67  ND1       12.6140   15.8920   -2.5300 N.ar   52  HIS52      -0.2268
     68  CD2       10.4880   16.3030   -2.2520 C.ar   52  HIS52       0.1154
     69  CE1       12.1770   16.4510   -3.6450 C.ar   52  HIS52       0.1986
     70  NE2       10.8880   16.7000   -3.5040 N.ar   52  HIS52      -0.2212
     71  N         14.1030   19.2670   -4.7750 N.3    86  MET86      -0.1230
     72  CA        13.8650   19.6470   -3.3890 C.3    86  MET86       0.1702
     73  C         13.6900   21.1620   -3.2310 C.2    86  MET86       0.2592
     74  O         12.8810   21.6190   -2.4130 O.2    86  MET86      -0.2718
     75  CB        15.0150   19.1310   -2.5340 C.3    86  MET86       0.0401
     76  CG        14.7060   19.0520   -1.0820 C.3    86  MET86       0.0596
     77  SD        15.9470   19.9620   -0.1750 S.3    86  MET86      -0.1393
     78  CE        16.0550   21.4570   -1.1360 C.3    86  MET86       0.0692
     79  N         14.4630   21.9570   -3.9650 N.am   87  PHE87      -0.1976
     80  CA        14.3110   23.4020   -3.8440 C.3    87  PHE87       0.1639
     81  C         13.0490   23.8820   -4.5340 C.2    87  PHE87       0.2290
     82  O         12.4350   24.8560   -4.0980 O.2    87  PHE87      -0.2864
     83  CB        15.5330   24.1230   -4.4200 C.3    87  PHE87       0.0560
     84  CG        16.7080   24.1210   -3.4930 C.ar   87  PHE87      -0.0200
     85  CD1       16.6880   24.8770   -2.3240 C.ar   87  PHE87      -0.0042
     86  CD2       17.8370   23.3510   -3.7730 C.ar   87  PHE87      -0.0042
     87  CE1       17.7770   24.8730   -1.4650 C.ar   87  PHE87      -0.0003
     88  CE2       18.9220   23.3540   -2.9140 C.ar   87  PHE87      -0.0003
     89  CZ        18.8900   24.1040   -1.7640 C.ar   87  PHE87      -0.0000
     90  N         10.2590   22.1810   -4.7180 N.3    89  ARG89      -0.1231
     91  CA         9.2100   21.8630   -3.7610 C.3    89  ARG89       0.1694
     92  C          9.2460   22.8170   -2.5730 C.2    89  ARG89       0.2592
     93  O          8.1930   23.2820   -2.1170 O.2    89  ARG89      -0.2718
     94  CB         9.3370   20.3980   -3.3080 C.3    89  ARG89       0.0321
     95  CG         8.2930   19.9930   -2.2450 C.3    89  ARG89       0.0489
     96  CD         6.8620   20.1920   -2.7630 C.3    89  ARG89       0.2205
     97  NE         5.8360   19.6310   -1.8720 N.pl3  89  ARG89      -0.0865
     98  CZ         4.5420   19.5830   -2.1750 C.cat  89  ARG89       0.5346
     99  NH1        4.1150   20.0600   -3.3420 N.pl3  89  ARG89       0.1354
    100  NH2        3.6780   19.0480   -1.3230 N.pl3  89  ARG89       0.1354
    101  N         10.4490   23.1430   -2.0640 N.am   90  SER90      -0.1952
    102  CA        10.5430   24.1550   -0.9930 C.3    90  SER90       0.1924
    103  C          9.9690   25.5010   -1.4430 C.2    90  SER90       0.2314
    104  O          9.3140   26.2030   -0.6630 O.2    90  SER90      -0.2863
    105  CB        11.9870   24.3440   -0.5260 C.3    90  SER90       0.2116
    106  OG        12.4980   23.1960    0.1070 O.3    90  SER90      -0.2180
    107  N          6.1570   25.2950   -1.3380 N.3    93  ILE93      -0.1231
    108  CA         5.6570   25.3810    0.0310 C.3    93  ILE93       0.1692
    109  C          5.7620   26.8050    0.5420 C.2    93  ILE93       0.2592
    110  O          4.8270   27.3460    1.1500 O.2    93  ILE93      -0.2718
    111  CB         6.4280   24.4030    0.9340 C.3    93  ILE93       0.0266
    112  CG1        6.1450   22.9590    0.5150 C.3    93  ILE93       0.0019
    113  CG2        6.1350   24.6490    2.4120 C.3    93  ILE93       0.0020
    114  CD1        7.1090   21.9620    1.1560 C.3    93  ILE93       0.0001
    115  N          6.9120   27.4340    0.3120 N.am   94  PHE94      -0.1976
    116  CA         7.1130   28.7810    0.8230 C.3    94  PHE94       0.1639
    117  C          6.0500   29.7440    0.3080 C.2    94  PHE94       0.2290
    118  O          5.6610   30.6730    1.0160 O.2    94  PHE94      -0.2864
    119  CB         8.5010   29.2700    0.4220 C.3    94  PHE94       0.0560
    120  CG         8.8500   30.6250    0.9580 C.ar   94  PHE94      -0.0200
    121  CD1        9.3240   30.7790    2.2510 C.ar   94  PHE94      -0.0042
    122  CD2        8.6720   31.7570    0.1670 C.ar   94  PHE94      -0.0042
    123  CE1        9.6470   32.0400    2.7380 C.ar   94  PHE94      -0.0003
    124  CE2        8.9840   33.0120    0.6420 C.ar   94  PHE94      -0.0003
    125  CZ         9.4770   33.1550    1.9270 C.ar   94  PHE94      -0.0000
    126  N          7.3800   32.5270    9.0710 N.3   106  LEU106     -0.1245
    127  CA         8.0580   31.4250    8.3990 C.3   106  LEU106      0.1561
    128  C          9.3880   31.8880    7.8080 C.2   106  LEU106      0.2260
    129  O         10.4110   31.2080    7.9430 O.2   106  LEU106     -0.2867
    130  CB         7.1520   30.8410    7.3110 C.3   106  LEU106      0.0270
    131  CG         7.6760   29.6380    6.5070 C.3   106  LEU106      0.0019
    132  CD1        7.6030   28.3320    7.3070 C.3   106  LEU106      0.0001
    133  CD2        6.9630   29.4940    5.1770 C.3   106  LEU106      0.0001
    134  N         11.8090   32.2550   10.6690 N.3   109  ARG109     -0.1231
    135  CA        12.2520   30.9460   11.1350 C.3   109  ARG109      0.1694
    136  C         13.3060   30.3650   10.2060 C.2   109  ARG109      0.2591
    137  O         14.3180   29.8100   10.6580 O.2   109  ARG109     -0.2718
    138  CB        11.0710   29.9900   11.2270 C.3   109  ARG109      0.0321
    139  CG        10.0770   30.2760   12.3440 C.3   109  ARG109      0.0489
    140  CD        10.4980   29.6120   13.6460 C.3   109  ARG109      0.2205
    141  NE         9.3430   29.5130   14.5320 N.pl3 109  ARG109     -0.0865
    142  CZ         9.1020   30.2930   15.5720 C.cat 109  ARG109      0.5346
    143  NH1        9.9530   31.2530   15.9020 N.pl3 109  ARG109      0.1354
    144  NH2        7.9970   30.1020   16.2810 N.pl3 109  ARG109      0.1354
    145  N         13.1010   30.5000    8.9030 N.am  110  ILE110     -0.1980
    146  CA        14.0990   29.9950    7.9710 C.3   110  ILE110      0.1595
    147  C         15.3730   30.8290    8.0400 C.2   110  ILE110      0.2287
    148  O         16.4760   30.2780    8.0250 O.2   110  ILE110     -0.2864
    149  CB        13.5130   29.9080    6.5500 C.3   110  ILE110      0.0276
    150  CG1       12.3620   28.8920    6.5390 C.3   110  ILE110      0.0022
    151  CG2       14.5700   29.5140    5.5690 C.3   110  ILE110      0.0022
    152  CD1       11.4720   28.9510    5.3290 C.3   110  ILE110      0.0001
    153  N         17.4250   29.5530   10.9030 N.3   113  SER113     -0.1217
    154  CA        17.4060   28.1030   11.0380 C.3   113  SER113      0.1889
    155  C         18.7880   27.4970   11.2540 C.2   113  SER113      0.2288
    156  O         18.8840   26.3570   11.7220 O.2   113  SER113     -0.2866
    157  CB        16.7930   27.4560    9.7890 C.3   113  SER113      0.2089
    158  OG        17.5400   27.7880    8.6350 O.3   113  SER113     -0.2183
    159  N         18.6170   32.2230   -1.7560 N.3   123  MET123     -0.1245
    160  CA        17.4860   31.3270   -1.5630 C.3   123  MET123      0.1570
    161  C         16.1680   32.0840   -1.5890 C.2   123  MET123      0.2261
    162  O         15.2160   31.6690   -2.2540 O.2   123  MET123     -0.2867
    163  CB        17.6350   30.5840   -0.2470 C.3   123  MET123      0.0387
    164  CG        16.5990   29.5180   -0.0890 C.3   123  MET123      0.0595
    165  SD        16.8890   28.6230    1.4230 S.3   123  MET123     -0.1393
    166  CE        16.6350   29.9130    2.6240 C.3   123  MET123      0.0692
    167  N         13.0110   31.9100   -4.2020 N.3   127  TYR127     -0.1241
    168  CA        11.6350   31.6660   -3.7460 C.3   127  TYR127      0.1605
    169  C         10.7190   32.7690   -4.2300 C.2   127  TYR127      0.2264
    170  O          9.5890   32.5250   -4.6590 O.2   127  TYR127     -0.2867
    171  CB        11.5570   31.5780   -2.2240 C.3   127  TYR127      0.0534
    172  CG        12.1910   30.3410   -1.6500 C.ar  127  TYR127     -0.0201
    173  CD1       12.6290   29.3080   -2.4860 C.ar  127  TYR127     -0.0009
    174  CD2       12.3150   30.1790   -0.2720 C.ar  127  TYR127     -0.0009
    175  CE1       13.1970   28.1430   -1.9510 C.ar  127  TYR127      0.0417
    176  CE2       12.8850   29.0190    0.2740 C.ar  127  TYR127      0.0417
    177  CZ        13.3260   28.0130   -0.5680 C.ar  127  TYR127      0.1957
    178  OH        13.8950   26.8560   -0.0500 O.3   127  TYR127     -0.2866
    179  N         26.1480   24.7280    7.3460 N.3   212  TRP212     -0.1241
    180  CA        25.0900   24.8520    8.3370 C.3   212  TRP212      0.1605
    181  C         25.7090   24.9830    9.7170 C.2   212  TRP212      0.2264
    182  O         26.6790   24.2800   10.0480 O.2   212  TRP212     -0.2867
    183  CB        24.1560   23.6530    8.2830 C.3   212  TRP212      0.0550
    184  CG        22.7790   23.8820    8.8730 C.ar  212  TRP212      0.0003
    185  CD1       22.4490   23.9430   10.2000 C.ar  212  TRP212      0.0946
    186  CD2       21.5540   24.0340    8.1490 C.ar  212  TRP212      0.0152
    187  NE1       21.0940   24.1330   10.3440 N.ar  212  TRP212     -0.2442
    188  CE2       20.5210   24.1910    9.1010 C.ar  212  TRP212      0.0810
    189  CE3       21.2290   24.0600    6.7920 C.ar  212  TRP212      0.0012
    190  CZ2       19.1880   24.3710    8.7360 C.ar  212  TRP212      0.0191
    191  CZ3       19.8950   24.2330    6.4250 C.ar  212  TRP212      0.0001
    192  CH2       18.8930   24.3830    7.3950 C.ar  212  TRP212      0.0015
@<TRIPOS>BOND
     1    71    72    1
     2    90    91    1
     3   170   169    2
     4    81    82    2
     5    81    80    1
     6    83    80    1
     7    83    84    1
     8   169   168    1
     9   167   168    1
    10    79    80    1
    11    79    73   am
    12    86    84   ar
    13    86    88   ar
    14    91    94    1
    15    91    92    1
    16   168   171    1
    17    69    70   ar
    18    69    67   ar
    19    70    68   ar
    20    84    85   ar
    21    72    73    1
    22    72    75    1
    23    99    98    1
    24    94    95    1
    25    73    74    2
    26    88    89   ar
    27    96    95    1
    28    96    97    1
    29    92    93    2
    30    92   101   am
    31    75    76    1
    32    67    66   ar
    33   173   175   ar
    34   173   172   ar
    35    64    63    2
    36    85    87   ar
    37   162   161    2
    38    68    66   ar
    39   171   172    1
    40    98    97    2
    41    98   100    1
    42   101   102    1
    43   175   177   ar
    44    89    87   ar
    45   159   160    1
    46   172   174   ar
    47    66    65    1
    48   161   160    1
    49   160   163    1
    50   103   102    1
    51   103   104    2
    52   107   108    1
    53    63    62    1
    54    78    77    1
    55    76    77    1
    56   102   105    1
    57   177   178    1
    58   177   176   ar
    59   105   106    1
    60    65    62    1
    61   174   176   ar
    62   163   164    1
    63    62    61    1
    64   164   165    1
    65   108   109    1
    66   108   111    1
    67   122   124   ar
    68   122   120   ar
    69   117   116    1
    70   117   118    2
    71   115   109   am
    72   115   116    1
    73   119   116    1
    74   119   120    1
    75   112   111    1
    76   112   114    1
    77   109   110    2
    78   124   125   ar
    79   111   113    1
    80   120   121   ar
    81    59    58    2
    82   165   166    1
    83   125   123   ar
    84   121   123   ar
    85    58    57    1
    86    60    57    1
    87    57    56    1
    88    51    50    2
    89     8     6    1
    90    56    50   am
    91    50    49    1
    92    46    45    1
    93    55    54    1
    94     6     5    1
    95   133   131    1
    96   152   150    1
    97    47    45    1
    98    49    52    1
    99    49    48    1
   100    52    53    1
   101    15    13    1
   102    45    44    1
   103   151   149    1
   104    43    42    2
   105     5     7    1
   106     5     2    1
   107   191   189   ar
   108   191   192   ar
   109   131   132    1
   110   131   130    1
   111   150   149    1
   112   149   146    1
   113    53    54    1
   114    42    41    1
   115    14    13    1
   116   189   186   ar
   117    13    10    1
   118     1     2    1
   119    44    41    1
   120     2     3    1
   121    41    40    1
   122     9     3   am
   123     9    10    1
   124   130   127    1
   125   179   180    1
   126   192   190   ar
   127     3     4    2
   128    10    11    1
   129   128   129    2
   130   128   127    1
   131   146   147    1
   132   146   145    1
   133    23    21    1
   134   148   147    2
   135   186   184   ar
   136   186   188   ar
   137   183   180    1
   138   183   184    1
   139    35    34    2
   140   180   181    1
   141   127   126    1
   142    40    34   am
   143   158   157    1
   144   190   188   ar
   145   184   185   ar
   146   145   136   am
   147    34    33    1
   148   188   187   ar
   149    11    12    2
   150    21    20    1
   151   181   182    2
   152   157   154    1
   153    38    36    1
   154    22    20    1
   155    20    17    1
   156   185   187   ar
   157   136   137    2
   158   136   135    1
   159    27    26    2
   160    33    36    1
   161    33    32    1
   162   134   135    1
   163   153   154    1
   164    36    37    1
   165   154   155    1
   166   135   138    1
   167   138   139    1
   168   155   156    2
   169    26    25    1
   170    16    17    1
   171    17    18    1
   172    28    25    1
   173    28    29    1
   174   139   140    1
   175    18    19    2
   176    25    24    1
   177    37    39    1
   178    29    30    2
   179    29    31   am
   180   140   141    1
   181   141   142    2
   182   142   143    1
   183   142   144    1
