@<TRIPOS>MOLECULE
tmp/5q0lC00.pdb
 219 209 0 0 0
SMALL
GASTEIGER

@<TRIPOS>ATOM
      1  N         24.0110    4.2330   43.4070 N.3    20  ARG20      -0.1245
      2  CA        23.1610    3.7590   44.5020 C.3    20  ARG20       0.1563
      3  C         22.0920    2.8420   43.8810 C.2    20  ARG20       0.2260
      4  O         21.4880    3.2010   42.8620 O.2    20  ARG20      -0.2867
      5  CB        22.5160    4.9730   45.1900 C.3    20  ARG20       0.0307
      6  CG        21.8850    4.7020   46.5300 C.3    20  ARG20       0.0489
      7  CD        21.5320    6.0060   47.2200 C.3    20  ARG20       0.2205
      8  NE        22.5960    6.4530   48.1210 N.pl3  20  ARG20      -0.0865
      9  CZ        22.5870    7.6060   48.7830 C.cat  20  ARG20       0.5346
     10  NH1       21.5740    8.4540   48.6400 N.pl3  20  ARG20       0.1354
     11  NH2       23.5900    7.9220   49.5880 N.pl3  20  ARG20       0.1354
     12  N         16.5870    3.1480   47.0620 N.3    24  ILE24      -0.1231
     13  CA        15.7470    4.3430   46.9260 C.3    24  ILE24       0.1692
     14  C         14.2600    3.9980   47.1510 C.2    24  ILE24       0.2592
     15  O         13.6170    4.6240   47.9980 O.2    24  ILE24      -0.2718
     16  CB        16.0210    5.0510   45.5620 C.3    24  ILE24       0.0266
     17  CG1       17.4550    5.5780   45.5020 C.3    24  ILE24       0.0019
     18  CG2       15.0260    6.1840   45.2860 C.3    24  ILE24       0.0020
     19  CD1       18.3760    4.8560   44.5860 C.3    24  ILE24       0.0001
     20  N         13.7320    3.0050   46.3910 N.am   25  THR25      -0.1953
     21  CA        12.3460    2.5280   46.4440 C.3    25  THR25       0.1897
     22  C         11.9580    1.9980   47.8280 C.2    25  THR25       0.2313
     23  O         10.9300    2.4260   48.3540 O.2    25  THR25      -0.2863
     24  CB        12.0560    1.5090   45.3290 C.3    25  THR25       0.1794
     25  OG1       13.0310    0.4710   45.3710 O.3    25  THR25      -0.2208
     26  CG2       12.0240    2.1430   43.9430 C.3    25  THR25       0.0378
     27  N         11.4470    4.9670   50.4140 N.3    28  ILE28      -0.1245
     28  CA        10.2290    5.7760   50.2990 C.3    28  ILE28       0.1561
     29  C          8.9340    4.9120   50.3810 C.2    28  ILE28       0.2260
     30  O          7.8960    5.4460   50.7840 O.2    28  ILE28      -0.2867
     31  CB        10.2510    6.7470   49.0730 C.3    28  ILE28       0.0252
     32  CG1        9.6710    6.1160   47.7970 C.3    28  ILE28       0.0019
     33  CG2       11.6550    7.3400   48.8180 C.3    28  ILE28       0.0019
     34  CD1        8.7380    7.0370   47.0640 C.3    28  ILE28       0.0001
     35  N         11.1790   14.7350   52.8300 N.3    38  ASN38      -0.1240
     36  CA        11.2860   14.3870   51.4190 C.3    38  ASN38       0.1653
     37  C         12.2360   15.3300   50.6460 C.2    38  ASN38       0.2266
     38  O         12.9770   14.8640   49.7620 O.2    38  ASN38      -0.2867
     39  CB         9.9070   14.3360   50.7790 C.3    38  ASN38       0.1155
     40  CG         9.1340   13.0720   51.0490 C.2    38  ASN38       0.2627
     41  OD1        9.6770   11.9590   51.0880 O.2    38  ASN38      -0.2716
     42  ND2        7.8280   13.2090   51.1710 N.am   38  ASN38      -0.0877
     43  N         15.5650   14.2240   51.7930 N.3    41  ILE41      -0.1231
     44  CA        15.8650   12.9450   51.1280 C.3    41  ILE41       0.1692
     45  C         16.3770   13.2510   49.7110 C.2    41  ILE41       0.2591
     46  O         17.4610   12.7950   49.3750 O.2    41  ILE41      -0.2718
     47  CB        14.6900   11.9100   51.1400 C.3    41  ILE41       0.0266
     48  CG1       14.4330   11.3650   52.5710 C.3    41  ILE41       0.0019
     49  CG2       14.9430   10.7290   50.1530 C.3    41  ILE41       0.0020
     50  CD1       13.0260   10.8190   52.7990 C.3    41  ILE41       0.0001
     51  N         15.6360   14.0680   48.9180 N.am   42  LEU42      -0.1980
     52  CA        16.0360   14.4420   47.5540 C.3    42  LEU42       0.1596
     53  C         17.4250   15.1040   47.5040 C.2    42  LEU42       0.2287
     54  O         18.2620   14.6860   46.7110 O.2    42  LEU42      -0.2864
     55  CB        14.9670   15.3120   46.8680 C.3    42  LEU42       0.0297
     56  CG        15.3640   16.0170   45.5600 C.3    42  LEU42       0.0022
     57  CD1       15.4850   15.0330   44.3990 C.3    42  LEU42       0.0001
     58  CD2       14.3970   17.1330   45.2420 C.3    42  LEU42       0.0001
     59  N         20.4970   13.5090   45.5480 N.3    45  ALA45      -0.1245
     60  CA        21.0740   14.3200   44.4870 C.3    45  ALA45       0.1562
     61  C         22.5480   14.6250   44.6940 C.2    45  ALA45       0.2260
     62  O         23.2790   14.7140   43.7020 O.2    45  ALA45      -0.2867
     63  CB        20.2920   15.6000   44.3290 C.3    45  ALA45       0.0290
     64  N         24.2250   11.3660   43.9380 N.3    48  HIS48      -0.1241
     65  CA        24.1000   11.2710   42.4850 C.3    48  HIS48       0.1621
     66  C         25.1590   12.0930   41.7530 C.2    48  HIS48       0.2264
     67  O         25.8140   11.5440   40.8790 O.2    48  HIS48      -0.2867
     68  CB        22.6920   11.6420   42.0000 C.3    48  HIS48       0.0745
     69  CG        22.5790   11.6510   40.5070 C.ar   48  HIS48       0.0817
     70  ND1       22.4790   10.4790   39.7830 N.ar   48  HIS48      -0.2268
     71  CD2       22.6280   12.6940   39.6470 C.ar   48  HIS48       0.1154
     72  CE1       22.4550   10.8460   38.5130 C.ar   48  HIS48       0.1986
     73  NE2       22.5660   12.1670   38.3860 N.ar   48  HIS48      -0.2212
     74  N         17.1830   13.0800   36.3290 N.3    82  PHE82      -0.1241
     75  CA        15.8300   12.7090   35.9220 C.3    82  PHE82       0.1605
     76  C         15.7900   11.4140   35.1180 C.2    82  PHE82       0.2264
     77  O         14.8310   10.6530   35.2460 O.2    82  PHE82      -0.2867
     78  CB        15.1190   13.8510   35.1870 C.3    82  PHE82       0.0534
     79  CG        14.5430   14.9090   36.1030 C.ar   82  PHE82      -0.0203
     80  CD1       13.4090   14.6510   36.8610 C.ar   82  PHE82      -0.0042
     81  CD2       15.1320   16.1680   36.2000 C.ar   82  PHE82      -0.0042
     82  CE1       12.8820   15.6280   37.7100 C.ar   82  PHE82      -0.0003
     83  CE2       14.5940   17.1510   37.0390 C.ar   82  PHE82      -0.0003
     84  CZ        13.4780   16.8710   37.7930 C.ar   82  PHE82      -0.0000
     85  N         17.8930    8.8900   35.6190 N.3    84  ARG84      -0.1231
     86  CA        18.1530    7.8950   36.6570 C.3    84  ARG84       0.1694
     87  C         16.8870    7.6400   37.4870 C.2    84  ARG84       0.2592
     88  O         16.6220    6.4910   37.8580 O.2    84  ARG84      -0.2718
     89  CB        19.3280    8.3520   37.5540 C.3    84  ARG84       0.0321
     90  CG        19.7690    7.3450   38.6170 C.3    84  ARG84       0.0489
     91  CD        20.2740    6.0390   38.0360 C.3    84  ARG84       0.2205
     92  NE        20.4990    5.0430   39.0860 N.pl3  84  ARG84      -0.0865
     93  CZ        20.6350    3.7380   38.8740 C.cat  84  ARG84       0.5346
     94  NH1       20.5570    3.2450   37.6470 N.pl3  84  ARG84       0.1354
     95  NH2       20.8460    2.9130   39.8910 N.pl3  84  ARG84       0.1354
     96  N         16.1100    8.7120   37.7740 N.am   85  SER85      -0.1952
     97  CA        14.8350    8.6280   38.5100 C.3    85  SER85       0.1924
     98  C         13.8460    7.8470   37.6500 C.2    85  SER85       0.2314
     99  O         13.1360    6.9890   38.1650 O.2    85  SER85      -0.2863
    100  CB        14.2790   10.0220   38.7980 C.3    85  SER85       0.2116
    101  OG        15.1770   10.8250   39.5450 O.3    85  SER85      -0.2180
    102  N         14.8270    4.1330   37.7540 N.3    88  ILE88      -0.1231
    103  CA        14.3770    3.6210   39.0540 C.3    88  ILE88       0.1692
    104  C         12.8630    3.4320   39.0930 C.2    88  ILE88       0.2592
    105  O         12.3950    2.3470   39.4440 O.2    88  ILE88      -0.2718
    106  CB        14.9070    4.4950   40.2270 C.3    88  ILE88       0.0266
    107  CG1       16.4510    4.3990   40.3400 C.3    88  ILE88       0.0019
    108  CG2       14.2320    4.1190   41.5630 C.3    88  ILE88       0.0020
    109  CD1       17.1230    5.5290   41.1340 C.3    88  ILE88       0.0001
    110  N         12.1110    4.4660   38.7090 N.am   89  PHE89      -0.1976
    111  CA        10.6450    4.4500   38.6990 C.3    89  PHE89       0.1639
    112  C         10.0700    3.2510   37.9270 C.2    89  PHE89       0.2290
    113  O          9.1370    2.6090   38.4060 O.2    89  PHE89      -0.2864
    114  CB        10.1130    5.7760   38.1190 C.3    89  PHE89       0.0560
    115  CG         8.6130    5.9490   38.1590 C.ar   89  PHE89      -0.0200
    116  CD1        7.9790    6.4050   39.3100 C.ar   89  PHE89      -0.0042
    117  CD2        7.8360    5.6750   37.0390 C.ar   89  PHE89      -0.0042
    118  CE1        6.5970    6.5560   39.3470 C.ar   89  PHE89      -0.0003
    119  CE2        6.4510    5.8370   37.0750 C.ar   89  PHE89      -0.0003
    120  CZ         5.8410    6.2840   38.2270 C.ar   89  PHE89      -0.0000
    121  N          4.5880    3.7750   45.0550 N.3   101  LEU101     -0.1245
    122  CA         5.7830    4.5680   44.7900 C.3   101  LEU101      0.1561
    123  C          5.3820    5.8550   44.0690 C.2   101  LEU101      0.2260
    124  O          5.7920    6.9290   44.4840 O.2   101  LEU101     -0.2867
    125  CB         6.7750    3.7430   43.9270 C.3   101  LEU101      0.0270
    126  CG         8.0830    4.4260   43.4800 C.3   101  LEU101      0.0019
    127  CD1        9.0870    4.4510   44.5970 C.3   101  LEU101      0.0001
    128  CD2        8.6910    3.7140   42.2780 C.3   101  LEU101      0.0001
    129  N          3.3150    8.0740   46.4090 N.3   104  ARG104     -0.1231
    130  CA         4.2090    8.5800   47.4460 C.3   104  ARG104      0.1694
    131  C          4.9960    9.8030   46.9510 C.2   104  ARG104      0.2591
    132  O          5.0570   10.7990   47.6740 O.2   104  ARG104     -0.2718
    133  CB         5.1570    7.4650   47.9380 C.3   104  ARG104      0.0321
    134  CG         5.3420    7.4040   49.4510 C.3   104  ARG104      0.0489
    135  CD         4.2200    6.6820   50.1770 C.3   104  ARG104      0.2205
    136  NE         4.7250    6.0030   51.3680 N.pl3 104  ARG104     -0.0865
    137  CZ         4.0480    5.0920   52.0580 C.cat 104  ARG104      0.5346
    138  NH1        2.8220    4.7470   51.6890 N.pl3 104  ARG104      0.1354
    139  NH2        4.5900    4.5220   53.1250 N.pl3 104  ARG104      0.1354
    140  N          5.5490    9.7470   45.7120 N.am  105  ILE105     -0.1980
    141  CA         6.3020   10.8640   45.1390 C.3   105  ILE105      0.1595
    142  C          5.3290   11.9760   44.7050 C.2   105  ILE105      0.2287
    143  O          5.6610   13.1420   44.8790 O.2   105  ILE105     -0.2864
    144  CB         7.3900   10.5190   44.0530 C.3   105  ILE105      0.0276
    145  CG1        7.0150   10.9960   42.6350 C.3   105  ILE105      0.0022
    146  CG2        7.8220    9.0520   44.0320 C.3   105  ILE105      0.0022
    147  CD1        8.0030   11.9250   42.0350 C.3   105  ILE105      0.0001
    148  N          4.9970   13.9490   47.6200 N.3   108  SER108     -0.1217
    149  CA         6.2860   14.1870   48.2630 C.3   108  SER108      0.1889
    150  C          6.4620   15.6240   48.7620 C.2   108  SER108      0.2288
    151  O          7.0350   15.8200   49.8300 O.2   108  SER108     -0.2866
    152  CB         7.4250   13.8190   47.3230 C.3   108  SER108      0.2089
    153  OG         7.4180   14.6620   46.1860 O.3   108  SER108     -0.2183
    154  N          6.4050   18.4150   45.9550 N.3   110  ILE110     -0.1245
    155  CA         6.5380   19.1800   44.7090 C.3   110  ILE110      0.1561
    156  C          5.1680   19.7210   44.2880 C.2   110  ILE110      0.2260
    157  O          4.1330   19.1240   44.6230 O.2   110  ILE110     -0.2867
    158  CB         7.1540   18.3340   43.5510 C.3   110  ILE110      0.0252
    159  CG1        8.0770   17.2150   44.0610 C.3   110  ILE110      0.0019
    160  CG2        7.8620   19.2220   42.5180 C.3   110  ILE110      0.0019
    161  CD1        8.0390   15.9590   43.2410 C.3   110  ILE110      0.0001
    162  N          8.4290    9.8290   32.7020 N.3   121  TYR121     -0.1241
    163  CA         8.7380    8.5250   33.3080 C.3   121  TYR121      0.1605
    164  C          8.0140    7.3960   32.5830 C.2   121  TYR121      0.2264
    165  O          8.6610    6.4510   32.1350 O.2   121  TYR121     -0.2867
    166  CB         8.3930    8.4880   34.8140 C.3   121  TYR121      0.0534
    167  CG         9.2500    9.3510   35.7250 C.ar  121  TYR121     -0.0201
    168  CD1       10.4050    9.9730   35.2510 C.ar  121  TYR121     -0.0009
    169  CD2        8.9120    9.5380   37.0610 C.ar  121  TYR121     -0.0009
    170  CE1       11.1900   10.7750   36.0810 C.ar  121  TYR121      0.0417
    171  CE2        9.6920   10.3310   37.9020 C.ar  121  TYR121      0.0417
    172  CZ        10.8290   10.9510   37.4050 C.ar  121  TYR121      0.1957
    173  OH        11.5900   11.7640   38.2070 O.3   121  TYR121     -0.2866
    174  N         14.0470   23.6330   36.3920 N.3   198  HIS198     -0.1241
    175  CA        14.5140   22.9240   37.5760 C.3   198  HIS198      0.1621
    176  C         14.5860   23.7880   38.8270 C.2   198  HIS198      0.2264
    177  O         14.0970   23.3400   39.8580 O.2   198  HIS198     -0.2867
    178  CB        15.8470   22.2020   37.3410 C.3   198  HIS198      0.0745
    179  CG        16.2100   21.2850   38.4640 C.ar  198  HIS198      0.0817
    180  ND1       15.3420   20.2810   38.8820 N.ar  198  HIS198     -0.2268
    181  CD2       17.3070   21.2820   39.2550 C.ar  198  HIS198      0.1154
    182  CE1       15.9480   19.6930   39.8960 C.ar  198  HIS198      0.1986
    183  NE2       17.1420   20.2450   40.1420 N.ar  198  HIS198     -0.2212
    184  N         12.3780   23.1590   42.3700 N.3   201  LEU201     -0.1245
    185  CA        12.9670   23.0600   43.7010 C.3   201  LEU201      0.1561
    186  C         12.3920   24.0870   44.6620 C.2   201  LEU201      0.2260
    187  O         12.0470   23.7190   45.7830 O.2   201  LEU201     -0.2867
    188  CB        14.4930   23.1990   43.6450 C.3   201  LEU201      0.0270
    189  CG        15.2620   22.2060   42.7830 C.3   201  LEU201      0.0019
    190  CD1       16.6220   22.7750   42.3930 C.3   201  LEU201      0.0001
    191  CD2       15.3840   20.8450   43.4510 C.3   201  LEU201      0.0001
    192  N          8.7480   23.4330   46.0750 N.3   203  TRP203     -0.1241
    193  CA         8.5760   22.4050   47.1200 C.3   203  TRP203      0.1605
    194  C          7.9100   23.0410   48.3400 C.2   203  TRP203      0.2264
    195  O          8.3230   24.1290   48.7570 O.2   203  TRP203     -0.2867
    196  CB         9.9300   21.8010   47.5510 C.3   203  TRP203      0.0550
    197  CG        10.2910   20.5140   46.8730 C.ar  203  TRP203      0.0003
    198  CD1       10.8930   20.3690   45.6580 C.ar  203  TRP203      0.0946
    199  CD2       10.1580   19.1970   47.4140 C.ar  203  TRP203      0.0152
    200  NE1       11.1070   19.0380   45.3900 N.ar  203  TRP203     -0.2442
    201  CE2       10.6600   18.2940   46.4480 C.ar  203  TRP203      0.0810
    202  CE3        9.6390   18.6860   48.6090 C.ar  203  TRP203      0.0012
    203  CZ2       10.6560   16.9110   46.6410 C.ar  203  TRP203      0.0191
    204  CZ3        9.6390   17.3150   48.7980 C.ar  203  TRP203      0.0001
    205  CH2       10.1430   16.4430   47.8210 C.ar  203  TRP203      0.0015
    206  N         23.4760   23.0720   40.4410 N.3   218  TRP218     -0.1241
    207  CA        22.0750   23.4460   40.1740 C.3   218  TRP218      0.1605
    208  C         21.8370   24.9610   40.0620 C.2   218  TRP218      0.2264
    209  O         20.7730   25.3740   39.5560 O.2   218  TRP218     -0.2867
    210  CB        21.1590   22.9020   41.2770 C.3   218  TRP218      0.0550
    211  CG        20.8720   21.4390   41.2100 C.ar  218  TRP218      0.0003
    212  CD1       21.2020   20.5780   40.2090 C.ar  218  TRP218      0.0946
    213  CD2       20.1080   20.6860   42.1510 C.ar  218  TRP218      0.0152
    214  NE1       20.7030   19.3310   40.4740 N.ar  218  TRP218     -0.2442
    215  CE2       20.0300   19.3650   41.6640 C.ar  218  TRP218      0.0810
    216  CE3       19.5000   20.9910   43.3770 C.ar  218  TRP218      0.0012
    217  CZ2       19.3720   18.3480   42.3610 C.ar  218  TRP218      0.0191
    218  CZ3       18.8370   19.9840   44.0600 C.ar  218  TRP218      0.0001
    219  CH2       18.7720   18.6830   43.5490 C.ar  218  TRP218      0.0015
@<TRIPOS>BOND
     1   165   164    2
     2   164   163    1
     3   162   163    1
     4   163   166    1
     5   166   167    1
     6    76    77    2
     7    76    75    1
     8    78    75    1
     9    78    79    1
    10   168   167   ar
    11   168   170   ar
    12    85    86    1
    13   167   169   ar
    14    75    74    1
    15   170   172   ar
    16    79    81   ar
    17    79    80   ar
    18    81    83   ar
    19   174   175    1
    20    86    87    1
    21    86    89    1
    22    80    82   ar
    23    83    84   ar
    24   117   119   ar
    25   117   115   ar
    26   169   171   ar
    27   119   120   ar
    28   178   175    1
    29   178   179    1
    30   172   171   ar
    31   172   173    1
    32    87    96   am
    33    87    88    2
    34    89    90    1
    35   175   176    1
    36    94    93    1
    37    98    99    2
    38    98    97    1
    39    82    84   ar
    40   102   103    1
    41    96    97    1
    42   112   113    2
    43   112   111    1
    44    91    90    1
    45    91    92    1
    46   114   115    1
    47   114   111    1
    48   115   116   ar
    49   120   118   ar
    50    73    72   ar
    51    73    71   ar
    52   179   180   ar
    53   179   181   ar
    54    97   100    1
    55    72    70   ar
    56   111   110    1
    57   110   104   am
    58   100   101    1
    59   176   177    2
    60    93    92    2
    61    93    95    1
    62   180   182   ar
    63   103   104    1
    64   103   106    1
    65   104   105    2
    66   181   183   ar
    67   116   118   ar
    68   209   208    2
    69    71    69   ar
    70    70    69   ar
    71   182   183   ar
    72   208   207    1
    73   207   206    1
    74   207   210    1
    75   212   214   ar
    76   212   211   ar
    77   106   107    1
    78   106   108    1
    79   107   109    1
    80   214   215   ar
    81    69    68    1
    82    67    66    2
    83   211   210    1
    84   211   213   ar
    85   215   213   ar
    86   215   217   ar
    87    66    65    1
    88    68    65    1
    89   147   145    1
    90   213   216   ar
    91   128   126    1
    92   217   219   ar
    93   184   185    1
    94   190   189    1
    95    65    64    1
    96   160   158    1
    97   145   144    1
    98   189   191    1
    99   189   188    1
   100     4     3    2
   101   161   159    1
   102   216   218   ar
   103     1     2    1
   104   126   125    1
   105   126   127    1
   106   219   218   ar
   107   158   159    1
   108   158   155    1
   109   188   185    1
   110   185   186    1
   111    62    61    2
   112     3     2    1
   113   125   122    1
   114    26    24    1
   115   146   144    1
   116   144   141    1
   117   123   124    2
   118   123   122    1
   119   156   157    2
   120   156   155    1
   121    63    60    1
   122    57    56    1
   123    60    61    1
   124    60    59    1
   125     2     5    1
   126    19    17    1
   127   186   187    2
   128   142   143    2
   129   142   141    1
   130   155   154    1
   131   122   121    1
   132   141   140    1
   133     5     6    1
   134    58    56    1
   135    18    16    1
   136    24    25    1
   137    24    21    1
   138   200   198   ar
   139   200   201   ar
   140    17    16    1
   141    56    55    1
   142    16    13    1
   143   198   197   ar
   144   140   131   am
   145   192   193    1
   146   153   152    1
   147    20    21    1
   148    20    14   am
   149   129   130    1
   150    21    22    1
   151   201   203   ar
   152   201   199   ar
   153     6     7    1
   154   203   205   ar
   155    54    53    2
   156    55    52    1
   157   197   199   ar
   158   197   196    1
   159    13    12    1
   160    13    14    1
   161   131   130    1
   162   131   132    2
   163    34    32    1
   164   193   196    1
   165   193   194    1
   166    14    15    2
   167     7     8    1
   168   152   149    1
   169   199   202   ar
   170   130   133    1
   171    53    52    1
   172    52    51    1
   173   148   149    1
   174    32    31    1
   175   205   204   ar
   176    22    23    2
   177   133   134    1
   178     8     9    2
   179   149   150    1
   180   194   195    2
   181   202   204   ar
   182    10     9    1
   183   150   151    2
   184     9    11    1
   185    33    31    1
   186    51    45   am
   187    31    28    1
   188    46    45    2
   189   134   135    1
   190    45    44    1
   191    38    37    2
   192    49    47    1
   193   135   136    1
   194    28    29    1
   195    28    27    1
   196    29    30    2
   197    37    36    1
   198    39    40    1
   199    39    36    1
   200    40    41    2
   201    40    42   am
   202    44    47    1
   203    44    43    1
   204    47    48    1
   205   136   137    2
   206    36    35    1
   207   138   137    1
   208   137   139    1
   209    48    50    1
