@<TRIPOS>MOLECULE
tmp/5q0oC01.pdb
 258 246 0 0 0
SMALL
GASTEIGER

@<TRIPOS>ATOM
      1  N         23.8470   45.2570   43.2360 N.3    25  ARG25      -0.1245
      2  CA        23.0160   44.7220   44.3140 C.3    25  ARG25       0.1563
      3  C         21.9530   43.8150   43.7040 C.2    25  ARG25       0.2260
      4  O         21.3090   44.1970   42.7240 O.2    25  ARG25      -0.2867
      5  CB        22.3780   45.8810   45.0910 C.3    25  ARG25       0.0307
      6  CG        21.6670   45.4820   46.3670 C.3    25  ARG25       0.0489
      7  CD        21.3400   46.7200   47.1740 C.3    25  ARG25       0.2205
      8  NE        22.4980   47.1980   47.9360 N.pl3  25  ARG25      -0.0865
      9  CZ        22.5910   48.4030   48.4890 C.cat  25  ARG25       0.5346
     10  NH1       21.6050   49.2810   48.3570 N.pl3  25  ARG25       0.1354
     11  NH2       23.6760   48.7440   49.1730 N.pl3  25  ARG25       0.1354
     12  N         16.6710   43.9360   46.9880 N.3    30  ILE30      -0.1231
     13  CA        15.8960   45.1680   46.8560 C.3    30  ILE30       0.1692
     14  C         14.3970   44.8940   47.0270 C.2    30  ILE30       0.2592
     15  O         13.7630   45.5670   47.8290 O.2    30  ILE30      -0.2718
     16  CB        16.2720   45.8800   45.5280 C.3    30  ILE30       0.0266
     17  CG1       17.7510   46.3390   45.5870 C.3    30  ILE30       0.0019
     18  CG2       15.3370   47.0680   45.2240 C.3    30  ILE30       0.0020
     19  CD1       18.4800   46.4140   44.2720 C.3    30  ILE30       0.0001
     20  N         13.8420   43.9070   46.2900 N.am   31  THR31      -0.1953
     21  CA        12.4210   43.5680   46.3430 C.3    31  THR31       0.1897
     22  C         12.0030   42.9860   47.6910 C.2    31  THR31       0.2313
     23  O         10.9020   43.2930   48.1370 O.2    31  THR31      -0.2863
     24  CB        11.9920   42.6830   45.1710 C.3    31  THR31       0.1794
     25  OG1       12.8260   41.5290   45.1070 O.3    31  THR31      -0.2208
     26  CG2       12.0300   43.4240   43.8390 C.3    31  THR31       0.0378
     27  N         11.4050   45.9850   50.0430 N.3    34  ILE34      -0.1245
     28  CA        10.1950   46.7140   49.6440 C.3    34  ILE34       0.1561
     29  C          8.9200   45.9100   49.9520 C.2    34  ILE34       0.2260
     30  O          7.9630   46.4780   50.4810 O.2    34  ILE34      -0.2867
     31  CB        10.2770   47.1890   48.1640 C.3    34  ILE34       0.0252
     32  CG1       11.4690   48.1640   47.9660 C.3    34  ILE34       0.0019
     33  CG2        8.9580   47.8390   47.7000 C.3    34  ILE34       0.0019
     34  CD1       11.9090   48.3050   46.5090 C.3    34  ILE34       0.0001
     35  N         11.1940   55.9570   52.6510 N.3    44  ASN44      -0.1240
     36  CA        11.4030   55.5690   51.2530 C.3    44  ASN44       0.1653
     37  C         12.4110   56.4620   50.5480 C.2    44  ASN44       0.2266
     38  O         13.1960   55.9600   49.7450 O.2    44  ASN44      -0.2867
     39  CB        10.0860   55.5370   50.4840 C.3    44  ASN44       0.1155
     40  CG         9.2170   54.3440   50.7990 C.2    44  ASN44       0.2627
     41  OD1        9.6880   53.2550   51.1100 O.2    44  ASN44      -0.2716
     42  ND2        7.9300   54.5080   50.6600 N.am   44  ASN44      -0.0877
     43  N         15.7370   55.2560   51.6570 N.3    47  ILE47      -0.1231
     44  CA        15.9910   53.9860   50.9680 C.3    47  ILE47       0.1692
     45  C         16.4630   54.2800   49.5320 C.2    47  ILE47       0.2591
     46  O         17.4770   53.7360   49.1120 O.2    47  ILE47      -0.2718
     47  CB        14.7810   53.0040   51.0150 C.3    47  ILE47       0.0266
     48  CG1       14.5290   52.5210   52.4650 C.3    47  ILE47       0.0019
     49  CG2       14.9960   51.7880   50.0630 C.3    47  ILE47       0.0020
     50  CD1       13.1340   52.0050   52.7270 C.3    47  ILE47       0.0001
     51  N         15.7540   55.1740   48.8070 N.am   48  LEU48      -0.1980
     52  CA        16.1230   55.5650   47.4430 C.3    48  LEU48       0.1596
     53  C         17.5450   56.1390   47.3630 C.2    48  LEU48       0.2287
     54  O         18.3130   55.6930   46.5160 O.2    48  LEU48      -0.2864
     55  CB        15.1080   56.5410   46.8180 C.3    48  LEU48       0.0297
     56  CG        15.4940   57.0890   45.4240 C.3    48  LEU48       0.0022
     57  CD1       15.4620   55.9900   44.3510 C.3    48  LEU48       0.0001
     58  CD2       14.6510   58.2790   45.0390 C.3    48  LEU48       0.0001
     59  N         20.1030   53.2930   47.9960 N.3    51  MET51      -0.1230
     60  CA        20.1150   52.3990   46.8250 C.3    51  MET51       0.1702
     61  C         20.8340   53.0710   45.6460 C.2    51  MET51       0.2592
     62  O         21.6600   52.4280   44.9890 O.2    51  MET51      -0.2718
     63  CB        18.6820   52.0280   46.3930 C.3    51  MET51       0.0401
     64  CG        17.9490   51.1290   47.3680 C.3    51  MET51       0.0596
     65  SD        18.5870   49.4470   47.3700 S.3    51  MET51      -0.1393
     66  CE        17.6040   48.7250   48.7220 C.3    51  MET51       0.0692
     67  N         20.5120   54.3480   45.3830 N.am   52  ALA52      -0.1980
     68  CA        21.0980   55.1130   44.2730 C.3    52  ALA52       0.1597
     69  C         22.5900   55.3900   44.4550 C.2    52  ALA52       0.2287
     70  O         23.3060   55.4350   43.4590 O.2    52  ALA52      -0.2864
     71  CB        20.3360   56.4080   44.0430 C.3    52  ALA52       0.0319
     72  N         24.3130   52.1300   43.7140 N.3    55  HIS55      -0.1241
     73  CA        24.2030   51.9430   42.2570 C.3    55  HIS55       0.1621
     74  C         25.2670   52.7550   41.5180 C.2    55  HIS55       0.2264
     75  O         25.9220   52.2040   40.6330 O.2    55  HIS55      -0.2867
     76  CB        22.7950   52.2900   41.7260 C.3    55  HIS55       0.0745
     77  CG        22.7050   52.2580   40.2280 C.ar   55  HIS55       0.0817
     78  ND1       22.8110   53.4080   39.4700 N.ar   55  HIS55      -0.2268
     79  CD2       22.6120   51.2010   39.3930 C.ar   55  HIS55       0.1154
     80  CE1       22.7420   53.0170   38.2080 C.ar   55  HIS55       0.1986
     81  NE2       22.6150   51.6990   38.1140 N.ar   55  HIS55      -0.2212
     82  N         21.5050   58.6520   35.7820 N.3    86  VAL86      -0.1245
     83  CA        20.0580   58.5960   36.0050 C.3    86  VAL86       0.1561
     84  C         19.4220   57.5980   35.0390 C.2    86  VAL86       0.2260
     85  O         18.5810   56.8090   35.4570 O.2    86  VAL86      -0.2867
     86  CB        19.3990   59.9960   35.9260 C.3    86  VAL86       0.0252
     87  CG1       17.8710   59.9040   35.9820 C.3    86  VAL86       0.0019
     88  CG2       19.9210   60.9090   37.0310 C.3    86  VAL86       0.0019
     89  N         20.2260   54.1230   36.0850 N.3    89  MET89      -0.1230
     90  CA        19.4830   53.8490   37.3070 C.3    89  MET89       0.1702
     91  C         18.0300   53.4360   36.9890 C.2    89  MET89       0.2592
     92  O         17.5340   52.4660   37.5680 O.2    89  MET89      -0.2718
     93  CB        19.5590   55.0530   38.2440 C.3    89  MET89       0.0401
     94  CG        19.1260   54.7440   39.6420 C.3    89  MET89       0.0596
     95  SD        17.8960   55.9220   40.2400 S.3    89  MET89      -0.1393
     96  CE        16.5590   55.5140   39.1900 C.3    89  MET89       0.0692
     97  N         17.3580   54.1560   36.0580 N.am   90  PHE90      -0.1976
     98  CA        15.9930   53.8210   35.6530 C.3    90  PHE90       0.1639
     99  C         15.9220   52.5060   34.8890 C.2    90  PHE90       0.2290
    100  O         14.9510   51.7670   35.0400 O.2    90  PHE90      -0.2864
    101  CB        15.3370   54.9590   34.8540 C.3    90  PHE90       0.0560
    102  CG        14.6910   56.0130   35.7260 C.ar   90  PHE90      -0.0200
    103  CD1       13.4660   55.7740   36.3440 C.ar   90  PHE90      -0.0042
    104  CD2       15.3100   57.2390   35.9390 C.ar   90  PHE90      -0.0042
    105  CE1       12.8700   56.7510   37.1550 C.ar   90  PHE90      -0.0003
    106  CE2       14.7060   58.2190   36.7400 C.ar   90  PHE90      -0.0003
    107  CZ        13.4930   57.9650   37.3400 C.ar   90  PHE90      -0.0000
    108  N         18.0350   49.9270   35.3470 N.3    92  ARG92      -0.1231
    109  CA        18.2290   48.9070   36.3840 C.3    92  ARG92       0.1694
    110  C         16.9350   48.7150   37.1910 C.2    92  ARG92       0.2592
    111  O         16.5540   47.5760   37.4790 O.2    92  ARG92      -0.2718
    112  CB        19.4200   49.2500   37.2970 C.3    92  ARG92       0.0321
    113  CG        19.7270   48.1990   38.3850 C.3    92  ARG92       0.0489
    114  CD        19.9710   46.7940   37.8410 C.3    92  ARG92       0.2205
    115  NE        20.3670   45.8870   38.9220 N.pl3  92  ARG92      -0.0865
    116  CZ        20.6890   44.6120   38.7650 C.cat  92  ARG92       0.5346
    117  NH1       20.6600   44.0540   37.5600 N.pl3  92  ARG92       0.1354
    118  NH2       21.0590   43.8850   39.8120 N.pl3  92  ARG92       0.1354
    119  N         16.2390   49.8290   37.5120 N.am   93  SER93      -0.1952
    120  CA        14.9600   49.7780   38.2250 C.3    93  SER93       0.1924
    121  C         13.9280   48.9980   37.3980 C.2    93  SER93       0.2314
    122  O         13.2200   48.1640   37.9570 O.2    93  SER93      -0.2863
    123  CB        14.4530   51.1870   38.5050 C.3    93  SER93       0.2116
    124  OG        15.2620   51.8300   39.4730 O.3    93  SER93      -0.2180
    125  N         14.7500   45.2770   37.5490 N.3    96  ILE96      -0.1231
    126  CA        14.3110   44.7240   38.8380 C.3    96  ILE96       0.1692
    127  C         12.8010   44.5640   38.8850 C.2    96  ILE96       0.2592
    128  O         12.3180   43.5070   39.2830 O.2    96  ILE96      -0.2718
    129  CB        14.8470   45.5540   40.0350 C.3    96  ILE96       0.0266
    130  CG1       16.3800   45.4730   40.1070 C.3    96  ILE96       0.0019
    131  CG2       14.2080   45.1200   41.3770 C.3    96  ILE96       0.0020
    132  CD1       17.0100   46.5920   40.8830 C.3    96  ILE96       0.0001
    133  N         12.0580   45.5970   38.4370 N.am   97  PHE97      -0.1976
    134  CA        10.5940   45.6140   38.4430 C.3    97  PHE97       0.1639
    135  C         10.0040   44.4220   37.6780 C.2    97  PHE97       0.2290
    136  O          8.9680   43.8880   38.0650 O.2    97  PHE97      -0.2864
    137  CB        10.0730   46.9440   37.8490 C.3    97  PHE97       0.0560
    138  CG         8.5700   47.1020   37.9000 C.ar   97  PHE97      -0.0200
    139  CD1        7.9430   47.5590   39.0510 C.ar   97  PHE97      -0.0042
    140  CD2        7.7790   46.7510   36.8120 C.ar   97  PHE97      -0.0042
    141  CE1        6.5550   47.6880   39.0990 C.ar   97  PHE97      -0.0003
    142  CE2        6.3900   46.8930   36.8590 C.ar   97  PHE97      -0.0003
    143  CZ         5.7870   47.3700   37.9960 C.ar   97  PHE97      -0.0000
    144  N          4.5590   44.8010   44.8050 N.3   109  LEU109     -0.1245
    145  CA         5.7450   45.6030   44.5010 C.3   109  LEU109      0.1561
    146  C          5.3420   46.8970   43.7860 C.2   109  LEU109      0.2260
    147  O          5.7900   47.9760   44.1720 O.2   109  LEU109     -0.2867
    148  CB         6.7660   44.8020   43.6630 C.3   109  LEU109      0.0270
    149  CG         8.0510   45.5390   43.2760 C.3   109  LEU109      0.0019
    150  CD1        8.9080   45.8240   44.4960 C.3   109  LEU109      0.0001
    151  CD2        8.8470   44.7470   42.2480 C.3   109  LEU109      0.0001
    152  N          3.5290   49.2080   46.2100 N.3   112  ARG112     -0.1231
    153  CA         4.4980   49.8070   47.1320 C.3   112  ARG112      0.1694
    154  C          5.2550   50.9710   46.4630 C.2   112  ARG112      0.2591
    155  O          5.4410   52.0100   47.0890 O.2   112  ARG112     -0.2718
    156  CB         5.4820   48.7510   47.6700 C.3   112  ARG112      0.0321
    157  CG         4.8790   47.7700   48.6780 C.3   112  ARG112      0.0489
    158  CD         4.9500   48.2680   50.1060 C.3   112  ARG112      0.2205
    159  NE         4.0080   47.5630   50.9810 N.pl3 112  ARG112     -0.0865
    160  CZ         4.2870   46.4790   51.6870 C.cat 112  ARG112      0.5346
    161  NH1        5.5130   45.9780   51.6910 N.pl3 112  ARG112      0.1354
    162  NH2        3.3540   45.9090   52.4330 N.pl3 112  ARG112      0.1354
    163  N          5.6470   50.8150   45.1810 N.am  113  ILE113     -0.1980
    164  CA         6.3450   51.8770   44.4400 C.3   113  ILE113      0.1595
    165  C          5.3900   53.0510   44.1750 C.2   113  ILE113      0.2287
    166  O          5.8040   54.2070   44.2970 O.2   113  ILE113     -0.2864
    167  CB         7.0520   51.3540   43.1540 C.3   113  ILE113      0.0276
    168  CG1        8.1130   50.2990   43.5000 C.3   113  ILE113      0.0022
    169  CG2        7.6790   52.4970   42.3370 C.3   113  ILE113      0.0022
    170  CD1        8.3750   49.2940   42.3810 C.3   113  ILE113      0.0001
    171  N          5.2320   55.2090   47.2200 N.3   116  SER116     -0.1217
    172  CA         6.5480   55.4710   47.7890 C.3   116  SER116      0.1889
    173  C          6.8120   56.9190   48.2350 C.2   116  SER116      0.2288
    174  O          7.6020   57.1300   49.1520 O.2   116  SER116     -0.2866
    175  CB         7.6450   55.0200   46.8380 C.3   116  SER116      0.2089
    176  OG         7.5900   55.7590   45.6320 O.3   116  SER116     -0.2183
    177  N          6.8450   59.5310   45.5500 N.3   118  ILE118     -0.1245
    178  CA         6.9780   60.2270   44.2650 C.3   118  ILE118      0.1561
    179  C          5.6240   60.8600   43.8830 C.2   118  ILE118      0.2260
    180  O          4.5660   60.2980   44.1730 O.2   118  ILE118     -0.2867
    181  CB         7.5660   59.2930   43.1550 C.3   118  ILE118      0.0252
    182  CG1        7.5820   59.9560   41.7600 C.3   118  ILE118      0.0019
    183  CG2        6.8640   57.9440   43.1010 C.3   118  ILE118      0.0019
    184  CD1        8.9160   60.0080   41.0950 C.3   118  ILE118      0.0001
    185  N          6.6950   56.5520   34.5310 N.3   126  MET126     -0.1245
    186  CA         7.6210   55.5730   35.1040 C.3   126  MET126      0.1570
    187  C          7.0920   54.1640   34.8910 C.2   126  MET126      0.2261
    188  O          7.8060   53.3260   34.3390 O.2   126  MET126     -0.2867
    189  CB         7.8470   55.8460   36.5890 C.3   126  MET126      0.0387
    190  CG         8.9040   56.8920   36.8470 C.3   126  MET126      0.0595
    191  SD         9.0900   57.2040   38.6150 S.3   126  MET126     -0.1393
    192  CE         9.8860   55.6600   39.1290 C.3   126  MET126      0.0692
    193  N          8.3460   51.0110   32.6500 N.3   130  TYR130     -0.1241
    194  CA         8.6080   49.7010   33.2560 C.3   130  TYR130      0.1605
    195  C          7.8640   48.5730   32.5420 C.2   130  TYR130      0.2264
    196  O          8.4720   47.5410   32.2500 O.2   130  TYR130     -0.2867
    197  CB         8.2780   49.6760   34.7620 C.3   130  TYR130      0.0534
    198  CG         9.1950   50.4780   35.6630 C.ar  130  TYR130     -0.0201
    199  CD1       10.3150   51.1360   35.1590 C.ar  130  TYR130     -0.0009
    200  CD2        8.9340   50.5910   37.0270 C.ar  130  TYR130     -0.0009
    201  CE1       11.1520   51.8840   35.9840 C.ar  130  TYR130      0.0417
    202  CE2        9.7490   51.3510   37.8600 C.ar  130  TYR130      0.0417
    203  CZ        10.8670   51.9790   37.3390 C.ar  130  TYR130      0.1957
    204  OH        11.6520   52.7390   38.1670 O.3   130  TYR130     -0.2866
    205  N         14.9240   64.7230   36.0760 N.3   208  HIS208     -0.1241
    206  CA        15.3120   64.0200   37.3040 C.3   208  HIS208      0.1621
    207  C         15.2570   64.9110   38.5700 C.2   208  HIS208      0.2264
    208  O         14.6910   64.4650   39.5700 O.2   208  HIS208     -0.2867
    209  CB        16.6620   63.2800   37.1620 C.3   208  HIS208      0.0745
    210  CG        17.8940   64.1240   37.2970 C.ar  208  HIS208      0.0817
    211  ND1       18.5530   64.6160   36.1880 N.ar  208  HIS208     -0.2268
    212  CD2       18.5710   64.5000   38.4110 C.ar  208  HIS208      0.1154
    213  CE1       19.5860   65.2970   36.6590 C.ar  208  HIS208      0.1986
    214  NE2       19.6340   65.2540   37.9920 N.ar  208  HIS208     -0.2212
    215  N         11.6260   65.5750   39.5870 N.3   211  MET211     -0.1230
    216  CA        11.0850   64.3050   40.0750 C.3   211  MET211      0.1702
    217  C         11.5050   64.0900   41.5260 C.2   211  MET211      0.2592
    218  O         10.6650   63.7600   42.3580 O.2   211  MET211     -0.2718
    219  CB        11.5630   63.1380   39.2010 C.3   211  MET211      0.0401
    220  CG        11.0160   63.1840   37.7910 C.3   211  MET211      0.0596
    221  SD        11.5770   61.8500   36.7130 S.3   211  MET211     -0.1393
    222  CE        10.8600   60.4190   37.5810 C.3   211  MET211      0.0692
    223  N         12.7860   64.3210   41.8290 N.am  212  LEU212     -0.1980
    224  CA        13.3360   64.1640   43.1790 C.3   212  LEU212      0.1596
    225  C         12.7790   65.1980   44.1410 C.2   212  LEU212      0.2287
    226  O         12.3500   64.8320   45.2310 O.2   212  LEU212     -0.2864
    227  CB        14.8710   64.2090   43.1740 C.3   212  LEU212      0.0297
    228  CG        15.5680   63.0340   42.4850 C.3   212  LEU212      0.0022
    229  CD1       16.9470   63.4220   42.0200 C.3   212  LEU212      0.0001
    230  CD2       15.5940   61.7770   43.3690 C.3   212  LEU212      0.0001
    231  N          9.1210   64.7750   45.5970 N.3   215  TRP215     -0.1241
    232  CA         8.8930   63.6930   46.5630 C.3   215  TRP215      0.1605
    233  C          8.2160   64.2980   47.7940 C.2   215  TRP215      0.2264
    234  O          8.6540   65.3490   48.2730 O.2   215  TRP215     -0.2867
    235  CB        10.2230   63.0480   46.9640 C.3   215  TRP215      0.0550
    236  CG        10.1170   61.6360   47.4560 C.ar  215  TRP215      0.0003
    237  CD1        9.6980   61.2230   48.6850 C.ar  215  TRP215      0.0946
    238  CD2       10.5080   60.4560   46.7490 C.ar  215  TRP215      0.0152
    239  NE1        9.8000   59.8560   48.7860 N.ar  215  TRP215     -0.2442
    240  CE2       10.2860   59.3570   47.6090 C.ar  215  TRP215      0.0810
    241  CE3       11.0060   60.2160   45.4580 C.ar  215  TRP215      0.0012
    242  CZ2       10.5510   58.0380   47.2230 C.ar  215  TRP215      0.0191
    243  CZ3       11.2720   58.9110   45.0790 C.ar  215  TRP215      0.0001
    244  CH2       11.0600   57.8400   45.9590 C.ar  215  TRP215      0.0015
    245  N         23.9890   63.9640   40.2640 N.3   230  TRP230     -0.1241
    246  CA        22.6500   64.4900   39.9800 C.3   230  TRP230      0.1605
    247  C         22.5920   66.0190   39.9600 C.2   230  TRP230      0.2264
    248  O         21.7520   66.5470   39.2240 O.2   230  TRP230     -0.2867
    249  CB        21.6280   63.9500   40.9980 C.3   230  TRP230      0.0550
    250  CG        21.3420   62.4770   40.9120 C.ar  230  TRP230      0.0003
    251  CD1       21.6970   61.6210   39.9110 C.ar  230  TRP230      0.0946
    252  CD2       20.5570   61.7130   41.8310 C.ar  230  TRP230      0.0152
    253  NE1       21.2160   60.3620   40.1730 N.ar  230  TRP230     -0.2442
    254  CE2       20.4900   60.3950   41.3330 C.ar  230  TRP230      0.0810
    255  CE3       19.9370   62.0030   43.0510 C.ar  230  TRP230      0.0012
    256  CZ2       19.8270   59.3700   42.0140 C.ar  230  TRP230      0.0191
    257  CZ3       19.2520   60.9950   43.7070 C.ar  230  TRP230      0.0001
    258  CH2       19.2020   59.6970   43.1900 C.ar  230  TRP230      0.0015
@<TRIPOS>BOND
     1   196   195    2
     2   195   194    1
     3   193   194    1
     4   194   197    1
     5   188   187    2
     6   185   186    1
     7   197   198    1
     8   101    98    1
     9   101   102    1
    10    99   100    2
    11    99    98    1
    12   187   186    1
    13    84    85    2
    14    84    83    1
    15   186   189    1
    16   199   198   ar
    17   199   201   ar
    18   108   109    1
    19    98    97    1
    20   198   200   ar
    21   102   104   ar
    22   102   103   ar
    23    82    83    1
    24    86    87    1
    25    86    83    1
    26    86    88    1
    27   104   106   ar
    28   201   203   ar
    29    97    91   am
    30   205   206    1
    31    89    90    1
    32   211   213   ar
    33   211   210   ar
    34   103   105   ar
    35   109   110    1
    36   109   112    1
    37   189   190    1
    38   213   214   ar
    39   221   222    1
    40   221   220    1
    41   106   107   ar
    42   140   142   ar
    43   140   138   ar
    44   190   191    1
    45   142   143   ar
    46    91    90    1
    47    91    92    2
    48   200   202   ar
    49   105   107   ar
    50   209   210    1
    51   209   206    1
    52   110   111    2
    53   110   119   am
    54   112   113    1
    55   210   212   ar
    56   206   207    1
    57    90    93    1
    58   203   202   ar
    59   203   204    1
    60   121   122    2
    61   121   120    1
    62   119   120    1
    63   125   126    1
    64   117   116    1
    65   135   136    2
    66   135   134    1
    67   220   219    1
    68   114   113    1
    69   114   115    1
    70   137   138    1
    71   137   134    1
    72   138   139   ar
    73   214   212   ar
    74   143   141   ar
    75    81    80   ar
    76    81    79   ar
    77    80    78   ar
    78   120   123    1
    79    93    94    1
    80   133   134    1
    81   133   127   am
    82   123   124    1
    83   207   208    2
    84   191   192    1
    85   116   115    2
    86   116   118    1
    87   126   127    1
    88   126   129    1
    89   127   128    2
    90   139   141   ar
    91    96    95    1
    92   219   216    1
    93   248   247    2
    94    79    77   ar
    95    78    77   ar
    96   215   216    1
    97    94    95    1
    98   251   253   ar
    99   251   250   ar
   100   247   246    1
   101   246   245    1
   102   246   249    1
   103   129   130    1
   104   129   131    1
   105   216   217    1
   106   130   132    1
   107   253   254   ar
   108    77    76    1
   109    75    74    2
   110   250   249    1
   111   250   252   ar
   112   184   182    1
   113   254   252   ar
   114   254   256   ar
   115    74    73    1
   116   217   223   am
   117   217   218    2
   118    76    73    1
   119   182   181    1
   120   223   224    1
   121   252   255   ar
   122   256   258   ar
   123   229   228    1
   124   151   149    1
   125    73    72    1
   126   169   167    1
   127   170   168    1
   128   228   227    1
   129   228   230    1
   130     4     3    2
   131   255   257   ar
   132   183   181    1
   133   167   168    1
   134   167   164    1
   135   181   178    1
   136   227   224    1
   137   224   225    1
   138   258   257   ar
   139     1     2    1
   140   149   148    1
   141   149   150    1
   142    70    69    2
   143   148   145    1
   144     3     2    1
   145   146   147    2
   146   146   145    1
   147    26    24    1
   148   179   180    2
   149   179   178    1
   150    71    68    1
   151   225   226    2
   152   165   166    2
   153   165   164    1
   154   178   177    1
   155    19    17    1
   156    68    69    1
   157    68    67    1
   158     2     5    1
   159    57    56    1
   160   164   163    1
   161   145   144    1
   162    62    61    2
   163    58    56    1
   164   243   241   ar
   165   243   244   ar
   166     5     6    1
   167    25    24    1
   168    24    21    1
   169   163   154   am
   170    18    16    1
   171    67    61   am
   172    56    55    1
   173   241   238   ar
   174    16    17    1
   175    16    13    1
   176   231   232    1
   177   176   175    1
   178    61    60    1
   179   244   242   ar
   180   152   153    1
   181    20    21    1
   182    20    14   am
   183    21    22    1
   184     6     7    1
   185    63    60    1
   186    63    64    1
   187   154   155    2
   188   154   153    1
   189    34    32    1
   190    54    53    2
   191   232   235    1
   192   232   233    1
   193   238   236   ar
   194   238   240   ar
   195    55    52    1
   196    60    59    1
   197   175   172    1
   198    13    12    1
   199    13    14    1
   200   235   236    1
   201    14    15    2
   202   153   156    1
   203     7     8    1
   204   171   172    1
   205   242   240   ar
   206    53    52    1
   207    64    65    1
   208    65    66    1
   209    52    51    1
   210   236   237   ar
   211   240   239   ar
   212   156   157    1
   213    22    23    2
   214    33    31    1
   215   172   173    1
   216   233   234    2
   217     8     9    2
   218    32    31    1
   219    31    28    1
   220   173   174    2
   221    10     9    1
   222     9    11    1
   223   157   158    1
   224   237   239   ar
   225    51    45   am
   226    46    45    2
   227    45    44    1
   228    28    29    1
   229    28    27    1
   230    38    37    2
   231    29    30    2
   232    49    47    1
   233   158   159    1
   234    39    40    1
   235    39    36    1
   236    37    36    1
   237    42    40   am
   238    40    41    2
   239    44    47    1
   240    44    43    1
   241   159   160    2
   242    47    48    1
   243    36    35    1
   244   160   161    1
   245   160   162    1
   246    48    50    1
