@<TRIPOS>MOLECULE
tmp/5q0pC00.pdb
 257 244 0 0 0
SMALL
GASTEIGER

@<TRIPOS>ATOM
      1  N         26.6490   45.3960   41.3480 N.3    21  GLN21      -0.1231
      2  CA        25.5120   46.1820   41.8320 C.3    21  GLN21       0.1698
      3  C         24.7290   45.4590   42.9110 C.2    21  GLN21       0.2592
      4  O         24.8310   44.2350   43.0320 O.2    21  GLN21      -0.2718
      5  CB        24.5460   46.4310   40.6700 C.3    21  GLN21       0.0381
      6  CG        25.0350   47.4000   39.6320 C.3    21  GLN21       0.0905
      7  CD        23.9960   47.6260   38.5780 C.2    21  GLN21       0.2608
      8  OE1       23.6220   48.7710   38.2930 O.2    21  GLN21      -0.2717
      9  NE2       23.5150   46.5390   37.9710 N.am   21  GLN21      -0.0878
     10  N         23.8700   46.2120   43.6410 N.am   22  ARG22      -0.1980
     11  CA        22.9600   45.6250   44.6160 C.3    22  ARG22       0.1597
     12  C         21.9550   44.7890   43.8230 C.2    22  ARG22       0.2287
     13  O         21.5490   45.1820   42.7200 O.2    22  ARG22      -0.2864
     14  CB        22.2100   46.7050   45.4060 C.3    22  ARG22       0.0334
     15  CG        23.0140   47.2880   46.5320 C.3    22  ARG22       0.0492
     16  CD        22.2470   48.4350   47.1740 C.3    22  ARG22       0.2205
     17  NE        22.9220   48.9260   48.3740 N.pl3  22  ARG22      -0.0865
     18  CZ        22.6180   50.0520   49.0110 C.cat  22  ARG22       0.5346
     19  NH1       21.6360   50.8300   48.5700 N.pl3  22  ARG22       0.1354
     20  NH2       23.2970   50.4120   50.0900 N.pl3  22  ARG22       0.1354
     21  N         16.6870   45.5970   47.0490 N.3    27  ILE27      -0.1231
     22  CA        15.8920   46.8270   46.9570 C.3    27  ILE27       0.1692
     23  C         14.3930   46.5620   47.1640 C.2    27  ILE27       0.2592
     24  O         13.7670   47.2510   47.9660 O.2    27  ILE27      -0.2718
     25  CB        16.1920   47.5880   45.6220 C.3    27  ILE27       0.0266
     26  CG1       17.7180   47.8860   45.4430 C.3    27  ILE27       0.0019
     27  CG2       15.3260   48.8650   45.4430 C.3    27  ILE27       0.0020
     28  CD1       18.5230   48.7360   46.5010 C.3    27  ILE27       0.0001
     29  N         13.8230   45.5880   46.4330 N.am   28  THR28      -0.1953
     30  CA        12.3810   45.2900   46.5350 C.3    28  THR28       0.1897
     31  C         11.9920   44.7070   47.8910 C.2    28  THR28       0.2313
     32  O         10.9030   45.0150   48.3730 O.2    28  THR28      -0.2863
     33  CB        11.8860   44.4260   45.3650 C.3    28  THR28       0.1794
     34  OG1       12.5760   43.1820   45.3470 O.3    28  THR28      -0.2208
     35  CG2       12.0350   45.1210   44.0090 C.3    28  THR28       0.0378
     36  N         11.4550   47.6600   50.3880 N.3    31  ILE31      -0.1245
     37  CA        10.2110   48.3890   50.1230 C.3    31  ILE31       0.1561
     38  C          8.9630   47.5490   50.4450 C.2    31  ILE31       0.2260
     39  O          7.9420   48.1050   50.8510 O.2    31  ILE31      -0.2867
     40  CB        10.2150   48.9350   48.6690 C.3    31  ILE31       0.0252
     41  CG1       11.4600   49.8290   48.4240 C.3    31  ILE31       0.0019
     42  CG2        8.9080   49.7110   48.3520 C.3    31  ILE31       0.0019
     43  CD1       11.7770   50.1170   46.9620 C.3    31  ILE31       0.0001
     44  N         11.1540   57.6070   53.4390 N.3    41  ASN41      -0.1240
     45  CA        11.3640   57.2290   52.0290 C.3    41  ASN41       0.1653
     46  C         12.2950   58.1640   51.2780 C.2    41  ASN41       0.2266
     47  O         13.0060   57.7050   50.3760 O.2    41  ASN41      -0.2867
     48  CB        10.0460   57.0900   51.2720 C.3    41  ASN41       0.1155
     49  CG         9.3390   55.7800   51.5060 C.2    41  ASN41       0.2627
     50  OD1        9.9510   54.7070   51.5510 O.2    41  ASN41      -0.2716
     51  ND2        8.0250   55.8410   51.6700 N.am   41  ASN41      -0.0877
     52  N         15.6790   57.0070   52.3050 N.3    44  ILE44      -0.1231
     53  CA        15.9530   55.7050   51.6690 C.3    44  ILE44       0.1692
     54  C         16.3700   55.9960   50.2110 C.2    44  ILE44       0.2591
     55  O         17.3680   55.4560   49.7360 O.2    44  ILE44      -0.2718
     56  CB        14.7190   54.7550   51.7570 C.3    44  ILE44       0.0266
     57  CG1       14.5130   54.2680   53.2140 C.3    44  ILE44       0.0019
     58  CG2       14.8650   53.5410   50.8100 C.3    44  ILE44       0.0020
     59  CD1       13.1300   53.8150   53.5230 C.3    44  ILE44       0.0001
     60  N         15.6250   56.8830   49.5290 N.am   45  LEU45      -0.1980
     61  CA        15.9490   57.2870   48.1630 C.3    45  LEU45       0.1596
     62  C         17.3600   57.8900   48.0630 C.2    45  LEU45       0.2287
     63  O         18.1250   57.4390   47.2210 O.2    45  LEU45      -0.2864
     64  CB        14.9020   58.2820   47.6210 C.3    45  LEU45       0.0297
     65  CG        15.0450   58.8200   46.1740 C.3    45  LEU45       0.0022
     66  CD1       15.7180   60.1760   46.0540 C.3    45  LEU45       0.0001
     67  CD2       15.3030   57.7640   45.1170 C.3    45  LEU45       0.0001
     68  N         20.0380   55.1510   48.5690 N.3    48  MET48      -0.1245
     69  CA        20.0510   54.2830   47.3930 C.3    48  MET48       0.1570
     70  C         20.6590   54.9780   46.1750 C.2    48  MET48       0.2261
     71  O         21.4200   54.3520   45.4400 O.2    48  MET48      -0.2867
     72  CB        18.6390   53.7660   47.0940 C.3    48  MET48       0.0387
     73  CG        18.2440   52.6020   47.9530 C.3    48  MET48       0.0595
     74  SD        16.5090   52.1570   47.7370 S.3    48  MET48      -0.1393
     75  CE        16.3960   50.7840   48.9240 C.3    48  MET48       0.0692
     76  N         24.5080   55.2670   46.6760 N.3    51  ASN51      -0.1225
     77  CA        25.1490   53.9950   46.3780 C.3    51  ASN51       0.1785
     78  C         25.1320   53.7510   44.8750 C.2    51  ASN51       0.2597
     79  O         26.1580   53.3570   44.3210 O.2    51  ASN51      -0.2718
     80  CB        24.4850   52.8400   47.1160 C.3    51  ASN51       0.1169
     81  CG        25.0380   51.4950   46.6810 C.2    51  ASN51       0.2627
     82  OD1       24.4270   50.7700   45.8910 O.2    51  ASN51      -0.2716
     83  ND2       26.2580   51.1920   47.0700 N.am   51  ASN51      -0.0877
     84  N         23.9980   54.0360   44.2130 N.am   52  HIS52      -0.1975
     85  CA        23.9010   53.8690   42.7580 C.3    52  HIS52       0.1656
     86  C         24.9980   54.6480   42.0140 C.2    52  HIS52       0.2291
     87  O         25.6320   54.0690   41.1350 O.2    52  HIS52      -0.2864
     88  CB        22.5020   54.2360   42.2120 C.3    52  HIS52       0.0771
     89  CG        22.4230   54.0790   40.7240 C.ar   52  HIS52       0.0820
     90  ND1       22.8130   55.0960   39.8750 N.ar   52  HIS52      -0.2267
     91  CD2       22.1080   52.9900   39.9900 C.ar   52  HIS52       0.1154
     92  CE1       22.7230   54.5930   38.6550 C.ar   52  HIS52       0.1986
     93  NE2       22.2870   53.3350   38.6750 N.ar   52  HIS52      -0.2212
     94  N         20.1670   55.5250   36.6400 N.3    86  MET86      -0.1230
     95  CA        19.3760   55.1340   37.8030 C.3    86  MET86       0.1702
     96  C         17.9550   54.7510   37.3670 C.2    86  MET86       0.2592
     97  O         17.4210   53.7580   37.8480 O.2    86  MET86      -0.2718
     98  CB        19.3620   56.2460   38.8550 C.3    86  MET86       0.0401
     99  CG        18.7990   55.7950   40.1810 C.3    86  MET86       0.0596
    100  SD        18.3540   57.1390   41.3060 S.3    86  MET86      -0.1393
    101  CE        17.8560   58.5010   40.1770 C.3    86  MET86       0.0692
    102  N         17.3610   55.5020   36.4290 N.am   87  PHE87      -0.1976
    103  CA        16.0190   55.1720   35.9440 C.3    87  PHE87       0.1639
    104  C         15.9830   53.9080   35.1240 C.2    87  PHE87       0.2290
    105  O         15.0240   53.1560   35.2310 O.2    87  PHE87      -0.2864
    106  CB        15.3590   56.3400   35.2090 C.3    87  PHE87       0.0560
    107  CG        14.8360   57.3680   36.1850 C.ar   87  PHE87      -0.0200
    108  CD1       13.7980   57.0600   37.0590 C.ar   87  PHE87      -0.0042
    109  CD2       15.3780   58.6420   36.2350 C.ar   87  PHE87      -0.0042
    110  CE1       13.3270   58.0110   37.9720 C.ar   87  PHE87      -0.0003
    111  CE2       14.8920   59.5980   37.1430 C.ar   87  PHE87      -0.0003
    112  CZ        13.8720   59.2770   38.0010 C.ar   87  PHE87      -0.0000
    113  N         18.0920   51.3240   35.6240 N.3    89  ARG89      -0.1231
    114  CA        18.2290   50.2700   36.6360 C.3    89  ARG89       0.1694
    115  C         16.9040   50.0800   37.3960 C.2    89  ARG89       0.2592
    116  O         16.5560   48.9420   37.7180 O.2    89  ARG89      -0.2718
    117  CB        19.3740   50.5480   37.6170 C.3    89  ARG89       0.0321
    118  CG        19.5780   49.3990   38.6180 C.3    89  ARG89       0.0489
    119  CD        20.4760   48.3180   38.0710 C.3    89  ARG89       0.2205
    120  NE        20.2650   46.9380   38.5540 N.pl3  89  ARG89      -0.0865
    121  CZ        20.6170   46.4510   39.7430 C.cat  89  ARG89       0.5346
    122  NH1       21.0040   47.2690   40.7190 N.pl3  89  ARG89       0.1354
    123  NH2       20.4870   45.1560   39.9990 N.pl3  89  ARG89       0.1354
    124  N         16.1700   51.1820   37.6620 N.am   90  SER90      -0.1952
    125  CA        14.8620   51.1510   38.3380 C.3    90  SER90       0.1924
    126  C         13.8720   50.3130   37.5040 C.2    90  SER90       0.2314
    127  O         13.1760   49.4630   38.0650 O.2    90  SER90      -0.2863
    128  CB        14.3330   52.5650   38.5600 C.3    90  SER90       0.2116
    129  OG        15.1410   53.3060   39.4620 O.3    90  SER90      -0.2180
    130  N         14.8890   46.6300   37.8960 N.3    93  ILE93      -0.1231
    131  CA        14.4820   46.1550   39.2200 C.3    93  ILE93       0.1692
    132  C         12.9800   45.8770   39.2330 C.2    93  ILE93       0.2592
    133  O         12.5720   44.7950   39.6520 O.2    93  ILE93      -0.2718
    134  CB        14.9250   47.1490   40.3440 C.3    93  ILE93       0.0266
    135  CG1       16.4590   47.1970   40.4660 C.3    93  ILE93       0.0019
    136  CG2       14.2740   46.8170   41.7090 C.3    93  ILE93       0.0020
    137  CD1       16.9920   48.4680   41.1370 C.3    93  ILE93       0.0001
    138  N         12.1660   46.8310   38.7320 N.am   94  PHE94      -0.1976
    139  CA        10.7100   46.6930   38.7000 C.3    94  PHE94       0.1639
    140  C         10.2230   45.5000   37.8820 C.2    94  PHE94       0.2290
    141  O          9.2270   44.8830   38.2460 O.2    94  PHE94      -0.2864
    142  CB        10.0490   47.9850   38.1850 C.3    94  PHE94       0.0560
    143  CG         8.5480   47.9730   38.3650 C.ar   94  PHE94      -0.0200
    144  CD1        7.9840   48.0610   39.6340 C.ar   94  PHE94      -0.0042
    145  CD2        7.7030   47.8380   37.2730 C.ar   94  PHE94      -0.0042
    146  CE1        6.6010   48.0360   39.8010 C.ar   94  PHE94      -0.0003
    147  CE2        6.3220   47.8130   37.4450 C.ar   94  PHE94      -0.0003
    148  CZ         5.7790   47.9300   38.7020 C.ar   94  PHE94      -0.0000
    149  N          4.4820   46.6130   45.5840 N.3   106  LEU106     -0.1245
    150  CA         5.6940   47.3980   45.3580 C.3   106  LEU106      0.1561
    151  C          5.3460   48.7150   44.6630 C.2   106  LEU106      0.2260
    152  O          5.7730   49.7760   45.1240 O.2   106  LEU106     -0.2867
    153  CB         6.7130   46.5850   44.5190 C.3   106  LEU106      0.0270
    154  CG         8.0210   47.2900   44.1390 C.3   106  LEU106      0.0019
    155  CD1        8.9440   47.3890   45.3140 C.3   106  LEU106      0.0001
    156  CD2        8.7260   46.5780   42.9960 C.3   106  LEU106      0.0001
    157  N          3.3710   51.0590   47.0420 N.3   109  ARG109     -0.1231
    158  CA         4.2680   51.6450   48.0490 C.3   109  ARG109      0.1694
    159  C          5.0580   52.8280   47.4430 C.2   109  ARG109      0.2591
    160  O          5.0800   53.9100   48.0320 O.2   109  ARG109     -0.2718
    161  CB         5.2380   50.5800   48.6230 C.3   109  ARG109      0.0321
    162  CG         4.5760   49.5190   49.5060 C.3   109  ARG109      0.0489
    163  CD         4.7820   49.8000   50.9620 C.3   109  ARG109      0.2205
    164  NE         3.8660   49.0100   51.7900 N.pl3 109  ARG109     -0.0865
    165  CZ         4.1750   47.8560   52.3800 C.cat 109  ARG109      0.5346
    166  NH1        5.3930   47.3380   52.2510 N.pl3 109  ARG109      0.1354
    167  NH2        3.2740   47.2190   53.1100 N.pl3 109  ARG109      0.1354
    168  N          5.6490   52.6280   46.2490 N.am  110  ILE110     -0.1980
    169  CA         6.4190   53.6510   45.5220 C.3   110  ILE110      0.1595
    170  C          5.5440   54.8480   45.1510 C.2   110  ILE110      0.2287
    171  O          5.9920   55.9840   45.2780 O.2   110  ILE110     -0.2864
    172  CB         7.1690   53.0730   44.3040 C.3   110  ILE110      0.0276
    173  CG1        8.1950   52.0060   44.7270 C.3   110  ILE110      0.0022
    174  CG2        7.8780   54.1830   43.5010 C.3   110  ILE110      0.0022
    175  CD1        8.6130   50.9890   43.5710 C.3   110  ILE110      0.0001
    176  N          5.2270   56.9930   48.1820 N.3   113  SER113     -0.1217
    177  CA         6.5020   57.2720   48.8370 C.3   113  SER113      0.1889
    178  C          6.7560   58.7430   49.1840 C.2   113  SER113      0.2288
    179  O          7.6390   59.0220   49.9840 O.2   113  SER113     -0.2866
    180  CB         7.6600   56.7290   48.0110 C.3   113  SER113      0.2089
    181  OG         7.7540   57.3720   46.7520 O.3   113  SER113     -0.2183
    182  N          6.7520   61.0870   46.3880 N.3   115  ILE115     -0.1245
    183  CA         6.9650   61.5960   45.0280 C.3   115  ILE115      0.1561
    184  C          5.6170   62.1280   44.4940 C.2   115  ILE115      0.2260
    185  O          4.5740   61.5420   44.8020 O.2   115  ILE115     -0.2867
    186  CB         7.5380   60.4560   44.1110 C.3   115  ILE115      0.0252
    187  CG1        7.8770   60.9780   42.6890 C.3   115  ILE115      0.0019
    188  CG2        6.6320   59.1960   44.0750 C.3   115  ILE115      0.0019
    189  CD1        8.9290   60.1670   41.9130 C.3   115  ILE115      0.0001
    190  N          5.8140   60.1620   39.0710 N.3   120  ILE120     -0.1245
    191  CA         5.7940   58.7170   39.2870 C.3   120  ILE120      0.1561
    192  C          4.9410   57.9760   38.2480 C.2   120  ILE120      0.2260
    193  O          5.2900   56.8550   37.9040 O.2   120  ILE120     -0.2867
    194  CB         5.4210   58.3430   40.7540 C.3   120  ILE120      0.0252
    195  CG1        5.8790   56.9310   41.1150 C.3   120  ILE120      0.0019
    196  CG2        3.9340   58.5380   41.0770 C.3   120  ILE120      0.0019
    197  CD1        7.3900   56.6320   40.9320 C.3   120  ILE120      0.0001
    198  N          6.9450   57.5140   35.0840 N.3   123  MET123     -0.1245
    199  CA         8.0030   56.5860   35.4580 C.3   123  MET123      0.1570
    200  C          7.5110   55.1380   35.3810 C.2   123  MET123      0.2261
    201  O          8.1630   54.3170   34.7540 O.2   123  MET123     -0.2867
    202  CB         8.5690   56.9140   36.8470 C.3   123  MET123      0.0387
    203  CG         9.5340   58.0890   36.8380 C.3   123  MET123      0.0595
    204  SD         9.8100   58.7950   38.4890 S.3   123  MET123     -0.1393
    205  CE        10.4010   57.3990   39.3100 C.3   123  MET123      0.0692
    206  N          8.5950   51.9920   32.9380 N.3   127  TYR127     -0.1241
    207  CA         8.9950   50.6750   33.4710 C.3   127  TYR127      0.1605
    208  C          8.1700   49.5560   32.8360 C.2   127  TYR127      0.2264
    209  O          8.7340   48.5100   32.4960 O.2   127  TYR127     -0.2867
    210  CB         8.8290   50.5630   35.0140 C.3   127  TYR127      0.0534
    211  CG         9.5470   51.5730   35.8890 C.ar  127  TYR127     -0.0201
    212  CD1       10.6200   52.3200   35.4010 C.ar  127  TYR127     -0.0009
    213  CD2        9.1840   51.7490   37.2220 C.ar  127  TYR127     -0.0009
    214  CE1       11.2900   53.2400   36.2080 C.ar  127  TYR127      0.0417
    215  CE2        9.8360   52.6790   38.0330 C.ar  127  TYR127      0.0417
    216  CZ        10.9010   53.4080   37.5270 C.ar  127  TYR127      0.1957
    217  OH        11.5360   54.3370   38.3120 O.3   127  TYR127     -0.2866
    218  N         14.1440   66.3370   36.6680 N.3   205  HIS205     -0.1241
    219  CA        14.6750   65.5660   37.7910 C.3   205  HIS205      0.1621
    220  C         14.7830   66.3830   39.0700 C.2   205  HIS205      0.2264
    221  O         14.3470   65.9030   40.1100 O.2   205  HIS205     -0.2867
    222  CB        16.0070   64.8910   37.4450 C.3   205  HIS205      0.0745
    223  CG        16.5300   64.0060   38.5360 C.ar  205  HIS205      0.0817
    224  ND1       15.9700   62.7700   38.7900 N.ar  205  HIS205     -0.2268
    225  CD2       17.5340   64.2180   39.4160 C.ar  205  HIS205      0.1154
    226  CE1       16.6510   62.2680   39.8090 C.ar  205  HIS205      0.1986
    227  NE2       17.6000   63.1030   40.2180 N.ar  205  HIS205     -0.2212
    228  N         11.3410   67.1970   40.6340 N.3   208  MET208     -0.1230
    229  CA        10.7630   65.9970   41.2280 C.3   208  MET208      0.1702
    230  C         11.3200   65.7330   42.6520 C.2   208  MET208      0.2592
    231  O         10.5220   65.4560   43.5470 O.2   208  MET208     -0.2718
    232  CB        10.9260   64.8120   40.2610 C.3   208  MET208      0.0401
    233  CG        10.4950   63.4810   40.8170 C.3   208  MET208      0.0596
    234  SD        11.7920   62.7500   41.8310 S.3   208  MET208     -0.1393
    235  CE        13.1600   62.7970   40.6820 C.3   208  MET208      0.0692
    236  N         12.6610   65.7940   42.8570 N.am  209  LEU209     -0.1980
    237  CA        13.2870   65.6300   44.1780 C.3   209  LEU209      0.1596
    238  C         12.8380   66.7340   45.1250 C.2   209  LEU209      0.2287
    239  O         12.5020   66.4460   46.2630 O.2   209  LEU209     -0.2864
    240  CB        14.8180   65.6680   44.1040 C.3   209  LEU209      0.0297
    241  CG        15.4910   64.5970   43.2790 C.3   209  LEU209      0.0022
    242  CD1       16.8940   65.0030   42.9890 C.3   209  LEU209      0.0001
    243  CD2       15.4400   63.2470   43.9820 C.3   209  LEU209      0.0001
    244  N          9.2500   66.4510   46.5640 N.3   212  TRP212     -0.1241
    245  CA         8.9900   65.2850   47.4230 C.3   212  TRP212      0.1605
    246  C          8.2790   65.8530   48.6580 C.2   212  TRP212      0.2264
    247  O          8.6870   66.9090   49.1600 O.2   212  TRP212     -0.2867
    248  CB        10.2890   64.5700   47.8240 C.3   212  TRP212      0.0550
    249  CG        10.0940   63.1310   48.2130 C.ar  212  TRP212      0.0003
    250  CD1        9.7100   62.6510   49.4320 C.ar  212  TRP212      0.0946
    251  CD2       10.2860   61.9870   47.3740 C.ar  212  TRP212      0.0152
    252  NE1        9.6490   61.2770   49.4050 N.ar  212  TRP212     -0.2442
    253  CE2        9.9980   60.8410   48.1550 C.ar  212  TRP212      0.0810
    254  CE3       10.6950   61.8150   46.0400 C.ar  212  TRP212      0.0012
    255  CZ2       10.1010   59.5400   47.6460 C.ar  212  TRP212      0.0191
    256  CZ3       10.8050   60.5230   45.5410 C.ar  212  TRP212      0.0001
    257  CH2       10.4900   59.4060   46.3360 C.ar  212  TRP212      0.0015
@<TRIPOS>BOND
     1   209   208    2
     2   208   207    1
     3   206   207    1
     4   207   210    1
     5   201   200    2
     6   210   211    1
     7   198   199    1
     8   104   105    2
     9   104   103    1
    10   106   103    1
    11   106   107    1
    12   200   199    1
    13   212   211   ar
    14   212   214   ar
    15   199   202    1
    16   113   114    1
    17   211   213   ar
    18   103   102    1
    19   107   109   ar
    20   107   108   ar
    21   214   216   ar
    22   109   111   ar
    23   102    96   am
    24   114   115    1
    25   114   117    1
    26    94    95    1
    27   218   219    1
    28   203   202    1
    29   203   204    1
    30   108   110   ar
    31   111   112   ar
    32   213   215   ar
    33   145   147   ar
    34   145   143   ar
    35    96    95    1
    36    96    97    2
    37   115   124   am
    38   115   116    2
    39   147   148   ar
    40   222   219    1
    41   222   223    1
    42   126   127    2
    43   126   125    1
    44   216   215   ar
    45   216   217    1
    46   117   118    1
    47   124   125    1
    48   219   220    1
    49    95    98    1
    50   140   141    2
    51   140   139    1
    52   130   131    1
    53   193   192    2
    54     9     7   am
    55   110   112   ar
    56   119   120    1
    57   119   118    1
    58   142   143    1
    59   142   139    1
    60   192   191    1
    61     8     7    2
    62   125   128    1
    63   143   144   ar
    64   204   205    1
    65   223   224   ar
    66   223   225   ar
    67   120   121    2
    68   128   129    1
    69     7     6    1
    70    92    93   ar
    71    92    90   ar
    72    93    91   ar
    73   139   138    1
    74   148   146   ar
    75   138   132   am
    76   224   226   ar
    77    98    99    1
    78   220   221    2
    79   190   191    1
    80   131   132    1
    81   131   134    1
    82   132   133    2
    83   191   194    1
    84   225   227   ar
    85     6     5    1
    86   144   146   ar
    87   121   123    1
    88   121   122    1
    89   226   227   ar
    90    90    89   ar
    91    91    89   ar
    92   101   100    1
    93    99   100    1
    94   232   233    1
    95   232   229    1
    96   134   135    1
    97   134   136    1
    98   135   137    1
    99   228   229    1
   100     5     2    1
   101   235   234    1
   102    89    88    1
   103   194   196    1
   104   194   195    1
   105   233   234    1
   106   197   195    1
   107    87    86    2
   108   229   230    1
   109     1     2    1
   110     2     3    1
   111   189   187    1
   112    86    85    1
   113    88    85    1
   114   230   236   am
   115   230   231    2
   116   187   186    1
   117    13    12    2
   118    85    84    1
   119   236   237    1
   120     3     4    2
   121     3    10   am
   122   242   241    1
   123   156   154    1
   124   241   243    1
   125   241   240    1
   126   174   172    1
   127   175   173    1
   128    10    11    1
   129    12    11    1
   130    35    33    1
   131   188   186    1
   132   240   237    1
   133   186   183    1
   134   154   153    1
   135   154   155    1
   136   237   238    1
   137    84    78   am
   138   172   173    1
   139   172   169    1
   140    79    78    2
   141   184   185    2
   142   184   183    1
   143   153   150    1
   144    11    14    1
   145   151   152    2
   146   151   150    1
   147    78    77    1
   148   183   182    1
   149    67    65    1
   150   238   239    2
   151   170   171    2
   152   170   169    1
   153    34    33    1
   154   150   149    1
   155    33    30    1
   156    14    15    1
   157    71    70    2
   158    27    25    1
   159    26    25    1
   160    26    28    1
   161   169   168    1
   162   256   254   ar
   163   256   257   ar
   164    25    22    1
   165    82    81    2
   166   254   251   ar
   167    66    65    1
   168    65    64    1
   169    70    69    1
   170   168   159   am
   171   257   255   ar
   172    77    76    1
   173    77    80    1
   174    29    30    1
   175    29    23   am
   176    15    16    1
   177    30    31    1
   178   244   245    1
   179    81    83   am
   180    81    80    1
   181   181   180    1
   182    22    21    1
   183    22    23    1
   184    43    41    1
   185   157   158    1
   186    72    69    1
   187    72    73    1
   188    23    24    2
   189    16    17    1
   190    63    62    2
   191   251   253   ar
   192   251   249   ar
   193    69    68    1
   194   245   248    1
   195   245   246    1
   196   159   160    2
   197   159   158    1
   198    64    61    1
   199   255   253   ar
   200    74    73    1
   201    74    75    1
   202   248   249    1
   203    31    32    2
   204   180   177    1
   205   158   161    1
   206    62    61    1
   207   253   252   ar
   208    61    60    1
   209   176   177    1
   210   249   250   ar
   211    42    40    1
   212    17    18    2
   213    41    40    1
   214    19    18    1
   215   161   162    1
   216   246   247    2
   217    40    37    1
   218   177   178    1
   219    18    20    1
   220   178   179    2
   221   252   250   ar
   222   162   163    1
   223    60    54   am
   224    55    54    2
   225    37    36    1
   226    37    38    1
   227    54    53    1
   228    47    46    2
   229    38    39    2
   230    58    56    1
   231   163   164    1
   232    48    49    1
   233    48    45    1
   234    46    45    1
   235    49    50    2
   236    49    51   am
   237    53    56    1
   238    53    52    1
   239    56    57    1
   240   164   165    2
   241    45    44    1
   242   166   165    1
   243   165   167    1
   244    57    59    1
