@<TRIPOS>MOLECULE
tmp/5q0qC00.pdb
 251 241 0 0 0
SMALL
GASTEIGER

@<TRIPOS>ATOM
      1  N          3.9980   34.1870  -16.2730 N.3    21  GLN21      -0.1231
      2  CA         4.6910   33.6970  -15.0880 C.3    21  GLN21       0.1698
      3  C          5.6370   32.5410  -15.3800 C.2    21  GLN21       0.2592
      4  O          5.2260   31.5010  -15.9020 O.2    21  GLN21      -0.2718
      5  CB         3.6930   33.3530  -13.9810 C.3    21  GLN21       0.0381
      6  CG         3.2090   34.5930  -13.2590 C.3    21  GLN21       0.0905
      7  CD         1.9630   34.3760  -12.4600 C.2    21  GLN21       0.2608
      8  OE1        1.4320   33.2660  -12.3290 O.2    21  GLN21      -0.2717
      9  NE2        1.4700   35.4550  -11.9080 N.am   21  GLN21      -0.0878
     10  N          6.9210   32.7590  -15.0500 N.am   22  ARG22      -0.1966
     11  CA         8.0220   31.8160  -15.2430 C.3    22  ARG22       0.1729
     12  C          9.0050   31.8670  -14.0590 C.2    22  ARG22       0.2616
     13  O          9.0640   32.8640  -13.3290 O.2    22  ARG22      -0.2715
     14  CB         8.7950   32.1410  -16.5400 C.3    22  ARG22       0.0348
     15  CG         8.0390   31.9350  -17.8510 C.3    22  ARG22       0.0492
     16  CD         8.9790   32.1100  -19.0330 C.3    22  ARG22       0.2205
     17  NE         8.3020   32.6780  -20.2000 N.pl3  22  ARG22      -0.0865
     18  CZ         8.9250   33.1650  -21.2710 C.cat  22  ARG22       0.5346
     19  NH1       10.2510   33.1590  -21.3400 N.pl3  22  ARG22       0.1354
     20  NH2        8.2240   33.6650  -22.2820 N.pl3  22  ARG22       0.1354
     21  N          9.7990   30.7960  -13.9020 N.am   23  MET23      -0.1977
     22  CA        10.8530   30.7030  -12.8970 C.3    23  MET23       0.1605
     23  C         12.0490   31.5260  -13.4190 C.2    23  MET23       0.2287
     24  O         12.4790   31.2970  -14.5550 O.2    23  MET23      -0.2864
     25  CB        11.2640   29.2340  -12.6710 C.3    23  MET23       0.0413
     26  CG        12.3130   29.0480  -11.5820 C.3    23  MET23       0.0598
     27  SD        11.6530   29.1810   -9.8940 S.3    23  MET23      -0.1393
     28  CE        10.9310   27.5810   -9.7000 C.3    23  MET23       0.0692
     29  N         18.5710   23.9130    1.0750 N.3    42  PHE42      -0.1241
     30  CA        17.4710   24.5310    1.8170 C.3    42  PHE42       0.1605
     31  C         17.3050   26.0040    1.4200 C.2    42  PHE42       0.2264
     32  O         16.1770   26.5010    1.3720 O.2    42  PHE42      -0.2867
     33  CB        17.7280   24.4180    3.3290 C.3    42  PHE42       0.0534
     34  CG        16.5490   24.7810    4.2010 C.ar   42  PHE42      -0.0203
     35  CD1       15.6510   23.8110    4.6210 C.ar   42  PHE42      -0.0042
     36  CD2       16.3490   26.0920    4.6240 C.ar   42  PHE42      -0.0042
     37  CE1       14.5590   24.1490    5.4290 C.ar   42  PHE42      -0.0003
     38  CE2       15.2460   26.4320    5.4160 C.ar   42  PHE42      -0.0003
     39  CZ        14.3620   25.4580    5.8190 C.ar   42  PHE42      -0.0000
     40  N         15.5240   26.4550   -1.9470 N.3    45  LEU45      -0.1231
     41  CA        14.0840   26.2410   -1.7320 C.3    45  LEU45       0.1693
     42  C         13.4010   27.4680   -1.1390 C.2    45  LEU45       0.2592
     43  O         12.2690   27.7710   -1.5190 O.2    45  LEU45      -0.2718
     44  CB        13.8080   24.9840   -0.8830 C.3    45  LEU45       0.0284
     45  CG        14.2210   23.6350   -1.4920 C.3    45  LEU45       0.0019
     46  CD1       13.9920   22.5230   -0.5180 C.3    45  LEU45       0.0001
     47  CD2       13.4530   23.3400   -2.7820 C.3    45  LEU45       0.0001
     48  N         14.1010   28.1910   -0.2410 N.am   46  THR46      -0.1953
     49  CA        13.6130   29.4330    0.3610 C.3    46  THR46       0.1897
     50  C         13.4890   30.5080   -0.7300 C.2    46  THR46       0.2313
     51  O         12.4450   31.1510   -0.8150 O.2    46  THR46      -0.2863
     52  CB        14.4680   29.8470    1.5860 C.3    46  THR46       0.1794
     53  OG1       14.4150   28.8020    2.5560 O.3    46  THR46      -0.2208
     54  CG2       13.9830   31.1520    2.2330 C.3    46  THR46       0.0378
     55  N         13.1690   29.9690   -3.9800 N.3    48  MET48      -0.1230
     56  CA        12.1160   29.4750   -4.8690 C.3    48  MET48       0.1702
     57  C         10.7350   29.7580   -4.2850 C.2    48  MET48       0.2592
     58  O          9.9280   30.4030   -4.9560 O.2    48  MET48      -0.2718
     59  CB        12.2890   27.9780   -5.1310 C.3    48  MET48       0.0401
     60  CG        13.3780   27.6620   -6.1040 C.3    48  MET48       0.0596
     61  SD        13.7330   25.9050   -6.1010 S.3    48  MET48      -0.1393
     62  CE        13.1440   25.4810   -7.6770 C.3    48  MET48       0.0692
     63  N         10.4720   29.3050   -3.0330 N.am   49  ALA49      -0.1980
     64  CA         9.1970   29.5130   -2.3380 C.3    49  ALA49       0.1597
     65  C          8.8390   31.0120   -2.1930 C.2    49  ALA49       0.2287
     66  O          7.6790   31.3760   -2.3920 O.2    49  ALA49      -0.2864
     67  CB         9.2070   28.8160   -0.9880 C.3    49  ALA49       0.0319
     68  N          9.8650   33.4550   -4.2880 N.3    51  ASN51      -0.1225
     69  CA         9.5220   33.8650   -5.6500 C.3    51  ASN51       0.1785
     70  C          8.0850   33.4860   -5.9990 C.2    51  ASN51       0.2597
     71  O          7.4010   34.2720   -6.6610 O.2    51  ASN51      -0.2718
     72  CB        10.4930   33.2930   -6.6700 C.3    51  ASN51       0.1169
     73  CG        10.2770   33.8520   -8.0590 C.2    51  ASN51       0.2627
     74  OD1       10.6120   35.0120   -8.3430 O.2    51  ASN51      -0.2716
     75  ND2        9.6620   33.0580   -8.9420 N.am   51  ASN51      -0.0877
     76  N          7.6170   32.3110   -5.5160 N.am   52  HIS52      -0.1975
     77  CA         6.2440   31.8650   -5.7500 C.3    52  HIS52       0.1656
     78  C          5.2010   32.8150   -5.1400 C.2    52  HIS52       0.2291
     79  O          4.1690   33.0500   -5.7600 O.2    52  HIS52      -0.2864
     80  CB         6.0130   30.4120   -5.3080 C.3    52  HIS52       0.0771
     81  CG         4.6110   29.9720   -5.5580 C.ar   52  HIS52       0.0820
     82  ND1        3.6540   30.0560   -4.5650 N.ar   52  HIS52      -0.2267
     83  CD2        4.0090   29.6140   -6.7180 C.ar   52  HIS52       0.1154
     84  CE1        2.5130   29.7040   -5.1350 C.ar   52  HIS52       0.1986
     85  NE2        2.6780   29.4220   -6.4280 N.ar   52  HIS52      -0.2212
     86  N          4.6440   35.5340   -7.4340 N.3    55  VAL55      -0.1245
     87  CA         3.9820   34.9260   -8.5990 C.3    55  VAL55       0.1561
     88  C          2.4730   34.7420   -8.3170 C.2    55  VAL55       0.2260
     89  O          1.6370   35.0870   -9.1530 O.2    55  VAL55      -0.2867
     90  CB         4.7130   33.6110   -9.0010 C.3    55  VAL55       0.0252
     91  CG1        3.8320   32.6820   -9.8330 C.3    55  VAL55       0.0019
     92  CG2        6.0200   33.9130   -9.7230 C.3    55  VAL55       0.0019
     93  N          1.4520   26.4180   -4.5070 N.3    86  MET86      -0.1230
     94  CA         2.8830   26.1970   -4.6890 C.3    86  MET86       0.1702
     95  C          3.1660   24.7710   -5.1580 C.2    86  MET86       0.2592
     96  O          3.9200   24.5990   -6.1120 O.2    86  MET86      -0.2718
     97  CB         3.6540   26.4930   -3.4010 C.3    86  MET86       0.0401
     98  CG         5.1580   26.4560   -3.5690 C.3    86  MET86       0.0596
     99  SD         6.0230   26.3620   -1.9860 S.3    86  MET86      -0.1393
    100  CE         5.4580   27.9400   -1.2060 C.3    86  MET86       0.0692
    101  N          2.5790   23.7590   -4.4950 N.am   87  PHE87      -0.1976
    102  CA         2.8040   22.3700   -4.8780 C.3    87  PHE87       0.1639
    103  C          2.1810   22.0380   -6.2170 C.2    87  PHE87       0.2290
    104  O          2.7520   21.2410   -6.9610 O.2    87  PHE87      -0.2864
    105  CB         2.3880   21.3900   -3.7780 C.3    87  PHE87       0.0560
    106  CG         3.3760   21.3730   -2.6360 C.ar   87  PHE87      -0.0200
    107  CD1        4.6830   20.9230   -2.8280 C.ar   87  PHE87      -0.0042
    108  CD2        3.0140   21.8340   -1.3760 C.ar   87  PHE87      -0.0042
    109  CE1        5.6090   20.9470   -1.7820 C.ar   87  PHE87      -0.0003
    110  CE2        3.9390   21.8440   -0.3250 C.ar   87  PHE87      -0.0003
    111  CZ         5.2290   21.3980   -0.5360 C.ar   87  PHE87      -0.0000
    112  N          1.9790   24.2180   -8.6810 N.3    89  ARG89      -0.1231
    113  CA         2.9250   24.8580   -9.5970 C.3    89  ARG89       0.1694
    114  C          4.2120   24.0450   -9.6960 C.2    89  ARG89       0.2592
    115  O          4.7880   23.9580  -10.7800 O.2    89  ARG89      -0.2718
    116  CB         3.2450   26.2860   -9.1370 C.3    89  ARG89       0.0321
    117  CG         3.7200   27.1800  -10.2640 C.3    89  ARG89       0.0489
    118  CD         2.5740   27.9480  -10.8850 C.3    89  ARG89       0.2205
    119  NE         2.9190   28.4120  -12.2230 N.pl3  89  ARG89      -0.0865
    120  CZ         2.6010   29.6080  -12.6880 C.cat  89  ARG89       0.5346
    121  NH1        2.9500   29.9610  -13.9170 N.pl3  89  ARG89       0.1354
    122  NH2        1.9310   30.4650  -11.9290 N.pl3  89  ARG89       0.1354
    123  N          4.6580   23.4630   -8.5580 N.am   90  SER90      -0.1952
    124  CA         5.8340   22.6030   -8.4320 C.3    90  SER90       0.1924
    125  C          5.6440   21.3490   -9.2790 C.2    90  SER90       0.2314
    126  O          6.5930   20.9190   -9.9320 O.2    90  SER90      -0.2863
    127  CB         6.0540   22.2100   -6.9770 C.3    90  SER90       0.2116
    128  OG         6.3390   23.3490   -6.1870 O.3    90  SER90      -0.2180
    129  N          3.7370   21.1050  -11.9760 N.3    92  GLU92      -0.1231
    130  CA         3.7880   21.5670  -13.3600 C.3    92  GLU92       0.1699
    131  C          5.2400   21.6990  -13.8390 C.2    92  GLU92       0.2592
    132  O          5.5570   21.2310  -14.9310 O.2    92  GLU92      -0.2718
    133  CB         3.0400   22.8980  -13.5030 C.3    92  GLU92       0.0402
    134  CG         2.8650   23.3420  -14.9440 C.3    92  GLU92       0.1161
    135  CD         2.4220   24.7770  -15.1380 C.2    92  GLU92       0.3649
    136  OE1        2.8240   25.6410  -14.3230 O.co2  92  GLU92      -0.2457
    137  OE2        1.6840   25.0410  -16.1170 O.co2  92  GLU92      -0.2457
    138  N          6.1080   22.3250  -13.0150 N.am   93  ILE93      -0.1966
    139  CA         7.5340   22.5520  -13.2850 C.3    93  ILE93       0.1727
    140  C          8.3200   21.2320  -13.2900 C.2    93  ILE93       0.2616
    141  O          9.0850   20.9940  -14.2230 O.2    93  ILE93      -0.2715
    142  CB         8.1090   23.6240  -12.3080 C.3    93  ILE93       0.0290
    143  CG1        7.7130   25.0360  -12.7650 C.3    93  ILE93       0.0022
    144  CG2        9.6260   23.5160  -12.1320 C.3    93  ILE93       0.0023
    145  CD1        7.7060   26.0690  -11.6810 C.3    93  ILE93       0.0001
    146  N          8.1070   20.3710  -12.2770 N.am   94  PHE94      -0.1974
    147  CA         8.7840   19.0810  -12.1390 C.3    94  PHE94       0.1639
    148  C          8.4240   18.0570  -13.2260 C.2    94  PHE94       0.2290
    149  O          9.2310   17.1700  -13.4960 O.2    94  PHE94      -0.2864
    150  CB         8.5560   18.4980  -10.7380 C.3    94  PHE94       0.0560
    151  CG         9.5060   17.3900  -10.3520 C.ar   94  PHE94      -0.0200
    152  CD1       10.8270   17.6710   -9.9870 C.ar   94  PHE94      -0.0042
    153  CD2        9.0830   16.0650  -10.3410 C.ar   94  PHE94      -0.0042
    154  CE1       11.7090   16.6380   -9.6340 C.ar   94  PHE94      -0.0003
    155  CE2        9.9630   15.0370   -9.9840 C.ar   94  PHE94      -0.0003
    156  CZ        11.2690   15.3310   -9.6370 C.ar   94  PHE94      -0.0000
    157  N         17.5030   18.8670   -9.0110 N.3   106  LEU106     -0.1245
    158  CA        16.5560   19.4740   -8.0770 C.3   106  LEU106      0.1561
    159  C         15.9350   18.4350   -7.1530 C.2   106  LEU106      0.2260
    160  O         15.8120   18.7090   -5.9550 O.2   106  LEU106     -0.2867
    161  CB        15.4740   20.2770   -8.8170 C.3   106  LEU106      0.0270
    162  CG        14.5410   21.1580   -7.9800 C.3   106  LEU106      0.0019
    163  CD1       15.3200   22.1480   -7.0880 C.3   106  LEU106      0.0001
    164  CD2       13.6060   21.9110   -8.8680 C.3   106  LEU106      0.0001
    165  N         16.0420   18.6010   -3.1840 N.3   110  ILE110     -0.1245
    166  CA        14.8360   18.5140   -2.3400 C.3   110  ILE110      0.1561
    167  C         15.0020   17.3720   -1.3260 C.2   110  ILE110      0.2260
    168  O         14.7340   17.5670   -0.1390 O.2   110  ILE110     -0.2867
    169  CB        13.5310   18.3640   -3.1930 C.3   110  ILE110      0.0252
    170  CG1       13.2550   19.6210   -4.0580 C.3   110  ILE110      0.0019
    171  CG2       12.3060   18.0260   -2.3250 C.3   110  ILE110      0.0019
    172  CD1       12.4930   19.3420   -5.3720 C.3   110  ILE110      0.0001
    173  N         14.6000   18.0150    4.9820 N.3   115  ILE115     -0.1245
    174  CA        13.1690   17.7490    5.1520 C.3   115  ILE115      0.1561
    175  C         12.9820   16.2400    5.3360 C.2   115  ILE115      0.2260
    176  O         13.5500   15.4530    4.5710 O.2   115  ILE115     -0.2867
    177  CB        12.3090   18.3450    3.9930 C.3   115  ILE115      0.0252
    178  CG1       12.5350   19.8630    3.8530 C.3   115  ILE115      0.0019
    179  CG2       10.8160   18.0390    4.1750 C.3   115  ILE115      0.0019
    180  CD1       12.2690   20.4280    2.4510 C.3   115  ILE115      0.0001
    181  N          5.1110   14.2950   -1.6700 N.3   123  MET123     -0.1245
    182  CA         5.3860   15.2980   -2.7140 C.3   123  MET123      0.1570
    183  C          5.5540   14.6390   -4.0830 C.2   123  MET123      0.2261
    184  O          4.8690   15.0140   -5.0330 O.2   123  MET123     -0.2867
    185  CB         6.6610   16.1090   -2.4080 C.3   123  MET123      0.0387
    186  CG         6.5440   17.0920   -1.2670 C.3   123  MET123      0.0595
    187  SD         8.1630   17.8480   -0.9340 S.3   123  MET123     -0.1393
    188  CE         7.8580   18.5600    0.6860 C.3   123  MET123      0.0692
    189  N          3.3630   14.4080   -7.5380 N.3   127  TYR127     -0.1241
    190  CA         3.9460   14.8220   -8.8240 C.3   127  TYR127      0.1605
    191  C          3.7390   13.7520   -9.8940 C.2   127  TYR127      0.2264
    192  O          3.4470   14.0890  -11.0410 O.2   127  TYR127     -0.2867
    193  CB         5.4550   15.1540   -8.6940 C.3   127  TYR127      0.0534
    194  CG         5.8160   16.2720   -7.7350 C.ar  127  TYR127     -0.0201
    195  CD1        4.9150   17.2990   -7.4550 C.ar  127  TYR127     -0.0009
    196  CD2        7.0760   16.3300   -7.1410 C.ar  127  TYR127     -0.0009
    197  CE1        5.2410   18.3300   -6.5760 C.ar  127  TYR127      0.0417
    198  CE2        7.4190   17.3670   -6.2700 C.ar  127  TYR127      0.0417
    199  CZ         6.4950   18.3650   -5.9930 C.ar  127  TYR127      0.1957
    200  OH         6.8120   19.3890   -5.1370 O.3   127  TYR127     -0.2866
    201  N          3.0330   20.6570    5.8160 N.3   205  HIS205     -0.1241
    202  CA         3.7880   21.9100    5.7890 C.3   205  HIS205      0.1621
    203  C          3.8150   22.5700    7.1580 C.2   205  HIS205      0.2264
    204  O          4.8630   23.0780    7.5590 O.2   205  HIS205     -0.2867
    205  CB         3.2480   22.8500    4.7040 C.3   205  HIS205      0.0745
    206  CG         4.0380   24.1100    4.5310 C.ar  205  HIS205      0.0817
    207  ND1        3.7080   25.2500    5.2290 N.ar  205  HIS205     -0.2268
    208  CD2        5.0940   24.3790    3.7250 C.ar  205  HIS205      0.1154
    209  CE1        4.5760   26.1720    4.8420 C.ar  205  HIS205      0.1986
    210  NE2        5.4310   25.6890    3.9450 N.ar  205  HIS205     -0.2212
    211  N          6.2240   20.7060    9.2470 N.3   208  MET208     -0.1245
    212  CA         7.5710   21.0600    8.7650 C.3   208  MET208      0.1570
    213  C          8.0480   22.3520    9.4370 C.2   208  MET208      0.2261
    214  O          9.2110   22.4350    9.8400 O.2   208  MET208     -0.2867
    215  CB         7.5970   21.2590    7.2310 C.3   208  MET208      0.0387
    216  CG         7.6150   19.9750    6.4160 C.3   208  MET208      0.0595
    217  SD         7.8070   20.2570    4.6210 S.3   208  MET208     -0.1393
    218  CE         6.2110   19.6830    4.0080 C.3   208  MET208      0.0692
    219  N         13.8620   32.1960    7.5970 N.3   214  PHE214     -0.1241
    220  CA        13.2140   32.1270    6.2860 C.3   214  PHE214      0.1605
    221  C         13.3580   33.4410    5.5110 C.2   214  PHE214      0.2264
    222  O         14.4870   33.9030    5.2990 O.2   214  PHE214     -0.2867
    223  CB        11.7430   31.6570    6.4040 C.3   214  PHE214      0.0534
    224  CG        11.5990   30.1660    6.6420 C.ar  214  PHE214     -0.0203
    225  CD1       11.5240   29.6540    7.9320 C.ar  214  PHE214     -0.0042
    226  CD2       11.5500   29.2760    5.5770 C.ar  214  PHE214     -0.0042
    227  CE1       11.4020   28.2770    8.1520 C.ar  214  PHE214     -0.0003
    228  CE2       11.4200   27.8990    5.7990 C.ar  214  PHE214     -0.0003
    229  CZ        11.3440   27.4100    7.0840 C.ar  214  PHE214     -0.0000
    230  N          7.8130   35.2110    3.2590 N.3   218  LEU218     -0.1245
    231  CA         7.4120   33.8720    3.7020 C.3   218  LEU218      0.1561
    232  C          6.7760   33.8720    5.0770 C.2   218  LEU218      0.2260
    233  O          5.8320   33.1210    5.2940 O.2   218  LEU218     -0.2867
    234  CB         8.5590   32.8450    3.6470 C.3   218  LEU218      0.0270
    235  CG         8.8730   32.2490    2.2750 C.3   218  LEU218      0.0019
    236  CD1       10.0310   31.2690    2.3500 C.3   218  LEU218      0.0001
    237  CD2        7.6310   31.6050    1.6240 C.3   218  LEU218      0.0001
    238  N          2.7360   32.6180    5.8260 N.3   222  TRP222     -0.1241
    239  CA         2.7580   31.4040    6.6410 C.3   222  TRP222      0.1605
    240  C          2.4100   31.6530    8.1370 C.2   222  TRP222      0.2264
    241  O          1.8250   30.7650    8.7620 O.2   222  TRP222     -0.2867
    242  CB         4.0880   30.6440    6.4690 C.3   222  TRP222      0.0550
    243  CG         4.3090   30.0840    5.0830 C.ar  222  TRP222      0.0003
    244  CD1        3.3880   29.9780    4.0790 C.ar  222  TRP222      0.0946
    245  CD2        5.5220   29.5050    4.5720 C.ar  222  TRP222      0.0152
    246  NE1        3.9580   29.4010    2.9680 N.ar  222  TRP222     -0.2442
    247  CE2        5.2630   29.0870    3.2470 C.ar  222  TRP222      0.0810
    248  CE3        6.8040   29.2910    5.1090 C.ar  222  TRP222      0.0012
    249  CZ2        6.2330   28.4550    2.4570 C.ar  222  TRP222      0.0191
    250  CZ3        7.7670   28.6730    4.3230 C.ar  222  TRP222      0.0001
    251  CH2        7.4770   28.2540    3.0170 C.ar  222  TRP222      0.0015
@<TRIPOS>BOND
     1    20    18    1
     2    19    18    1
     3    18    17    2
     4    17    16    1
     5    16    15    1
     6    15    14    1
     7    14    11    1
     8     1     2    1
     9   137   135   ar
    10     4     3    2
    11     3     2    1
    12     3    10   am
    13    11    10    1
    14    11    12    1
    15   135   134    1
    16   135   136   ar
    17     2     5    1
    18   134   133    1
    19   132   131    2
    20    24    23    2
    21   141   140    2
    22    12    21   am
    23    12    13    2
    24     5     6    1
    25   121   120    1
    26    21    22    1
    27   131   130    1
    28   131   138   am
    29   133   130    1
    30   149   148    2
    31    23    22    1
    32   130   129    1
    33   140   139    1
    34   140   146   am
    35   139   138    1
    36   139   142    1
    37     6     7    1
    38   148   147    1
    39    22    25    1
    40   143   142    1
    41   143   145    1
    42   120   119    2
    43   120   122    1
    44    25    26    1
    45     7     8    2
    46     7     9   am
    47   142   144    1
    48   146   147    1
    49   119   118    1
    50   147   150    1
    51    26    27    1
    52   192   191    2
    53   118   117    1
    54   115   114    2
    55   150   151    1
    56   151   153   ar
    57   151   152   ar
    58   153   155   ar
    59   117   116    1
    60   152   154   ar
    61   155   156   ar
    62   126   125    2
    63    27    28    1
    64   191   190    1
    65    91    90    1
    66    92    90    1
    67   114   113    1
    68   114   123   am
    69   156   154   ar
    70   113   116    1
    71   113   112    1
    72   125   124    1
    73    89    88    2
    74   157   158    1
    75    90    87    1
    76    75    73   am
    77   164   162    1
    78   190   193    1
    79   190   189    1
    80   161   158    1
    81   161   162    1
    82   193   194    1
    83    87    88    1
    84    87    86    1
    85   123   124    1
    86   124   127    1
    87    74    73    2
    88   158   159    1
    89    73    72    1
    90   162   163    1
    91   194   195   ar
    92   194   196   ar
    93    62    61    1
    94   195   197   ar
    95   159   160    2
    96   196   198   ar
    97   127   128    1
    98   104   103    2
    99    83    85   ar
   100    83    81   ar
   101    72    69    1
   102    71    70    2
   103   197   199   ar
   104    85    84   ar
   105   198   199   ar
   106   103   102    1
   107    96    95    2
   108    60    61    1
   109    60    59    1
   110    70    69    1
   111    70    76   am
   112   199   200    1
   113    79    78    2
   114    77    76    1
   115    77    80    1
   116    77    78    1
   117    69    68    1
   118    81    80    1
   119    81    82   ar
   120   172   170    1
   121    95    94    1
   122    95   101   am
   123    84    82   ar
   124    59    56    1
   125   184   183    2
   126    58    57    2
   127   102   101    1
   128   102   105    1
   129    56    57    1
   130    56    55    1
   131    94    93    1
   132    94    97    1
   133    57    63   am
   134   183   182    1
   135   170   169    1
   136   105   106    1
   137    98    97    1
   138    98    99    1
   139   169   166    1
   140   169   171    1
   141   165   166    1
   142    63    64    1
   143   107   106   ar
   144   107   109   ar
   145    47    45    1
   146   182   185    1
   147   182   181    1
   148   106   108   ar
   149   185   186    1
   150    66    65    2
   151   166   167    1
   152    64    65    1
   153    64    67    1
   154    99   100    1
   155    40    41    1
   156   109   111   ar
   157    41    42    1
   158    41    44    1
   159    43    42    2
   160    45    44    1
   161    45    46    1
   162   108   110   ar
   163   167   168    2
   164   186   187    1
   165    42    48   am
   166   187   188    1
   167    51    50    2
   168    50    49    1
   169   111   110   ar
   170    48    49    1
   171    49    52    1
   172    29    30    1
   173    32    31    2
   174    31    30    1
   175    52    54    1
   176    52    53    1
   177   237   235    1
   178    30    33    1
   179   235   236    1
   180   235   234    1
   181   180   178    1
   182   249   251   ar
   183   249   247   ar
   184   246   247   ar
   185   246   244   ar
   186   251   250   ar
   187   247   245   ar
   188   230   231    1
   189    33    34    1
   190   234   231    1
   191   231   232    1
   192   208   210   ar
   193   208   206   ar
   194   178   177    1
   195   210   209   ar
   196   177   179    1
   197   177   174    1
   198   218   217    1
   199   244   243   ar
   200    34    35   ar
   201    34    36   ar
   202   250   248   ar
   203   206   205    1
   204   206   207   ar
   205   176   175    2
   206   245   243   ar
   207   245   248   ar
   208   217   216    1
   209    35    37   ar
   210    36    38   ar
   211   205   202    1
   212   209   207   ar
   213   173   174    1
   214   232   233    2
   215   243   242    1
   216   174   175    1
   217   222   221    2
   218    38    39   ar
   219    37    39   ar
   220   221   220    1
   221   226   228   ar
   222   226   224   ar
   223   202   201    1
   224   202   203    1
   225   228   229   ar
   226   238   239    1
   227   220   223    1
   228   220   219    1
   229   223   224    1
   230   216   215    1
   231   242   239    1
   232   239   240    1
   233   224   225   ar
   234   229   227   ar
   235   203   204    2
   236   215   212    1
   237   225   227   ar
   238   240   241    2
   239   212   211    1
   240   212   213    1
   241   213   214    2
