@<TRIPOS>MOLECULE
tmp/5q0rA00.pdb
 236 228 0 0 0
SMALL
GASTEIGER

@<TRIPOS>ATOM
      1  N         38.6220   35.6610   -7.3020 N.3    42  PHE42      -0.1241
      2  CA        37.6940   34.8510   -8.1020 C.3    42  PHE42       0.1605
      3  C         38.2000   33.4110   -8.2400 C.2    42  PHE42       0.2264
      4  O         37.4070   32.4730   -8.1260 O.2    42  PHE42      -0.2867
      5  CB        37.4760   35.4780   -9.4970 C.3    42  PHE42       0.0534
      6  CG        36.3220   34.8930  -10.2810 C.ar   42  PHE42      -0.0203
      7  CD1       36.5190   33.8280  -11.1530 C.ar   42  PHE42      -0.0042
      8  CD2       35.0370   35.4040  -10.1430 C.ar   42  PHE42      -0.0042
      9  CE1       35.4500   33.2790  -11.8660 C.ar   42  PHE42      -0.0003
     10  CE2       33.9690   34.8610  -10.8670 C.ar   42  PHE42      -0.0003
     11  CZ        34.1820   33.7970  -11.7170 C.ar   42  PHE42      -0.0000
     12  N         37.6740   31.3410   -5.0080 N.3    45  LEU45      -0.1231
     13  CA        36.2830   30.8960   -4.9060 C.3    45  LEU45       0.1693
     14  C         36.0060   29.6980   -5.8160 C.2    45  LEU45       0.2592
     15  O         35.3180   28.7560   -5.4110 O.2    45  LEU45      -0.2718
     16  CB        35.3080   32.0510   -5.1760 C.3    45  LEU45       0.0284
     17  CG        35.2000   33.1000   -4.0560 C.3    45  LEU45       0.0019
     18  CD1       34.3330   34.2740   -4.4790 C.3    45  LEU45       0.0001
     19  CD2       34.6520   32.4920   -2.7860 C.3    45  LEU45       0.0001
     20  N         36.6080   29.7160   -7.0160 N.am   46  THR46      -0.1953
     21  CA        36.5490   28.6630   -8.0360 C.3    46  THR46       0.1897
     22  C         37.1410   27.3620   -7.4660 C.2    46  THR46       0.2313
     23  O         36.4910   26.3240   -7.5250 O.2    46  THR46      -0.2863
     24  CB        37.2560   29.1650   -9.3240 C.3    46  THR46       0.1794
     25  OG1       36.6160   30.3560   -9.7560 O.3    46  THR46      -0.2208
     26  CG2       37.1960   28.1780  -10.4480 C.3    46  THR46       0.0378
     27  N         37.4810   26.6390   -4.3070 N.3    48  MET48      -0.1230
     28  CA        36.5980   26.2450   -3.1980 C.3    48  MET48       0.1702
     29  C         35.3380   25.5230   -3.6950 C.2    48  MET48       0.2592
     30  O         34.9620   24.4890   -3.1350 O.2    48  MET48      -0.2718
     31  CB        36.2430   27.4410   -2.3010 C.3    48  MET48       0.0401
     32  CG        37.4150   27.9500   -1.4920 C.3    48  MET48       0.0596
     33  SD        37.0580   29.3900   -0.4280 S.3    48  MET48      -0.1393
     34  CE        36.3010   28.5530    0.9790 C.3    48  MET48       0.0692
     35  N         34.7010   26.0500   -4.7400 N.am   49  ALA49      -0.1980
     36  CA        33.5000   25.4490   -5.3140 C.3    49  ALA49       0.1597
     37  C         33.7950   24.0930   -5.9730 C.2    49  ALA49       0.2287
     38  O         32.9720   23.1870   -5.8840 O.2    49  ALA49      -0.2864
     39  CB        32.8450   26.4080   -6.2980 C.3    49  ALA49       0.0319
     40  N         34.2880   21.5400   -3.1680 N.3    52  HIS52      -0.1241
     41  CA        32.9790   21.2030   -2.6420 C.3    52  HIS52       0.1621
     42  C         32.2010   20.1920   -3.5070 C.2    52  HIS52       0.2264
     43  O         31.5880   19.2810   -2.9440 O.2    52  HIS52      -0.2867
     44  CB        32.1340   22.4440   -2.3610 C.3    52  HIS52       0.0745
     45  CG        30.7720   22.1020   -1.8450 C.ar   52  HIS52       0.0817
     46  ND1       29.6630   22.1540   -2.6620 N.ar   52  HIS52      -0.2268
     47  CD2       30.4150   21.5660   -0.6540 C.ar   52  HIS52       0.1154
     48  CE1       28.6610   21.7040   -1.9280 C.ar   52  HIS52       0.1986
     49  NE2       29.0650   21.3530   -0.7110 N.ar   52  HIS52      -0.2212
     50  N         26.0140   23.9340   -2.0010 N.3    86  MET86      -0.1230
     51  CA        27.1360   24.8640   -1.9300 C.3    86  MET86       0.1702
     52  C         26.8390   26.0130   -0.9600 C.2    86  MET86       0.2592
     53  O         27.6510   26.2790   -0.0690 O.2    86  MET86      -0.2718
     54  CB        27.4850   25.3830   -3.3300 C.3    86  MET86       0.0401
     55  CG        28.4640   26.5320   -3.3290 C.3    86  MET86       0.0596
     56  SD        29.0090   26.9480   -4.9840 S.3    86  MET86      -0.1393
     57  CE        27.4900   27.6680   -5.6680 C.3    86  MET86       0.0692
     58  N         25.6920   26.6860   -1.1280 N.am   87  PHE87      -0.1976
     59  CA        25.2880   27.7880   -0.2620 C.3    87  PHE87       0.1639
     60  C         25.0740   27.3460    1.1790 C.2    87  PHE87       0.2290
     61  O         25.4030   28.1040    2.0990 O.2    87  PHE87      -0.2864
     62  CB        24.0520   28.5060   -0.7960 C.3    87  PHE87       0.0560
     63  CG        24.3780   29.5280   -1.8540 C.ar   87  PHE87      -0.0200
     64  CD1       24.8820   30.7770   -1.5060 C.ar   87  PHE87      -0.0042
     65  CD2       24.1820   29.2450   -3.1990 C.ar   87  PHE87      -0.0042
     66  CE1       25.2100   31.7160   -2.4880 C.ar   87  PHE87      -0.0003
     67  CE2       24.4830   30.1950   -4.1850 C.ar   87  PHE87      -0.0003
     68  CZ        25.0000   31.4210   -3.8220 C.ar   87  PHE87      -0.0000
     69  N         26.6140   24.7110    2.6760 N.3    89  ARG89      -0.1231
     70  CA        27.9470   24.4360    3.2030 C.3    89  ARG89       0.1694
     71  C         28.7030   25.7570    3.4780 C.2    89  ARG89       0.2592
     72  O         29.3790   25.8660    4.5000 O.2    89  ARG89      -0.2718
     73  CB        28.7170   23.5020    2.2460 C.3    89  ARG89       0.0321
     74  CG        30.1440   23.1410    2.6760 C.3    89  ARG89       0.0489
     75  CD        30.2700   22.5170    4.0480 C.3    89  ARG89       0.2205
     76  NE        31.6840   22.2690    4.3250 N.pl3  89  ARG89      -0.0865
     77  CZ        32.2130   22.0990    5.5310 C.cat  89  ARG89       0.5346
     78  NH1       31.4490   22.1560    6.6140 N.pl3  89  ARG89       0.1354
     79  NH2       33.5140   21.8850    5.6640 N.pl3  89  ARG89       0.1354
     80  N         28.5610   26.7540    2.5720 N.am   90  SER90      -0.1952
     81  CA        29.2140   28.0450    2.7460 C.3    90  SER90       0.1924
     82  C         28.6600   28.7770    3.9840 C.2    90  SER90       0.2314
     83  O         29.4290   29.4290    4.6970 O.2    90  SER90      -0.2863
     84  CB        29.1360   28.8780    1.4690 C.3    90  SER90       0.2116
     85  OG        27.8420   29.3910    1.2040 O.3    90  SER90      -0.2180
     86  N         30.3980   27.0560    7.2100 N.3    93  ILE93      -0.1231
     87  CA        31.7930   27.5120    7.3000 C.3    93  ILE93       0.1692
     88  C         31.8530   28.9380    7.8780 C.2    93  ILE93       0.2592
     89  O         32.6920   29.2400    8.7270 O.2    93  ILE93      -0.2718
     90  CB        32.4560   27.4140    5.8840 C.3    93  ILE93       0.0266
     91  CG1       32.8150   25.9580    5.5260 C.3    93  ILE93       0.0019
     92  CG2       33.6730   28.3440    5.7170 C.3    93  ILE93       0.0020
     93  CD1       33.0920   25.7070    4.0120 C.3    93  ILE93       0.0001
     94  N         30.9570   29.8140    7.3890 N.am   94  PHE94      -0.1976
     95  CA        30.9030   31.2210    7.8070 C.3    94  PHE94       0.1639
     96  C         30.5600   31.3310    9.2990 C.2    94  PHE94       0.2290
     97  O         31.2020   32.0930   10.0100 O.2    94  PHE94      -0.2864
     98  CB        29.9050   32.0230    6.9400 C.3    94  PHE94       0.0560
     99  CG        29.6520   33.4510    7.3870 C.ar   94  PHE94      -0.0200
    100  CD1       30.4470   34.4940    6.9250 C.ar   94  PHE94      -0.0042
    101  CD2       28.6050   33.7530    8.2480 C.ar   94  PHE94      -0.0042
    102  CE1       30.2140   35.8100    7.3410 C.ar   94  PHE94      -0.0003
    103  CE2       28.3710   35.0750    8.6620 C.ar   94  PHE94      -0.0003
    104  CZ        29.1740   36.0920    8.2000 C.ar   94  PHE94      -0.0000
    105  N         36.0080   28.3730    9.7520 N.3    98  LEU98      -0.1245
    106  CA        37.0970   29.3330    9.5690 C.3    98  LEU98       0.1561
    107  C         37.3490   30.2690   10.7710 C.2    98  LEU98       0.2260
    108  O         36.3970   30.8240   11.3330 O.2    98  LEU98      -0.2867
    109  CB        36.9260   30.1430    8.2730 C.3    98  LEU98       0.0270
    110  CG        37.6640   29.5800    7.0500 C.3    98  LEU98       0.0019
    111  CD1       36.9640   29.9510    5.7860 C.3    98  LEU98       0.0001
    112  CD2       39.1060   30.0770    6.9750 C.3    98  LEU98       0.0001
    113  N         38.5010   34.1930    8.4730 N.3   103  SER103     -0.1217
    114  CA        37.1840   34.3840    7.8600 C.3   103  SER103      0.1889
    115  C         37.0140   35.8340    7.4290 C.2   103  SER103      0.2288
    116  O         36.3720   36.0870    6.4130 O.2   103  SER103     -0.2866
    117  CB        36.0560   33.9700    8.8040 C.3   103  SER103      0.2089
    118  OG        36.0720   34.7190   10.0080 O.3   103  SER103     -0.2183
    119  N         38.7030   36.0190    4.0830 N.3   106  LEU106     -0.1231
    120  CA        37.8750   35.3960    3.0420 C.3   106  LEU106      0.1693
    121  C         36.6820   36.2860    2.6630 C.2   106  LEU106      0.2591
    122  O         36.3780   36.4160    1.4710 O.2   106  LEU106     -0.2718
    123  CB        37.4220   33.9760    3.4070 C.3   106  LEU106      0.0284
    124  CG        36.5480   33.2500    2.3550 C.3   106  LEU106      0.0019
    125  CD1       37.2470   33.1230    1.0060 C.3   106  LEU106      0.0001
    126  CD2       36.1160   31.9060    2.8380 C.3   106  LEU106      0.0001
    127  N         36.0440   36.9320    3.6660 N.am  107  GLU107     -0.1979
    128  CA        34.9350   37.8630    3.4350 C.3   107  GLU107      0.1602
    129  C         35.4210   39.0310    2.5660 C.2   107  GLU107      0.2287
    130  O         34.7550   39.3840    1.5870 O.2   107  GLU107     -0.2864
    131  CB        34.3450   38.3510    4.7680 C.3   107  GLU107      0.0415
    132  CG        33.2070   39.3440    4.6070 C.3   107  GLU107      0.1163
    133  CD        32.2490   39.4780    5.7730 C.2   107  GLU107      0.3649
    134  OE1       32.3710   38.7170    6.7620 O.co2 107  GLU107     -0.2457
    135  OE2       31.3440   40.3350    5.6720 O.co2 107  GLU107     -0.2457
    136  N         35.7080   37.7250   -1.0090 N.3   110  ILE110     -0.1245
    137  CA        34.3810   37.5470   -1.6210 C.3   110  ILE110      0.1561
    138  C         33.7970   38.8950   -2.0370 C.2   110  ILE110      0.2260
    139  O         33.2830   39.0170   -3.1510 O.2   110  ILE110     -0.2867
    140  CB        33.4280   36.7230   -0.7040 C.3   110  ILE110      0.0252
    141  CG1       33.8290   35.2340   -0.7190 C.3   110  ILE110      0.0019
    142  CG2       31.9450   36.8870   -1.1060 C.3   110  ILE110      0.0019
    143  CD1       33.3620   34.4360    0.4250 C.3   110  ILE110      0.0001
    144  N         31.8760   39.8290   -8.0100 N.3   115  ILE115     -0.1245
    145  CA        30.4760   39.4390   -7.7980 C.3   115  ILE115      0.1561
    146  C         29.7070   40.7270   -7.4840 C.2   115  ILE115      0.2260
    147  O         30.1380   41.4980   -6.6210 O.2   115  ILE115     -0.2867
    148  CB        30.3100   38.3980   -6.6460 C.3   115  ILE115      0.0252
    149  CG1       31.0350   37.0650   -6.9390 C.3   115  ILE115      0.0019
    150  CG2       28.8270   38.1550   -6.3010 C.3   115  ILE115      0.0019
    151  CD1       31.2310   36.1610   -5.6630 C.3   115  ILE115      0.0001
    152  N         23.1780   36.6630   -0.0060 N.3   123  MET123     -0.1230
    153  CA        24.1210   35.6210    0.4080 C.3   123  MET123      0.1702
    154  C         24.5180   35.8080    1.8800 C.2   123  MET123      0.2592
    155  O         24.3200   34.8930    2.6770 O.2   123  MET123     -0.2718
    156  CB        25.3620   35.6630   -0.4960 C.3   123  MET123      0.0401
    157  CG        26.3330   34.5100   -0.2920 C.3   123  MET123      0.0596
    158  SD        28.0370   34.9020   -0.8010 S.3   123  MET123     -0.1393
    159  CE        27.7830   35.4830   -2.4880 C.3   123  MET123      0.0692
    160  N         25.0590   36.9950    2.2460 N.am  124  PHE124     -0.1976
    161  CA        25.4630   37.2750    3.6290 C.3   124  PHE124      0.1639
    162  C         24.2640   37.3770    4.5780 C.2   124  PHE124      0.2290
    163  O         24.4050   37.0520    5.7640 O.2   124  PHE124     -0.2864
    164  CB        26.4050   38.4880    3.7350 C.3   124  PHE124      0.0560
    165  CG        27.8320   38.1210    3.3840 C.ar  124  PHE124     -0.0200
    166  CD1       28.3310   38.3450    2.1060 C.ar  124  PHE124     -0.0042
    167  CD2       28.6670   37.5280    4.3250 C.ar  124  PHE124     -0.0042
    168  CE1       29.6380   37.9730    1.7710 C.ar  124  PHE124     -0.0003
    169  CE2       29.9700   37.1460    3.9860 C.ar  124  PHE124     -0.0003
    170  CZ        30.4520   37.3820    2.7120 C.ar  124  PHE124     -0.0000
    171  N         23.5330   33.8080    5.4040 N.3   127  TYR127     -0.1241
    172  CA        24.5420   33.3560    6.3750 C.3   127  TYR127      0.1605
    173  C         24.1430   33.7590    7.7960 C.2   127  TYR127      0.2264
    174  O         24.2310   32.9450    8.7110 O.2   127  TYR127     -0.2867
    175  CB        25.9330   33.9410    6.0530 C.3   127  TYR127      0.0534
    176  CG        26.6150   33.4160    4.8030 C.ar  127  TYR127     -0.0201
    177  CD1       26.0850   32.3450    4.0840 C.ar  127  TYR127     -0.0009
    178  CD2       27.7880   34.0000    4.3320 C.ar  127  TYR127     -0.0009
    179  CE1       26.6980   31.8800    2.9250 C.ar  127  TYR127      0.0417
    180  CE2       28.4090   33.5430    3.1760 C.ar  127  TYR127      0.0417
    181  CZ        27.8660   32.4770    2.4810 C.ar  127  TYR127      0.1957
    182  OH        28.4820   32.0490    1.3380 O.3   127  TYR127     -0.2866
    183  N         22.0300   32.4780   -8.4680 N.3   205  HIS205     -0.1241
    184  CA        23.2410   31.8980   -9.0690 C.3   205  HIS205      0.1621
    185  C         23.1790   31.8400  -10.6110 C.2   205  HIS205      0.2264
    186  O         24.1670   32.1780  -11.2630 O.2   205  HIS205     -0.2867
    187  CB        23.5180   30.5020   -8.4910 C.3   205  HIS205      0.0745
    188  CG        24.8550   29.9380   -8.8630 C.ar  205  HIS205      0.0817
    189  ND1       25.9960   30.2560   -8.1510 N.ar  205  HIS205     -0.2268
    190  CD2       25.1860   29.0810   -9.8570 C.ar  205  HIS205      0.1154
    191  CE1       26.9790   29.6030   -8.7410 C.ar  205  HIS205      0.1986
    192  NE2       26.5410   28.8850   -9.7720 N.ar  205  HIS205     -0.2212
    193  N         23.6690   35.2120  -11.9640 N.3   208  MET208     -0.1245
    194  CA        25.0670   35.5610  -11.7060 C.3   208  MET208      0.1570
    195  C         25.9840   35.0200  -12.8120 C.2   208  MET208      0.2261
    196  O         26.8470   35.7550  -13.2970 O.2   208  MET208     -0.2867
    197  CB        25.4860   35.0510  -10.3170 C.3   208  MET208      0.0387
    198  CG        26.8400   35.5300   -9.8630 C.3   208  MET208      0.0595
    199  SD        27.0900   35.3050   -8.0890 S.3   208  MET208     -0.1393
    200  CE        27.2990   33.5160   -7.9970 C.3   208  MET208      0.0692
    201  N         28.4000   36.8600  -17.0630 N.3   212  TRP212     -0.1241
    202  CA        29.7010   36.6460  -17.6980 C.3   212  TRP212      0.1605
    203  C         29.5960   35.7210  -18.9060 C.2   212  TRP212      0.2264
    204  O         29.6430   36.1880  -20.0430 O.2   212  TRP212     -0.2867
    205  CB        30.7200   36.1030  -16.6830 C.3   212  TRP212      0.0550
    206  CG        30.8260   36.9160  -15.4240 C.ar  212  TRP212      0.0003
    207  CD1       31.2410   38.2110  -15.3140 C.ar  212  TRP212      0.0946
    208  CD2       30.5330   36.4730  -14.0920 C.ar  212  TRP212      0.0152
    209  NE1       31.2160   38.6060  -13.9960 N.ar  212  TRP212     -0.2442
    210  CE2       30.7860   37.5580  -13.2240 C.ar  212  TRP212      0.0810
    211  CE3       30.0840   35.2580  -13.5440 C.ar  212  TRP212      0.0012
    212  CZ2       30.6030   37.4670  -11.8380 C.ar  212  TRP212      0.0191
    213  CZ3       29.8990   35.1710  -12.1720 C.ar  212  TRP212      0.0001
    214  CH2       30.1570   36.2660  -11.3350 C.ar  212  TRP212      0.0015
    215  N         32.1520   22.8260  -12.4270 N.3   219  LEU219     -0.1245
    216  CA        31.3260   24.0200  -12.2810 C.3   219  LEU219      0.1561
    217  C         30.2870   24.1830  -13.4040 C.2   219  LEU219      0.2260
    218  O         29.1820   23.7050  -13.1930 O.2   219  LEU219     -0.2867
    219  CB        32.1660   25.2940  -12.0620 C.3   219  LEU219      0.0270
    220  CG        33.0670   25.3060  -10.8050 C.3   219  LEU219      0.0019
    221  CD1       33.6050   26.6870  -10.5270 C.3   219  LEU219      0.0001
    222  CD2       32.3690   24.7430   -9.5760 C.3   219  LEU219      0.0001
    223  N         26.4420   23.1140  -13.1430 N.3   223  TRP223     -0.1241
    224  CA        25.7010   24.3750  -13.1050 C.3   223  TRP223      0.1605
    225  C         24.9240   24.6980  -14.3890 C.2   223  TRP223      0.2264
    226  O         24.1170   25.6320  -14.3740 O.2   223  TRP223     -0.2867
    227  CB        26.6440   25.5380  -12.7830 C.3   223  TRP223      0.0550
    228  CG        27.2460   25.5400  -11.4100 C.ar  223  TRP223      0.0003
    229  CD1       26.8830   24.7740  -10.3380 C.ar  223  TRP223      0.0946
    230  CD2       28.2750   26.4160  -10.9470 C.ar  223  TRP223      0.0152
    231  NE1       27.6440   25.1030   -9.2430 N.ar  223  TRP223     -0.2442
    232  CE2       28.4950   26.1230   -9.5830 C.ar  223  TRP223      0.0810
    233  CE3       29.0330   27.4300  -11.5530 C.ar  223  TRP223      0.0012
    234  CZ2       29.4470   26.8020   -8.8180 C.ar  223  TRP223      0.0191
    235  CZ3       29.9780   28.1000  -10.7960 C.ar  223  TRP223      0.0001
    236  CH2       30.1770   27.7860   -9.4460 C.ar  223  TRP223      0.0015
@<TRIPOS>BOND
     1   204   203    2
     2   203   202    1
     3   202   201    1
     4   202   205    1
     5   205   206    1
     6   206   207   ar
     7   206   208   ar
     8   207   209   ar
     9   225   226    2
    10   225   224    1
    11   208   211   ar
    12   208   210   ar
    13   209   210   ar
    14   211   213   ar
    15   217   218    2
    16   217   216    1
    17   196   195    2
    18   210   212   ar
    19   223   224    1
    20   224   227    1
    21   195   194    1
    22   227   228    1
    23   215   216    1
    24   216   219    1
    25   213   214   ar
    26   219   220    1
    27   193   194    1
    28     9    11   ar
    29     9     7   ar
    30   212   214   ar
    31    11    10   ar
    32   194   197    1
    33   233   230   ar
    34   233   235   ar
    35   228   230   ar
    36   228   229   ar
    37   186   185    2
    38     7     6   ar
    39   230   232   ar
    40    10     8   ar
    41   220   221    1
    42   220   222    1
    43   235   236   ar
    44   185   184    1
    45    26    24    1
    46   229   231   ar
    47   197   198    1
    48     6     8   ar
    49     6     5    1
    50   198   199    1
    51   190   192   ar
    52   190   188   ar
    53   192   191   ar
    54    25    24    1
    55   232   231   ar
    56   232   234   ar
    57     5     2    1
    58   236   234   ar
    59    24    21    1
    60   184   187    1
    61   184   183    1
    62   188   187    1
    63   188   189   ar
    64   191   189   ar
    65     3     4    2
    66     3     2    1
    67     2     1    1
    68   199   200    1
    69    21    22    1
    70    21    20    1
    71   144   145    1
    72   145   146    1
    73   145   148    1
    74    23    22    2
    75   146   147    2
    76    20    14   am
    77   149   148    1
    78   149   151    1
    79   148   150    1
    80    39    36    1
    81    37    38    2
    82    37    36    1
    83    14    15    2
    84    14    13    1
    85    57    56    1
    86    36    35    1
    87    16    13    1
    88    16    17    1
    89    12    13    1
    90    56    55    1
    91    35    29   am
    92    18    17    1
    93    27    28    1
    94    67    68   ar
    95    67    65   ar
    96    17    19    1
    97    68    66   ar
    98    29    28    1
    99    29    30    2
   100    42    43    2
   101    42    41    1
   102    54    55    1
   103    54    51    1
   104    65    63   ar
   105    28    31    1
   106    40    41    1
   107   139   138    2
   108    46    48   ar
   109    46    45   ar
   110    41    44    1
   111    66    64   ar
   112   159   158    1
   113    44    45    1
   114    31    32    1
   115   138   137    1
   116    50    51    1
   117    51    52    1
   118    48    49   ar
   119    63    64   ar
   120    63    62    1
   121    45    47   ar
   122   137   136    1
   123   137   140    1
   124    32    33    1
   125    58    52   am
   126    58    59    1
   127   142   140    1
   128    52    53    2
   129   158   157    1
   130    62    59    1
   131   141   140    1
   132   141   143    1
   133    49    47   ar
   134   156   157    1
   135   156   153    1
   136    33    34    1
   137    59    60    1
   138   152   153    1
   139   153   154    1
   140   125   124    1
   141    60    61    2
   142    85    84    1
   143   182   181    1
   144    84    81    1
   145   122   121    2
   146   130   129    2
   147   168   166   ar
   148   168   170   ar
   149   154   160   am
   150   154   155    2
   151   166   165   ar
   152    73    74    1
   153    73    70    1
   154   160   161    1
   155   124   126    1
   156   124   123    1
   157   181   179   ar
   158   181   180   ar
   159   129   128    1
   160    80    81    1
   161    80    71   am
   162   121   120    1
   163   121   127   am
   164    69    70    1
   165    74    75    1
   166   170   169   ar
   167    81    82    1
   168   179   177   ar
   169   120   123    1
   170   120   119    1
   171   180   178   ar
   172    70    71    1
   173   165   164    1
   174   165   167   ar
   175   128   127    1
   176   128   131    1
   177    71    72    2
   178   161   164    1
   179   161   162    1
   180    82    83    2
   181   169   167   ar
   182    93    91    1
   183    75    76    1
   184   177   176   ar
   185    76    77    2
   186   178   176   ar
   187   162   163    2
   188   132   131    1
   189   132   133    1
   190   176   175    1
   191   171   172    1
   192    91    90    1
   193    77    79    1
   194    77    78    1
   195   135   133   ar
   196    92    90    1
   197   133   134   ar
   198   111   110    1
   199    90    87    1
   200   175   172    1
   201   172   173    1
   202   116   115    2
   203   100   102   ar
   204   100    99   ar
   205    98    99    1
   206    98    95    1
   207   112   110    1
   208   110   109    1
   209    86    87    1
   210    87    88    1
   211   102   104   ar
   212    99   101   ar
   213    94    95    1
   214    94    88   am
   215   115   114    1
   216   173   174    2
   217    95    96    1
   218   114   113    1
   219   114   117    1
   220    88    89    2
   221   104   103   ar
   222   101   103   ar
   223   109   106    1
   224   117   118    1
   225    96    97    2
   226   106   105    1
   227   106   107    1
   228   107   108    2
