@<TRIPOS>MOLECULE
tmp/5q0sC00.pdb
 78 74 0 0 0
SMALL
GASTEIGER

@<TRIPOS>ATOM
      1  N         30.4660   54.4130   38.4470 N.3    57  VAL57      -0.1245
      2  CA        31.7980   54.9410   38.1290 C.3    57  VAL57       0.1561
      3  C         32.7780   53.7840   37.8810 C.2    57  VAL57       0.2260
      4  O         33.5560   53.8340   36.9290 O.2    57  VAL57      -0.2867
      5  CB        32.3100   55.9730   39.1670 C.3    57  VAL57       0.0252
      6  CG1       33.7320   56.4460   38.8400 C.3    57  VAL57       0.0019
      7  CG2       31.3600   57.1660   39.2720 C.3    57  VAL57       0.0019
      8  N         31.7830   52.0910   34.4570 N.3    60  THR60      -0.1203
      9  CA        32.1940   53.0800   33.4550 C.3    60  THR60       0.1994
     10  C         33.7110   53.0500   33.2140 C.2    60  THR60       0.2617
     11  O         34.1320   53.0280   32.0560 O.2    60  THR60      -0.2717
     12  CB        31.7130   54.4440   33.9240 C.3    60  THR60       0.1784
     13  OG1       30.2970   54.3940   34.0450 O.3    60  THR60      -0.2211
     14  CG2       32.1080   55.5540   33.0100 C.3    60  THR60       0.0376
     15  N         34.5220   53.0430   34.2900 N.am   61  LYS61      -0.1979
     16  CA        35.9900   53.0050   34.1980 C.3    61  LYS61       0.1596
     17  C         36.4720   51.7410   33.4910 C.2    61  LYS61       0.2287
     18  O         37.5000   51.7720   32.8140 O.2    61  LYS61      -0.2864
     19  CB        36.6220   53.0750   35.5930 C.3    61  LYS61       0.0298
     20  CG        36.7500   54.4700   36.1790 C.3    61  LYS61       0.0038
     21  CD        36.9710   54.4070   37.7040 C.3    61  LYS61       0.0206
     22  CE        38.3760   54.0510   38.1340 C.3    61  LYS61       0.1093
     23  NZ        38.5070   53.9850   39.6160 N.3    61  LYS61      -0.1314
     24  N         37.4770   53.8920   27.8790 N.3    66  PHE66      -0.1227
     25  CA        36.9900   55.0130   28.6930 C.3    66  PHE66       0.1736
     26  C         38.1180   55.8280   29.3400 C.2    66  PHE66       0.2595
     27  O         38.0370   57.0510   29.3760 O.2    66  PHE66      -0.2718
     28  CB        35.9480   54.5770   29.7460 C.3    66  PHE66       0.0547
     29  CG        35.2730   55.7570   30.4190 C.ar   66  PHE66      -0.0202
     30  CD1       34.2100   56.4110   29.8100 C.ar   66  PHE66      -0.0042
     31  CD2       35.7420   56.2520   31.6310 C.ar   66  PHE66      -0.0042
     32  CE1       33.6250   57.5320   30.4030 C.ar   66  PHE66      -0.0003
     33  CE2       35.1650   57.3820   32.2120 C.ar   66  PHE66      -0.0003
     34  CZ        34.1090   58.0130   31.5940 C.ar   66  PHE66      -0.0000
     35  N         39.1500   55.1560   29.8330 N.am   67  GLN67      -0.1979
     36  CA        40.2760   55.7880   30.5190 C.3    67  GLN67       0.1601
     37  C         41.1980   56.5810   29.5690 C.2    67  GLN67       0.2287
     38  O         41.9560   57.4330   30.0400 O.2    67  GLN67      -0.2864
     39  CB        41.0540   54.7510   31.3520 C.3    67  GLN67       0.0394
     40  CG        40.1730   53.9380   32.3240 C.3    67  GLN67       0.0908
     41  CD        40.0980   54.5260   33.7130 C.2    67  GLN67       0.2608
     42  OE1       39.6010   55.6410   33.9330 O.2    67  GLN67      -0.2717
     43  NE2       40.5500   53.7550   34.6910 N.am   67  GLN67      -0.0878
     44  N         39.7600   63.8380   30.3010 N.3    71  HIS71      -0.1241
     45  CA        39.2610   63.8260   31.6770 C.3    71  HIS71       0.1621
     46  C         38.0260   64.6780   31.9020 C.2    71  HIS71       0.2264
     47  O         37.1760   64.2810   32.6980 O.2    71  HIS71      -0.2867
     48  CB        40.3690   64.1800   32.6720 C.3    71  HIS71       0.0745
     49  CG        41.3690   63.0730   32.8560 C.ar   71  HIS71       0.0817
     50  ND1       42.1700   63.0070   33.9820 N.ar   71  HIS71      -0.2268
     51  CD2       41.6600   62.0160   32.0550 C.ar   71  HIS71       0.1154
     52  CE1       42.9240   61.9270   33.8260 C.ar   71  HIS71       0.1986
     53  NE2       42.6480   61.2960   32.6830 N.ar   71  HIS71      -0.2212
     54  N         35.2140   62.7420   30.3540 N.3    74  GLN74      -0.1231
     55  CA        34.9190   61.6160   31.2450 C.3    74  GLN74       0.1698
     56  C         33.8770   62.0340   32.3020 C.2    74  GLN74       0.2592
     57  O         32.9360   61.2810   32.5610 O.2    74  GLN74      -0.2718
     58  CB        36.2000   61.1420   31.9500 C.3    74  GLN74       0.0381
     59  CG        37.1540   60.3150   31.0920 C.3    74  GLN74       0.0905
     60  CD        38.2620   59.6810   31.9060 C.2    74  GLN74       0.2608
     61  OE1       38.3590   59.8330   33.1240 O.2    74  GLN74      -0.2717
     62  NE2       39.1430   58.9640   31.2530 N.am   74  GLN74      -0.0878
     63  N         34.0310   63.2440   32.8870 N.am   75  ILE75      -0.1980
     64  CA        33.1050   63.7770   33.8920 C.3    75  ILE75       0.1595
     65  C         31.7570   64.0950   33.2390 C.2    75  ILE75       0.2287
     66  O         30.7220   63.7420   33.8030 O.2    75  ILE75      -0.2864
     67  CB        33.7090   64.9830   34.6870 C.3    75  ILE75       0.0276
     68  CG1       34.8860   64.5330   35.5670 C.3    75  ILE75       0.0022
     69  CG2       32.6380   65.6800   35.5490 C.3    75  ILE75       0.0022
     70  CD1       35.9320   65.5830   35.8050 C.3    75  ILE75       0.0001
     71  N         29.6830   60.8700   32.6430 N.3    78  LEU78      -0.1245
     72  CA        29.1840   60.3930   33.9320 C.3    78  LEU78       0.1561
     73  C         28.0310   61.2450   34.4190 C.2    78  LEU78       0.2260
     74  O         26.9800   60.7080   34.7810 O.2    78  LEU78      -0.2867
     75  CB        30.3000   60.4140   34.9710 C.3    78  LEU78       0.0270
     76  CG        31.1230   59.1510   35.1210 C.3    78  LEU78       0.0019
     77  CD1       32.1550   59.3520   36.1930 C.3    78  LEU78       0.0001
     78  CD2       30.2370   57.9170   35.4650 C.3    78  LEU78       0.0001
@<TRIPOS>BOND
     1    24    25    1
     2    25    26    1
     3    25    28    1
     4    26    27    2
     5    26    35   am
     6    37    38    2
     7    37    36    1
     8    28    29    1
     9    30    32   ar
    10    30    29   ar
    11    35    36    1
    12    44    45    1
    13    54    55    1
    14    32    34   ar
    15    29    31   ar
    16    36    39    1
    17    59    60    1
    18    59    58    1
    19    55    58    1
    20    55    56    1
    21    62    60   am
    22    39    40    1
    23    34    33   ar
    24    31    33   ar
    25    45    46    1
    26    45    48    1
    27    46    47    2
    28    60    61    2
    29    51    53   ar
    30    51    49   ar
    31    11    10    2
    32    56    57    2
    33    56    63   am
    34    40    41    1
    35    71    72    1
    36    48    49    1
    37    53    52   ar
    38    18    17    2
    39    49    50   ar
    40    63    64    1
    41    14    12    1
    42    10     9    1
    43    10    15   am
    44    65    66    2
    45    65    64    1
    46     9    12    1
    47     9     8    1
    48    17    16    1
    49    41    42    2
    50    41    43   am
    51    52    50   ar
    52    64    67    1
    53    12    13    1
    54    72    73    1
    55    72    75    1
    56    16    15    1
    57    16    19    1
    58    73    74    2
    59    67    69    1
    60    67    68    1
    61    75    76    1
    62    76    78    1
    63    76    77    1
    64    68    70    1
    65    19    20    1
    66    20    21    1
    67     4     3    2
    68    21    22    1
    69     3     2    1
    70     2     1    1
    71     2     5    1
    72    22    23    1
    73     6     5    1
    74     5     7    1
