@<TRIPOS>MOLECULE
tmp/5q0sA01.pdb
 251 240 0 0 0
SMALL
GASTEIGER

@<TRIPOS>ATOM
      1  N          4.5570   14.6560    0.9650 N.3    22  ARG22      -0.1245
      2  CA         4.2330   15.1600    2.2970 C.3    22  ARG22       0.1563
      3  C          3.5590   16.5350    2.1270 C.2    22  ARG22       0.2260
      4  O          4.0580   17.3760    1.3780 O.2    22  ARG22      -0.2867
      5  CB         5.5250   15.2470    3.1320 C.3    22  ARG22       0.0307
      6  CG         5.3230   15.6220    4.5810 C.3    22  ARG22       0.0489
      7  CD         6.6200   15.5340    5.3400 C.3    22  ARG22       0.2205
      8  NE         6.9400   14.1540    5.7200 N.pl3  22  ARG22      -0.0865
      9  CZ         8.0580   13.7920    6.3410 C.cat  22  ARG22       0.5346
     10  NH1        8.9780   14.6990    6.6500 N.pl3  22  ARG22       0.1354
     11  NH2        8.2660   12.5220    6.6590 N.pl3  22  ARG22       0.1354
     12  N          4.6540   20.5490    6.9920 N.3    27  ILE27      -0.1231
     13  CA         5.9840   21.1570    7.0850 C.3    27  ILE27       0.1692
     14  C          5.9330   22.5490    7.7600 C.2    27  ILE27       0.2592
     15  O          6.6670   22.7860    8.7240 O.2    27  ILE27      -0.2718
     16  CB         6.6460   21.1790    5.6670 C.3    27  ILE27       0.0266
     17  CG1        6.6660   19.7600    5.0490 C.3    27  ILE27       0.0019
     18  CG2        8.0620   21.7890    5.6920 C.3    27  ILE27       0.0020
     19  CD1        6.2430   19.6540    3.6220 C.3    27  ILE27       0.0001
     20  N          5.0660   23.4590    7.2480 N.am   28  THR28      -0.1953
     21  CA         4.9080   24.8300    7.7510 C.3    28  THR28       0.1897
     22  C          4.3620   24.8660    9.1750 C.2    28  THR28       0.2313
     23  O          4.7880   25.7310    9.9460 O.2    28  THR28      -0.2863
     24  CB         4.1040   25.7090    6.7930 C.3    28  THR28       0.1794
     25  OG1        2.9090   25.0330    6.3980 O.3    28  THR28      -0.2208
     26  CG2        4.8970   26.1080    5.5750 C.3    28  THR28       0.0378
     27  N          7.4000   24.2130   11.5930 N.3    31  ILE31      -0.1245
     28  CA         8.2920   25.3740   11.6250 C.3    31  ILE31       0.1561
     29  C          7.6720   26.5220   12.4160 C.2    31  ILE31       0.2260
     30  O          8.3440   27.0860   13.2800 O.2    31  ILE31      -0.2867
     31  CB         8.7600   25.7940   10.1970 C.3    31  ILE31       0.0252
     32  CG1        9.4970   24.6330    9.4810 C.3    31  ILE31       0.0019
     33  CG2        9.6370   27.0620   10.2250 C.3    31  ILE31       0.0019
     34  CD1        9.5200   24.7260    7.9440 C.3    31  ILE31       0.0001
     35  N         16.8760   21.7810   13.8270 N.3    41  ASN41      -0.1240
     36  CA        16.4970   22.1300   12.4540 C.3    41  ASN41       0.1653
     37  C         17.2470   21.3290   11.4100 C.2    41  ASN41       0.2266
     38  O         16.6340   20.8810   10.4330 O.2    41  ASN41      -0.2867
     39  CB        16.6590   23.6230   12.2000 C.3    41  ASN41       0.1155
     40  CG        15.5180   24.4520   12.7250 C.2    41  ASN41       0.2627
     41  OD1       14.3450   24.0450   12.6900 O.2    41  ASN41      -0.2716
     42  ND2       15.8420   25.6460   13.1970 N.am   41  ASN41      -0.0877
     43  N         15.6150   18.0880   11.3300 N.3    44  ILE44      -0.1231
     44  CA        14.3060   18.2320   10.6740 C.3    44  ILE44       0.1692
     45  C         14.5450   18.2030    9.1590 C.2    44  ILE44       0.2591
     46  O         13.8560   17.4550    8.4630 O.2    44  ILE44      -0.2718
     47  CB        13.5440   19.5260   11.1650 C.3    44  ILE44       0.0266
     48  CG1       12.9790   19.3370   12.5850 C.3    44  ILE44       0.0019
     49  CG2       12.4280   19.9640   10.1980 C.3    44  ILE44       0.0020
     50  CD1       12.7720   20.6100   13.3980 C.3    44  ILE44       0.0001
     51  N         15.5790   18.9620    8.6760 N.am   45  LEU45      -0.1980
     52  CA        15.9930   19.0620    7.2720 C.3    45  LEU45       0.1596
     53  C         16.3620   17.7150    6.6550 C.2    45  LEU45       0.2287
     54  O         15.8840   17.4130    5.5680 O.2    45  LEU45      -0.2864
     55  CB        17.1500   20.0690    7.1130 C.3    45  LEU45       0.0297
     56  CG        17.8000   20.2020    5.7110 C.3    45  LEU45       0.0022
     57  CD1       16.9390   20.9920    4.7740 C.3    45  LEU45       0.0001
     58  CD2       19.1520   20.8680    5.8000 C.3    45  LEU45       0.0001
     59  N         13.3190   15.4640    6.4340 N.3    48  MET48      -0.1230
     60  CA        12.4780   16.0400    5.3740 C.3    48  MET48       0.1702
     61  C         13.0150   15.6400    4.0180 C.2    48  MET48       0.2592
     62  O         12.2660   15.1290    3.1820 O.2    48  MET48      -0.2718
     63  CB        12.4330   17.5830    5.4670 C.3    48  MET48       0.0401
     64  CG        11.4250   18.1150    6.4710 C.3    48  MET48       0.0596
     65  SD         9.6950   17.7510    6.1160 S.3    48  MET48      -0.1393
     66  CE         9.5910   18.3300    4.4940 C.3    48  MET48       0.0692
     67  N         14.3280   15.8530    3.8180 N.am   49  ALA49      -0.1980
     68  CA        15.0290   15.5450    2.5820 C.3    49  ALA49       0.1597
     69  C         15.0930   14.0630    2.2570 C.2    49  ALA49       0.2287
     70  O         15.0390   13.7260    1.0780 O.2    49  ALA49      -0.2864
     71  CB        16.4100   16.1490    2.6040 C.3    49  ALA49       0.0319
     72  N         11.5880   13.1240    1.0700 N.3    52  HIS52      -0.1241
     73  CA        11.4760   13.7380   -0.2430 C.3    52  HIS52       0.1621
     74  C         12.0870   12.8750   -1.3440 C.2    52  HIS52       0.2264
     75  O         11.4390   12.6580   -2.3800 O.2    52  HIS52      -0.2867
     76  CB        12.1080   15.1490   -0.2550 C.3    52  HIS52       0.0745
     77  CG        12.0390   15.8020   -1.6030 C.ar   52  HIS52       0.0817
     78  ND1       10.8650   16.3860   -2.0610 N.ar   52  HIS52      -0.2268
     79  CD2       12.9750   15.8800   -2.5790 C.ar   52  HIS52       0.1154
     80  CE1       11.1310   16.8350   -3.2750 C.ar   52  HIS52       0.1986
     81  NE2       12.3770   16.5350   -3.6450 N.ar   52  HIS52      -0.2212
     82  N         13.9410   19.3080   -4.6940 N.3    86  MET86      -0.1230
     83  CA        13.7050   19.6740   -3.3000 C.3    86  MET86       0.1702
     84  C         13.5130   21.1780   -3.1480 C.2    86  MET86       0.2592
     85  O         12.5820   21.5950   -2.4550 O.2    86  MET86      -0.2718
     86  CB        14.8200   19.1480   -2.3860 C.3    86  MET86       0.0401
     87  CG        14.6960   19.6450   -0.9750 C.3    86  MET86       0.0596
     88  SD        16.2180   20.0300   -0.0720 S.3    86  MET86      -0.1393
     89  CE        17.1380   20.8810   -1.2830 C.3    86  MET86       0.0692
     90  N         14.3680   21.9870   -3.8060 N.am   87  PHE87      -0.1976
     91  CA        14.2600   23.4390   -3.7500 C.3    87  PHE87       0.1639
     92  C         13.0170   23.9520   -4.4610 C.2    87  PHE87       0.2290
     93  O         12.4200   24.9220   -4.0000 O.2    87  PHE87      -0.2864
     94  CB        15.5280   24.1260   -4.2710 C.3    87  PHE87       0.0560
     95  CG        16.6660   24.1460   -3.2790 C.ar   87  PHE87      -0.0200
     96  CD1       16.5560   24.8500   -2.0820 C.ar   87  PHE87      -0.0042
     97  CD2       17.8600   23.4970   -3.5550 C.ar   87  PHE87      -0.0042
     98  CE1       17.6070   24.8750   -1.1690 C.ar   87  PHE87      -0.0003
     99  CE2       18.9270   23.5450   -2.6480 C.ar   87  PHE87      -0.0003
    100  CZ        18.7850   24.2170   -1.4530 C.ar   87  PHE87      -0.0000
    101  N         10.1690   22.3020   -4.6630 N.3    89  ARG89      -0.1231
    102  CA         9.1360   21.8960   -3.6990 C.3    89  ARG89       0.1694
    103  C          9.0890   22.8400   -2.4990 C.2    89  ARG89       0.2592
    104  O          7.9950   23.1780   -2.0410 O.2    89  ARG89      -0.2718
    105  CB         9.3530   20.4310   -3.2440 C.3    89  ARG89       0.0321
    106  CG         8.2980   19.8570   -2.2970 C.3    89  ARG89       0.0489
    107  CD         6.8640   20.0690   -2.7650 C.3    89  ARG89       0.2205
    108  NE         5.9010   19.4210   -1.8810 N.pl3  89  ARG89      -0.0865
    109  CZ         4.5870   19.4420   -2.0660 C.cat  89  ARG89       0.5346
    110  NH1        4.0650   20.1000   -3.0940 N.pl3  89  ARG89       0.1354
    111  NH2        3.7820   18.8050   -1.2250 N.pl3  89  ARG89       0.1354
    112  N         10.2730   23.2740   -1.9960 N.am   90  SER90      -0.1952
    113  CA        10.4230   24.2130   -0.8720 C.3    90  SER90       0.1924
    114  C          9.9020   25.5810   -1.2840 C.2    90  SER90       0.2314
    115  O          9.2400   26.2440   -0.4850 O.2    90  SER90      -0.2863
    116  CB        11.8760   24.2920   -0.4220 C.3    90  SER90       0.2116
    117  OG        12.3000   23.0660    0.1490 O.3    90  SER90      -0.2180
    118  N          5.9720   25.2320   -1.3460 N.3    93  ILE93      -0.1231
    119  CA         5.5180   25.2870    0.0530 C.3    93  ILE93       0.1692
    120  C          5.5980   26.7100    0.5790 C.2    93  ILE93       0.2592
    121  O          4.6240   27.1890    1.1500 O.2    93  ILE93      -0.2718
    122  CB         6.2590   24.2540    0.9550 C.3    93  ILE93       0.0266
    123  CG1        5.8930   22.8100    0.5550 C.3    93  ILE93       0.0019
    124  CG2        5.9480   24.4790    2.4350 C.3    93  ILE93       0.0020
    125  CD1        6.9600   21.8190    0.7590 C.3    93  ILE93       0.0001
    126  N          6.7260   27.4040    0.3210 N.am   94  PHE94      -0.1976
    127  CA         6.9660   28.7920    0.7210 C.3    94  PHE94       0.1639
    128  C          5.9000   29.7480    0.2320 C.2    94  PHE94       0.2290
    129  O          5.5120   30.6490    0.9710 O.2    94  PHE94      -0.2864
    130  CB         8.3380   29.2590    0.2060 C.3    94  PHE94       0.0560
    131  CG         8.8180   30.5780    0.7630 C.ar   94  PHE94      -0.0200
    132  CD1        9.4660   30.6380    1.9920 C.ar   94  PHE94      -0.0042
    133  CD2        8.6520   31.7580    0.0440 C.ar   94  PHE94      -0.0042
    134  CE1        9.9100   31.8610    2.5060 C.ar   94  PHE94      -0.0003
    135  CE2        9.1060   32.9800    0.5540 C.ar   94  PHE94      -0.0003
    136  CZ         9.7390   33.0210    1.7770 C.ar   94  PHE94      -0.0000
    137  N          7.4130   32.3710    9.0570 N.3   106  LEU106     -0.1245
    138  CA         8.0010   31.2110    8.3890 C.3   106  LEU106      0.1561
    139  C          9.3730   31.5840    7.8050 C.2   106  LEU106      0.2260
    140  O         10.3670   30.9030    8.0800 O.2   106  LEU106     -0.2867
    141  CB         7.0590   30.7120    7.2840 C.3   106  LEU106      0.0270
    142  CG         7.5640   29.5530    6.4040 C.3   106  LEU106      0.0019
    143  CD1        7.6200   28.2310    7.1760 C.3   106  LEU106      0.0001
    144  CD2        6.7390   29.4350    5.1450 C.3   106  LEU106      0.0001
    145  N         11.8770   32.2910   10.5930 N.3   109  ARG109     -0.1231
    146  CA        12.2790   31.0270   11.2160 C.3   109  ARG109      0.1694
    147  C         13.3240   30.3180   10.3590 C.2   109  ARG109      0.2591
    148  O         14.3560   29.9460   10.9020 O.2   109  ARG109     -0.2718
    149  CB        11.0580   30.1310   11.5240 C.3   109  ARG109      0.0321
    150  CG        10.2060   30.6120   12.7060 C.3   109  ARG109      0.0489
    151  CD        10.5550   29.9370   14.0260 C.3   109  ARG109      0.2205
    152  NE         9.8560   30.5370   15.1660 N.pl3 109  ARG109     -0.0865
    153  CZ         8.6060   30.2450   15.5200 C.cat 109  ARG109      0.5346
    154  NH1        8.0600   30.8180   16.5830 N.pl3 109  ARG109      0.1354
    155  NH2        7.8950   29.3820   14.8130 N.pl3 109  ARG109      0.1354
    156  N         13.0870   30.1860    9.0200 N.am  110  ILE110     -0.1980
    157  CA        14.0300   29.5900    8.0430 C.3   110  ILE110      0.1595
    158  C         15.3410   30.4010    8.0130 C.2   110  ILE110      0.2287
    159  O         16.4110   29.8070    8.0340 O.2   110  ILE110     -0.2864
    160  CB        13.4030   29.4110    6.6160 C.3   110  ILE110      0.0276
    161  CG1       12.1400   28.5180    6.6410 C.3   110  ILE110      0.0022
    162  CG2       14.4240   28.8420    5.6130 C.3   110  ILE110      0.0022
    163  CD1       11.1810   28.7990    5.5190 C.3   110  ILE110      0.0001
    164  N         17.5320   29.2610   10.8840 N.3   113  SER113     -0.1217
    165  CA        17.5050   27.8030   11.0510 C.3   113  SER113      0.1889
    166  C         18.8910   27.1800   11.3230 C.2   113  SER113      0.2288
    167  O         18.9600   26.0520   11.8190 O.2   113  SER113     -0.2866
    168  CB        16.8220   27.1360    9.8600 C.3   113  SER113      0.2089
    169  OG        17.5120   27.3750    8.6450 O.3   113  SER113     -0.2183
    170  N         21.5760   27.7610    8.8120 N.3   115  ILE115     -0.1245
    171  CA        22.2250   27.9820    7.5180 C.3   115  ILE115      0.1561
    172  C         22.8800   29.3800    7.5130 C.2   115  ILE115      0.2260
    173  O         22.3500   30.3050    8.1430 O.2   115  ILE115     -0.2867
    174  CB        21.1900   27.7720    6.3770 C.3   115  ILE115      0.0252
    175  CG1       21.8050   27.9940    4.9720 C.3   115  ILE115      0.0019
    176  CG2       19.9250   28.6160    6.6050 C.3   115  ILE115      0.0019
    177  CD1       20.9720   27.4690    3.8120 C.3   115  ILE115      0.0001
    178  N         18.6680   31.9590   -1.9250 N.3   123  MET123     -0.1245
    179  CA        17.5600   31.0430   -1.6520 C.3   123  MET123      0.1570
    180  C         16.2240   31.7530   -1.5580 C.2   123  MET123      0.2261
    181  O         15.2530   31.2760   -2.1340 O.2   123  MET123     -0.2867
    182  CB        17.8490   30.2160   -0.3850 C.3   123  MET123      0.0387
    183  CG        16.8970   29.0510   -0.1620 C.3   123  MET123      0.0595
    184  SD        16.9950   28.4030    1.5250 S.3   123  MET123     -0.1393
    185  CE        16.2090   29.6500    2.4110 C.3   123  MET123      0.0692
    186  N         12.8820   31.7320   -4.2390 N.3   127  TYR127     -0.1241
    187  CA        11.5540   31.4370   -3.6840 C.3   127  TYR127      0.1605
    188  C         10.5510   32.5200   -4.0530 C.2   127  TYR127      0.2264
    189  O          9.4320   32.2160   -4.4750 O.2   127  TYR127     -0.2867
    190  CB        11.6070   31.2910   -2.1440 C.3   127  TYR127      0.0534
    191  CG        12.2800   30.0450   -1.6080 C.ar  127  TYR127     -0.0201
    192  CD1       12.7470   29.0560   -2.4660 C.ar  127  TYR127     -0.0009
    193  CD2       12.4420   29.8500   -0.2390 C.ar  127  TYR127     -0.0009
    194  CE1       13.3660   27.9070   -1.9780 C.ar  127  TYR127      0.0417
    195  CE2       13.0860   28.7180    0.2600 C.ar  127  TYR127      0.0417
    196  CZ        13.5410   27.7430   -0.6150 C.ar  127  TYR127      0.1957
    197  OH        14.2110   26.6300   -0.1560 O.3   127  TYR127     -0.2866
    198  N         25.0150   23.1520   -2.9410 N.3   205  HIS205     -0.1241
    199  CA        24.2830   22.3400   -1.9590 C.3   205  HIS205      0.1621
    200  C         25.2030   21.7350   -0.8760 C.2   205  HIS205      0.2264
    201  O         24.8790   21.8380    0.3060 O.2   205  HIS205     -0.2867
    202  CB        23.3650   21.2710   -2.6190 C.3   205  HIS205      0.0745
    203  CG        24.0380   20.0120   -3.0850 C.ar  205  HIS205      0.0817
    204  ND1       24.5100   19.8800   -4.3800 N.ar  205  HIS205     -0.2268
    205  CD2       24.2650   18.8540   -2.4220 C.ar  205  HIS205      0.1154
    206  CE1       25.0250   18.6630   -4.4570 C.ar  205  HIS205      0.1986
    207  NE2       24.9130   18.0120   -3.3010 N.ar  205  HIS205     -0.2212
    208  N         26.3450   24.5160    1.4170 N.3   208  MET208     -0.1230
    209  CA        25.1300   25.0040    2.0770 C.3   208  MET208      0.1702
    210  C         24.8290   24.1890    3.3280 C.2   208  MET208      0.2592
    211  O         24.5200   24.7700    4.3690 O.2   208  MET208     -0.2718
    212  CB        23.9480   24.9180    1.1000 C.3   208  MET208      0.0401
    213  CG        23.0040   26.0740    1.1790 C.3   208  MET208      0.0596
    214  SD        21.6700   26.0700   -0.0640 S.3   208  MET208     -0.1393
    215  CE        22.5720   26.5720   -1.5130 C.3   208  MET208      0.0692
    216  N         24.9550   22.8460    3.2240 N.am  209  LEU209     -0.1980
    217  CA        24.7110   21.8790    4.2960 C.3   209  LEU209      0.1596
    218  C         25.8330   21.8360    5.3060 C.2   209  LEU209      0.2287
    219  O         25.5550   21.7490    6.4920 O.2   209  LEU209     -0.2864
    220  CB        24.5270   20.4770    3.7150 C.3   209  LEU209      0.0297
    221  CG        23.3840   20.2670    2.7350 C.3   209  LEU209      0.0022
    222  CD1       23.6900   19.0860    1.8370 C.3   209  LEU209      0.0001
    223  CD2       22.0550   20.1090    3.4650 C.3   209  LEU209      0.0001
    224  N         26.1470   24.8600    7.9030 N.3   212  TRP212     -0.1241
    225  CA        25.1270   24.8910    8.9460 C.3   212  TRP212      0.1605
    226  C         25.7900   24.9770   10.3250 C.2   212  TRP212      0.2264
    227  O         26.7420   24.2360   10.5880 O.2   212  TRP212     -0.2867
    228  CB        24.2550   23.6410    8.8480 C.3   212  TRP212      0.0550
    229  CG        22.8520   23.8280    9.3330 C.ar  212  TRP212      0.0003
    230  CD1       22.4180   23.8030   10.6240 C.ar  212  TRP212      0.0946
    231  CD2       21.6930   24.0380    8.5220 C.ar  212  TRP212      0.0152
    232  NE1       21.0590   23.9910   10.6680 N.ar  212  TRP212     -0.2442
    233  CE2       20.5880   24.1360    9.3910 C.ar  212  TRP212      0.0810
    234  CE3       21.4800   24.1520    7.1350 C.ar  212  TRP212      0.0012
    235  CZ2       19.2880   24.3520    8.9240 C.ar  212  TRP212      0.0191
    236  CZ3       20.1890   24.3410    6.6700 C.ar  212  TRP212      0.0001
    237  CH2       19.1120   24.4580    7.5590 C.ar  212  TRP212      0.0015
    238  N         23.2600   13.6120   -2.5530 N.3   227  TRP227     -0.1241
    239  CA        24.0130   14.8170   -2.1910 C.3   227  TRP227      0.1605
    240  C         25.4970   14.4580   -2.1260 C.2   227  TRP227      0.2264
    241  O         25.8520   13.3200   -1.8070 O.2   227  TRP227     -0.2867
    242  CB        23.5810   15.3470   -0.8170 C.3   227  TRP227      0.0550
    243  CG        22.1800   15.8720   -0.7240 C.ar  227  TRP227      0.0003
    244  CD1       21.3230   16.1330   -1.7520 C.ar  227  TRP227      0.0946
    245  CD2       21.5000   16.2630    0.4710 C.ar  227  TRP227      0.0152
    246  NE1       20.1380   16.6320   -1.2680 N.ar  227  TRP227     -0.2442
    247  CE2       20.2210   16.7330    0.0920 C.ar  227  TRP227      0.0810
    248  CE3       21.8390   16.2430    1.8370 C.ar  227  TRP227      0.0012
    249  CZ2       19.3060   17.2390    1.0190 C.ar  227  TRP227      0.0191
    250  CZ3       20.9200   16.7190    2.7600 C.ar  227  TRP227      0.0001
    251  CH2       19.6660   17.1990    2.3520 C.ar  227  TRP227      0.0015
@<TRIPOS>BOND
     1    82    83    1
     2   101   102    1
     3   189   188    2
     4    92    93    2
     5    92    91    1
     6   206   204   ar
     7   206   207   ar
     8   204   203   ar
     9    94    91    1
    10    94    95    1
    11   186   187    1
    12   188   187    1
    13    90    91    1
    14    90    84   am
    15   102   105    1
    16   102   103    1
    17   187   190    1
    18    81    80   ar
    19    81    79   ar
    20    97    95   ar
    21    97    99   ar
    22   207   205   ar
    23    83    84    1
    24    83    86    1
    25    95    96   ar
    26    80    78   ar
    27   105   106    1
    28    84    85    2
    29   110   109    1
    30   203   202    1
    31   203   205   ar
    32   198   199    1
    33   107   106    1
    34   107   108    1
    35    99   100   ar
    36   202   199    1
    37    79    77   ar
    38   238   239    1
    39   103   104    2
    40   103   112   am
    41   192   194   ar
    42   192   191   ar
    43    86    87    1
    44    75    74    2
    45   239   240    1
    46   239   242    1
    47   190   191    1
    48   181   180    2
    49   240   241    2
    50    96    98   ar
    51   109   108    2
    52   109   111    1
    53    78    77   ar
    54   112   113    1
    55   194   196   ar
    56   199   200    1
    57   178   179    1
    58   244   246   ar
    59   244   243   ar
    60   179   180    1
    61   179   182    1
    62   191   193   ar
    63    77    76    1
    64   215   214    1
    65   100    98   ar
    66   118   119    1
    67    74    73    1
    68   114   113    1
    69   114   115    2
    70    89    88    1
    71   246   247   ar
    72    87    88    1
    73   200   201    2
    74   113   116    1
    75   242   243    1
    76   243   245   ar
    77   196   197    1
    78   196   195   ar
    79   116   117    1
    80   182   183    1
    81    76    73    1
    82    73    72    1
    83   193   195   ar
    84   183   184    1
    85   214   213    1
    86   133   135   ar
    87   133   131   ar
    88   119   120    1
    89   119   122    1
    90   247   245   ar
    91   247   249   ar
    92   130   127    1
    93   130   131    1
    94   128   127    1
    95   128   129    2
    96   126   120   am
    97   126   127    1
    98   245   248   ar
    99   135   136   ar
   100   123   125    1
   101   123   122    1
   102   120   121    2
   103   131   132   ar
   104   122   124    1
   105     1     2    1
   106   249   251   ar
   107    70    69    2
   108   212   213    1
   109   212   209    1
   110     4     3    2
   111   208   209    1
   112   184   185    1
   113   136   134   ar
   114   222   221    1
   115   248   250   ar
   116   132   134   ar
   117   209   210    1
   118     3     2    1
   119    69    68    1
   120     2     5    1
   121   251   250   ar
   122    68    71    1
   123    68    67    1
   124   221   223    1
   125   221   220    1
   126     5     6    1
   127    62    61    2
   128   216   210   am
   129   216   217    1
   130   210   211    2
   131    19    17    1
   132   220   217    1
   133   177   175    1
   134    67    61   am
   135    61    60    1
   136   217   218    1
   137    66    65    1
   138     6     7    1
   139    57    56    1
   140   175   174    1
   141    17    16    1
   142   144   142    1
   143   218   219    2
   144     7     8    1
   145    60    63    1
   146    60    59    1
   147    63    64    1
   148   163   161    1
   149    54    53    2
   150    26    24    1
   151   162   160    1
   152    16    18    1
   153    16    13    1
   154    56    58    1
   155    56    55    1
   156     8     9    2
   157    65    64    1
   158     9    10    1
   159     9    11    1
   160   174   176    1
   161   174   171    1
   162    25    24    1
   163   142   143    1
   164   142   141    1
   165   160   161    1
   166   160   157    1
   167    53    52    1
   168   236   234   ar
   169   236   237   ar
   170    24    21    1
   171    12    13    1
   172    13    14    1
   173    55    52    1
   174   234   231   ar
   175    20    21    1
   176    20    14   am
   177    52    51    1
   178   141   138    1
   179   172   171    1
   180   172   173    2
   181   171   170    1
   182   237   235   ar
   183    21    22    1
   184    14    15    2
   185   139   140    2
   186   139   138    1
   187   224   225    1
   188    34    32    1
   189   158   159    2
   190   158   157    1
   191   157   156    1
   192   138   137    1
   193    46    45    2
   194   231   229   ar
   195   231   233   ar
   196   169   168    1
   197    51    45   am
   198   228   225    1
   199   228   229    1
   200   235   233   ar
   201   225   226    1
   202   156   147   am
   203    45    44    1
   204    22    23    2
   205   229   230   ar
   206   233   232   ar
   207    32    31    1
   208   168   165    1
   209    31    33    1
   210    31    28    1
   211    49    47    1
   212   226   227    2
   213   147   148    2
   214   147   146    1
   215    38    37    2
   216   145   146    1
   217   230   232   ar
   218    44    47    1
   219    44    43    1
   220   164   165    1
   221   165   166    1
   222    47    48    1
   223   146   149    1
   224   166   167    2
   225    37    36    1
   226   149   150    1
   227    27    28    1
   228    28    29    1
   229    39    36    1
   230    39    40    1
   231    29    30    2
   232    36    35    1
   233    48    50    1
   234    41    40    2
   235   150   151    1
   236    40    42   am
   237   151   152    1
   238   155   153    1
   239   152   153    2
   240   153   154    1
