@<TRIPOS>MOLECULE
tmp/5q0tA01.pdb
 223 213 0 0 0
SMALL
GASTEIGER

@<TRIPOS>ATOM
      1  N         37.4540   22.1620   -4.6720 N.3    23  MET23      -0.1245
      2  CA        38.6140   22.1700   -3.7740 C.3    23  MET23       0.1570
      3  C         39.1400   23.6090   -3.5790 C.2    23  MET23       0.2261
      4  O         39.4280   24.2910   -4.5710 O.2    23  MET23      -0.2867
      5  CB        39.7260   21.2170   -4.2700 C.3    23  MET23       0.0387
      6  CG        40.8460   21.0130   -3.2540 C.3    23  MET23       0.0595
      7  SD        42.0700   19.7460   -3.6830 S.3    23  MET23      -0.1393
      8  CE        43.0200   20.6020   -4.9060 C.3    23  MET23       0.0692
      9  N         50.1530   15.0960    7.5880 N.3    42  PHE42      -0.1241
     10  CA        48.9770   14.6620    8.3550 C.3    42  PHE42       0.1605
     11  C         48.0510   15.8490    8.5890 C.2    42  PHE42       0.2264
     12  O         46.8310   15.6780    8.5700 O.2    42  PHE42      -0.2867
     13  CB        49.3650   14.0240    9.7030 C.3    42  PHE42       0.0534
     14  CG        48.2390   13.2590   10.3650 C.ar   42  PHE42      -0.0203
     15  CD1       47.3840   13.8860   11.2660 C.ar   42  PHE42      -0.0042
     16  CD2       48.0250   11.9150   10.0770 C.ar   42  PHE42      -0.0042
     17  CE1       46.3320   13.1870   11.8550 C.ar   42  PHE42      -0.0003
     18  CE2       46.9780   11.2110   10.6770 C.ar   42  PHE42      -0.0003
     19  CZ        46.1460   11.8490   11.5690 C.ar   42  PHE42      -0.0000
     20  N         45.9770   16.5240    5.2860 N.3    45  LEU45      -0.1231
     21  CA        44.8520   15.5930    5.1640 C.3    45  LEU45       0.1693
     22  C         43.7110   15.9760    6.1220 C.2    45  LEU45       0.2592
     23  O         42.5450   15.8940    5.7440 O.2    45  LEU45      -0.2718
     24  CB        45.2790   14.1350    5.3930 C.3    45  LEU45       0.0284
     25  CG        46.1310   13.4590    4.3010 C.3    45  LEU45       0.0019
     26  CD1       46.5950   12.0770    4.7500 C.3    45  LEU45       0.0001
     27  CD2       45.3710   13.3490    2.9880 C.3    45  LEU45       0.0001
     28  N         44.0580   16.4530    7.3340 N.am   46  THR46      -0.1953
     29  CA        43.1100   16.9380    8.3410 C.3    46  THR46       0.1897
     30  C         42.3170   18.1290    7.7830 C.2    46  THR46       0.2313
     31  O         41.0920   18.1420    7.8920 O.2    46  THR46      -0.2863
     32  CB        43.8570   17.1920    9.6720 C.3    46  THR46       0.1794
     33  OG1       44.2760   15.9250   10.1760 O.3    46  THR46      -0.2208
     34  CG2       42.9910   17.8770   10.7310 C.3    46  THR46       0.0378
     35  N         41.9720   18.9640    4.4690 N.3    48  MET48      -0.1230
     36  CA        41.1820   18.4570    3.3400 C.3    48  MET48       0.1702
     37  C         39.9240   17.7020    3.7840 C.2    48  MET48       0.2592
     38  O         38.8470   17.9570    3.2440 O.2    48  MET48      -0.2718
     39  CB        42.0360   17.5910    2.4110 C.3    48  MET48       0.0401
     40  CG        43.1320   18.3630    1.7050 C.3    48  MET48       0.0596
     41  SD        44.1230   17.2650    0.6770 S.3    48  MET48      -0.1393
     42  CE        43.1900   17.2980   -0.8400 C.3    48  MET48       0.0692
     43  N         40.0510   16.8090    4.7840 N.am   49  ALA49      -0.1980
     44  CA        38.9200   16.0080    5.2870 C.3    49  ALA49       0.1597
     45  C         37.8630   16.8840    5.9690 C.2    49  ALA49       0.2287
     46  O         36.6750   16.6070    5.8340 O.2    49  ALA49      -0.2864
     47  CB        39.4110   14.9150    6.2290 C.3    49  ALA49       0.0319
     48  N         35.9370   18.7560    3.2480 N.3    52  HIS52      -0.1241
     49  CA        35.0250   17.7810    2.6560 C.3    52  HIS52       0.1621
     50  C         33.7080   17.6210    3.4550 C.2    52  HIS52       0.2264
     51  O         32.6460   17.5570    2.8410 O.2    52  HIS52      -0.2867
     52  CB        35.7060   16.4250    2.4080 C.3    52  HIS52       0.0745
     53  CG        34.7140   15.3500    2.0870 C.ar   52  HIS52       0.0817
     54  ND1       34.0560   15.3150    0.8670 N.ar   52  HIS52      -0.2268
     55  CD2       34.2050   14.3850    2.8850 C.ar   52  HIS52       0.1154
     56  CE1       33.2120   14.3040    0.9460 C.ar   52  HIS52       0.1986
     57  NE2       33.2540   13.7250    2.1460 N.ar   52  HIS52      -0.2212
     58  N         33.8170   10.4920    1.9310 N.3    86  MET86      -0.1230
     59  CA        35.2070   10.9600    1.8540 C.3    86  MET86       0.1702
     60  C         36.0390   10.0960    0.8690 C.2    86  MET86       0.2592
     61  O         36.7260   10.6540    0.0270 O.2    86  MET86      -0.2718
     62  CB        35.8370   11.0550    3.2700 C.3    86  MET86       0.0401
     63  CG        37.2660   11.6050    3.3050 C.3    86  MET86       0.0596
     64  SD        38.5480   10.4000    2.7650 S.3    86  MET86      -0.1393
     65  CE        38.5320    9.2580    4.1360 C.3    86  MET86       0.0692
     66  N         35.9820    8.7680    0.9790 N.am   87  PHE87      -0.1976
     67  CA        36.7340    7.8680    0.0960 C.3    87  PHE87       0.1639
     68  C         36.2860    7.9440   -1.3770 C.2    87  PHE87       0.2290
     69  O         37.1190    7.7870   -2.2760 O.2    87  PHE87      -0.2864
     70  CB        36.7050    6.4200    0.6050 C.3    87  PHE87       0.0560
     71  CG        37.6370    6.1230    1.7560 C.ar   87  PHE87      -0.0200
     72  CD1       38.9970    5.9190    1.5390 C.ar   87  PHE87      -0.0042
     73  CD2       37.1510    5.9980    3.0520 C.ar   87  PHE87      -0.0042
     74  CE1       39.8580    5.6490    2.6040 C.ar   87  PHE87      -0.0003
     75  CE2       38.0120    5.7110    4.1160 C.ar   87  PHE87      -0.0003
     76  CZ        39.3570    5.5360    3.8850 C.ar   87  PHE87      -0.0000
     77  N         34.8320   10.6900   -2.8780 N.3    89  ARG89      -0.1231
     78  CA        35.2640   11.9970   -3.3360 C.3    89  ARG89       0.1694
     79  C         36.7980   11.9880   -3.5780 C.2    89  ARG89       0.2592
     80  O         37.2470   12.5570   -4.5690 O.2    89  ARG89      -0.2718
     81  CB        34.8210   13.0760   -2.3250 C.3    89  ARG89       0.0321
     82  CG        35.2530   14.5210   -2.6360 C.3    89  ARG89       0.0489
     83  CD        34.7950   15.0630   -3.9710 C.3    89  ARG89       0.2205
     84  NE        35.4730   16.3300   -4.2480 N.pl3  89  ARG89      -0.0865
     85  CZ        35.2150   17.1210   -5.2850 C.cat  89  ARG89       0.5346
     86  NH1       34.2790   16.7880   -6.1670 N.pl3  89  ARG89       0.1354
     87  NH2       35.8830   18.2570   -5.4410 N.pl3  89  ARG89       0.1354
     88  N         37.5680   11.3140   -2.6930 N.am   90  SER90      -0.1952
     89  CA        39.0340   11.1290   -2.7680 C.3    90  SER90       0.1924
     90  C         39.4140   10.4480   -4.1050 C.2    90  SER90       0.2314
     91  O         40.3230   10.9100   -4.7950 O.2    90  SER90      -0.2863
     92  CB        39.5230   10.2690   -1.6050 C.3    90  SER90       0.2116
     93  OG        39.4520   10.9440   -0.3620 O.3    90  SER90      -0.2180
     94  N         38.7560   13.0770   -7.0130 N.3    93  ILE93      -0.1231
     95  CA        39.8840   14.0240   -7.0480 C.3    93  ILE93       0.1692
     96  C         41.1530   13.3860   -7.6780 C.2    93  ILE93       0.2592
     97  O         41.8100   14.0300   -8.4940 O.2    93  ILE93      -0.2718
     98  CB        40.1780   14.6150   -5.6360 C.3    93  ILE93       0.0266
     99  CG1       39.0210   15.4920   -5.1480 C.3    93  ILE93       0.0019
    100  CG2       41.5040   15.4100   -5.6110 C.3    93  ILE93       0.0020
    101  CD1       38.8900   15.5500   -3.6490 C.3    93  ILE93       0.0001
    102  N         41.4660   12.1260   -7.2950 N.am   94  PHE94      -0.1976
    103  CA        42.6290   11.3600   -7.7560 C.3    94  PHE94       0.1639
    104  C         42.5960   11.0650   -9.2530 C.2    94  PHE94       0.2290
    105  O         43.6360   11.1490   -9.9060 O.2    94  PHE94      -0.2864
    106  CB        42.8150   10.0630   -6.9330 C.3    94  PHE94       0.0560
    107  CG        43.9020    9.1170   -7.4090 C.ar   94  PHE94      -0.0200
    108  CD1       45.2040    9.2270   -6.9300 C.ar   94  PHE94      -0.0042
    109  CD2       43.6230    8.1140   -8.3370 C.ar   94  PHE94      -0.0042
    110  CE1       46.2050    8.3500   -7.3630 C.ar   94  PHE94      -0.0003
    111  CE2       44.6270    7.2320   -8.7670 C.ar   94  PHE94      -0.0003
    112  CZ        45.9060    7.3530   -8.2720 C.ar   94  PHE94      -0.0000
    113  N         42.7810   16.9790  -10.0610 N.3    98  LEU98      -0.1245
    114  CA        44.1660   17.4290   -9.8640 C.3    98  LEU98       0.1561
    115  C         45.0970   17.3320  -11.0690 C.2    98  LEU98       0.2260
    116  O         45.0940   16.2920  -11.7320 O.2    98  LEU98      -0.2867
    117  CB        44.8130   16.6840   -8.7030 C.3    98  LEU98       0.0270
    118  CG        44.5780   17.2160   -7.3210 C.3    98  LEU98       0.0019
    119  CD1       45.0550   16.2250   -6.3510 C.3    98  LEU98       0.0001
    120  CD2       45.3170   18.5300   -7.0840 C.3    98  LEU98       0.0001
    121  N         50.6060   15.3260   -4.0710 N.3   106  LEU106     -0.1245
    122  CA        49.5410   14.9260   -3.1350 C.3   106  LEU106      0.1561
    123  C         49.7140   13.4700   -2.7040 C.2   106  LEU106      0.2260
    124  O         49.6770   13.2050   -1.5040 O.2   106  LEU106     -0.2867
    125  CB        48.1350   15.1700   -3.7100 C.3   106  LEU106      0.0270
    126  CG        46.9320   14.8930   -2.7770 C.3   106  LEU106      0.0019
    127  CD1       47.1000   15.5230   -1.3960 C.3   106  LEU106      0.0001
    128  CD2       45.6790   15.4380   -3.3550 C.3   106  LEU106      0.0001
    129  N         50.1670   11.8720    0.9090 N.3   110  ILE110     -0.1245
    130  CA        49.2570   10.8400    1.4260 C.3   110  ILE110      0.1561
    131  C         50.0900    9.6140    1.8730 C.2   110  ILE110      0.2260
    132  O         49.7920    9.0260    2.9130 O.2   110  ILE110     -0.2867
    133  CB        48.1020   10.4740    0.4230 C.3   110  ILE110      0.0252
    134  CG1       47.1810   11.6870    0.1260 C.3   110  ILE110      0.0019
    135  CG2       47.2470    9.2830    0.9210 C.3   110  ILE110      0.0019
    136  CD1       46.2750   11.5300   -1.1310 C.3   110  ILE110      0.0001
    137  N         50.6400    7.2750    8.1880 N.3   115  ILE115     -0.1245
    138  CA        49.5660    6.2830    8.1180 C.3   115  ILE115      0.1561
    139  C         50.1770    4.9780    7.5920 C.2   115  ILE115      0.2260
    140  O         51.0370    5.0110    6.7070 O.2   115  ILE115     -0.2867
    141  CB        48.3660    6.7960    7.2610 C.3   115  ILE115      0.0252
    142  CG1       47.7090    8.0560    7.9110 C.3   115  ILE115      0.0019
    143  CG2       47.3250    5.6840    7.0350 C.3   115  ILE115      0.0019
    144  CD1       46.6930    8.8650    7.0130 C.3   115  ILE115      0.0001
    145  N         43.4980    1.7640   -0.2400 N.3   123  MET123     -0.1245
    146  CA        43.0080    3.1120   -0.5370 C.3   123  MET123      0.1570
    147  C         43.2950    3.4860   -2.0000 C.2   123  MET123      0.2261
    148  O         42.3790    3.8740   -2.7220 O.2   123  MET123     -0.2867
    149  CB        43.6840    4.1140    0.4080 C.3   123  MET123      0.0387
    150  CG        42.9380    5.4050    0.5760 C.3   123  MET123      0.0595
    151  SD        43.7880    6.5850    1.6600 S.3   123  MET123     -0.1393
    152  CE        43.7360    5.6820    3.2400 C.3   123  MET123      0.0692
    153  N         40.9340    3.8080   -5.4580 N.3   127  TYR127     -0.1241
    154  CA        40.9570    4.9110   -6.4340 C.3   127  TYR127      0.1605
    155  C         41.2110    4.3350   -7.8290 C.2   127  TYR127      0.2264
    156  O         40.4760    4.6680   -8.7530 O.2   127  TYR127     -0.2867
    157  CB        42.0570    5.9590   -6.1390 C.3   127  TYR127      0.0534
    158  CG        42.1210    6.5580   -4.7500 C.ar  127  TYR127     -0.0201
    159  CD1       40.9860    6.6430   -3.9500 C.ar  127  TYR127     -0.0009
    160  CD2       43.3040    7.0970   -4.2600 C.ar  127  TYR127     -0.0009
    161  CE1       41.0480    7.1690   -2.6640 C.ar  127  TYR127      0.0417
    162  CE2       43.3750    7.6410   -2.9810 C.ar  127  TYR127      0.0417
    163  CZ        42.2430    7.6750   -2.1860 C.ar  127  TYR127      0.1957
    164  OH        42.2990    8.2170   -0.9320 O.3   127  TYR127     -0.2866
    165  N         38.9360    2.4380    8.4010 N.3   205  HIS205     -0.1241
    166  CA        39.0000    3.7560    9.0390 C.3   205  HIS205      0.1621
    167  C         38.9980    3.7050   10.5660 C.2   205  HIS205      0.2264
    168  O         39.7920    4.4070   11.1870 O.2   205  HIS205     -0.2867
    169  CB        37.8890    4.6880    8.5210 C.3   205  HIS205      0.0745
    170  CG        38.1150    6.1340    8.8420 C.ar  205  HIS205      0.0817
    171  ND1       38.9010    6.9360    8.0370 N.ar  205  HIS205     -0.2268
    172  CD2       37.6640    6.8680    9.8840 C.ar  205  HIS205      0.1154
    173  CE1       38.8940    8.1290    8.6060 C.ar  205  HIS205      0.1986
    174  NE2       38.1720    8.1330    9.7250 N.ar  205  HIS205     -0.2212
    175  N         42.1930    2.4880   11.6690 N.3   208  MET208     -0.1230
    176  CA        43.2010    3.5220   11.4040 C.3   208  MET208      0.1702
    177  C         43.3870    4.4540   12.6170 C.2   208  MET208      0.2592
    178  O         44.5190    4.8280   12.9330 O.2   208  MET208     -0.2718
    179  CB        42.8540    4.3300   10.1370 C.3   208  MET208      0.0401
    180  CG        43.7530    4.0130    8.9690 C.3   208  MET208      0.0596
    181  SD        43.6910    5.1590    7.5650 S.3   208  MET208     -0.1393
    182  CE        42.3430    4.4600    6.6060 C.3   208  MET208      0.0692
    183  N         42.2790    4.7810   13.3160 N.am  209  LEU209     -0.1980
    184  CA        42.2690    5.6400   14.5070 C.3   209  LEU209      0.1596
    185  C         42.6690    4.8690   15.7730 C.2   209  LEU209      0.2287
    186  O         43.4550    3.9230   15.7250 O.2   209  LEU209     -0.2864
    187  CB        40.8830    6.2970   14.7180 C.3   209  LEU209      0.0297
    188  CG        40.1510    6.8950   13.5040 C.3   209  LEU209      0.0022
    189  CD1       38.7110    7.2110   13.8470 C.3   209  LEU209      0.0001
    190  CD2       40.8430    8.1430   12.9760 C.3   209  LEU209      0.0001
    191  N         42.2280   15.4660   16.2110 N.3   212  PHE212     -0.1241
    192  CA        41.6450   15.9910   14.9850 C.3   212  PHE212      0.1605
    193  C         40.7310   17.1860   15.2230 C.2   212  PHE212      0.2264
    194  O         40.4560   17.5580   16.3710 O.2   212  PHE212     -0.2867
    195  CB        40.8300   14.8800   14.2910 C.3   212  PHE212      0.0534
    196  CG        41.5720   13.6010   13.9860 C.ar  212  PHE212     -0.0203
    197  CD1       41.6960   12.6030   14.9480 C.ar  212  PHE212     -0.0042
    198  CD2       42.0960   13.3690   12.7210 C.ar  212  PHE212     -0.0042
    199  CE1       42.3660   11.4120   14.6590 C.ar  212  PHE212     -0.0003
    200  CE2       42.7500   12.1720   12.4270 C.ar  212  PHE212     -0.0003
    201  CZ        42.8880   11.2040   13.3990 C.ar  212  PHE212     -0.0000
    202  N         35.5340   16.6440   12.4850 N.3   216  LEU216     -0.1245
    203  CA        35.9590   15.2620   12.2900 C.3   216  LEU216      0.1561
    204  C         35.6460   14.3900   13.4950 C.2   216  LEU216      0.2260
    205  O         35.0370   13.3400   13.3130 O.2   216  LEU216     -0.2867
    206  CB        37.4480   15.1700   11.9080 C.3   216  LEU216      0.0270
    207  CG        37.8640   15.8090   10.5800 C.3   216  LEU216      0.0019
    208  CD1       39.3200   15.5400   10.2940 C.3   216  LEU216      0.0001
    209  CD2       37.0020   15.3150    9.4140 C.3   216  LEU216      0.0001
    210  N         32.9770   11.3280   13.2130 N.3   220  TRP220     -0.1241
    211  CA        33.5630    9.9830   13.2800 C.3   220  TRP220      0.1605
    212  C         33.2770    9.2430   14.5920 C.2   220  TRP220      0.2264
    213  O         33.5020    8.0310   14.6500 O.2   220  TRP220     -0.2867
    214  CB        35.0750   10.0270   13.0630 C.3   220  TRP220      0.0550
    215  CG        35.5330   10.4810   11.7070 C.ar  220  TRP220      0.0003
    216  CD1       34.8160   10.4820   10.5440 C.ar  220  TRP220      0.0946
    217  CD2       36.8550   10.9010   11.3620 C.ar  220  TRP220      0.0152
    218  NE1       35.5950   10.9380    9.5090 N.ar  220  TRP220     -0.2442
    219  CE2       36.8570   11.1920    9.9810 C.ar  220  TRP220      0.0810
    220  CE3       38.0350   11.1040   12.0980 C.ar  220  TRP220      0.0012
    221  CZ2       37.9940   11.6600    9.3180 C.ar  220  TRP220      0.0191
    222  CZ3       39.1570   11.5780   11.4390 C.ar  220  TRP220      0.0001
    223  CH2       39.1320   11.8390   10.0630 C.ar  220  TRP220      0.0015
@<TRIPOS>BOND
     1   116   115    2
     2   115   114    1
     3   113   114    1
     4   105   104    2
     5   114   117    1
     6   104   103    1
     7   111   109   ar
     8   111   112   ar
     9   156   155    2
    10   117   118    1
    11    97    96    2
    12   109   107   ar
    13   112   110   ar
    14   155   154    1
    15   103   102    1
    16   103   106    1
    17    96   102   am
    18    96    95    1
    19   107   106    1
    20   107   108   ar
    21   110   108   ar
    22   118   120    1
    23   118   119    1
    24    95    94    1
    25    95    98    1
    26   154   157    1
    27   154   153    1
    28    86    85    1
    29   157   158    1
    30    98   100    1
    31    98    99    1
    32    87    85    1
    33    85    84    2
    34    99   101    1
    35     8     7    1
    36    91    90    2
    37   158   160   ar
    38   158   159   ar
    39     1     2    1
    40     4     3    2
    41    80    79    2
    42     5     2    1
    43     5     6    1
    44   160   162   ar
    45    84    83    1
    46    90    89    1
    47   121   122    1
    48    83    82    1
    49   159   161   ar
    50     2     3    1
    51   125   122    1
    52   125   126    1
    53     7     6    1
    54    79    78    1
    55    79    88   am
    56   128   126    1
    57    78    77    1
    58    78    81    1
    59   122   123    1
    60   162   163   ar
    61   126   127    1
    62    89    88    1
    63    89    92    1
    64   148   147    2
    65   123   124    2
    66   161   163   ar
    67    82    81    1
    68    69    68    2
    69   163   164    1
    70   147   146    1
    71    92    93    1
    72    68    67    1
    73   136   134    1
    74    42    41    1
    75   146   145    1
    76   146   149    1
    77    61    60    2
    78    67    70    1
    79    67    66    1
    80   134   133    1
    81   149   150    1
    82   133   135    1
    83   133   130    1
    84   150   151    1
    85    70    71    1
    86    41    40    1
    87    54    56   ar
    88    54    53   ar
    89    60    66   am
    90    60    59    1
    91   129   130    1
    92    56    57   ar
    93   130   131    1
    94    72    71   ar
    95    72    74   ar
    96   151   152    1
    97    40    39    1
    98    71    73   ar
    99    59    58    1
   100    59    62    1
   101   131   132    2
   102    53    52    1
   103    53    55   ar
   104    57    55   ar
   105    52    49    1
   106    39    36    1
   107    74    76   ar
   108    49    48    1
   109    49    50    1
   110    64    63    1
   111    64    65    1
   112    51    50    2
   113    27    25    1
   114    73    75   ar
   115    38    37    2
   116    62    63    1
   117    36    37    1
   118    36    35    1
   119    37    43   am
   120    76    75   ar
   121    25    26    1
   122    25    24    1
   123    43    44    1
   124    21    20    1
   125    21    24    1
   126    21    22    1
   127    44    45    1
   128    44    47    1
   129    23    22    2
   130    46    45    2
   131    22    28   am
   132   182   181    1
   133   140   139    2
   134   144   142    1
   135   143   141    1
   136   141   142    1
   137   141   138    1
   138    28    29    1
   139   181   180    1
   140     9    10    1
   141   139   138    1
   142    30    31    2
   143    30    29    1
   144   171   173   ar
   145   171   170   ar
   146   138   137    1
   147    29    32    1
   148    10    11    1
   149    10    13    1
   150   165   166    1
   151   169   170    1
   152   169   166    1
   153    12    11    2
   154   173   174   ar
   155   170   172   ar
   156   180   179    1
   157   166   167    1
   158   221   219   ar
   159   221   223   ar
   160   209   207    1
   161   218   219   ar
   162   218   216   ar
   163    32    33    1
   164    32    34    1
   165    13    14    1
   166   174   172   ar
   167   219   217   ar
   168   223   222   ar
   169    16    14   ar
   170    16    18   ar
   171   179   176    1
   172   208   207    1
   173    14    15   ar
   174   216   215   ar
   175   167   168    2
   176   207   206    1
   177    18    19   ar
   178    15    17   ar
   179   217   215   ar
   180   217   220   ar
   181   176   175    1
   182   176   177    1
   183   222   220   ar
   184    19    17   ar
   185   215   214    1
   186   206   203    1
   187   203   202    1
   188   203   204    1
   189   200   198   ar
   190   200   201   ar
   191   177   178    2
   192   177   183   am
   193   198   196   ar
   194   190   188    1
   195   214   211    1
   196   210   211    1
   197   211   212    1
   198   205   204    2
   199   183   184    1
   200   201   199   ar
   201   188   189    1
   202   188   187    1
   203   196   195    1
   204   196   197   ar
   205   195   192    1
   206   184   187    1
   207   184   185    1
   208   212   213    2
   209   199   197   ar
   210   192   193    1
   211   192   191    1
   212   193   194    2
   213   186   185    2
