@<TRIPOS>MOLECULE
tmp/5q0wA00.pdb
 180 172 0 0 0
SMALL
GASTEIGER

@<TRIPOS>ATOM
      1  N        -12.6890   65.0860   -5.3960 N.3    21  GLN21      -0.1231
      2  CA       -12.2450   63.8090   -4.8130 C.3    21  GLN21       0.1698
      3  C        -11.1460   63.1560   -5.6520 C.2    21  GLN21       0.2592
      4  O        -11.2800   63.0150   -6.8710 O.2    21  GLN21      -0.2718
      5  CB       -13.4230   62.8360   -4.5830 C.3    21  GLN21       0.0381
      6  CG       -13.0640   61.5130   -3.8550 C.3    21  GLN21       0.0905
      7  CD       -12.5620   60.3970   -4.7590 C.2    21  GLN21       0.2608
      8  OE1      -13.0240   60.2030   -5.8860 O.2    21  GLN21      -0.2717
      9  NE2      -11.5990   59.6300   -4.2810 N.am   21  GLN21      -0.0878
     10  N        -10.0610   62.7640   -4.9740 N.am   22  ARG22      -0.1966
     11  CA        -8.9000   62.1150   -5.5680 C.3    22  ARG22       0.1729
     12  C         -8.2720   61.2340   -4.4920 C.2    22  ARG22       0.2616
     13  O         -7.8210   61.7490   -3.4640 O.2    22  ARG22      -0.2715
     14  CB        -7.9010   63.1700   -6.0880 C.3    22  ARG22       0.0348
     15  CG        -6.9300   62.6340   -7.1360 C.3    22  ARG22       0.0492
     16  CD        -6.6430   63.6410   -8.2360 C.3    22  ARG22       0.2205
     17  NE        -7.7880   63.8270   -9.1320 N.pl3  22  ARG22      -0.0865
     18  CZ        -8.5640   64.9070   -9.1500 C.cat  22  ARG22       0.5346
     19  NH1       -8.3250   65.9210   -8.3280 N.pl3  22  ARG22       0.1354
     20  NH2       -9.5820   64.9830   -9.9960 N.pl3  22  ARG22       0.1354
     21  N         -8.2860   59.9030   -4.7130 N.am   23  MET23      -0.1964
     22  CA        -7.7280   58.9170   -3.7870 C.3    23  MET23       0.1722
     23  C         -6.2340   59.1850   -3.5760 C.2    23  MET23       0.2458
     24  O         -5.4910   59.2130   -4.5590 O.2    23  MET23      -0.2730
     25  CB        -7.9830   57.4890   -4.2880 C.3    23  MET23       0.0427
     26  CG        -9.3550   56.9650   -3.9050 C.3    23  MET23       0.0599
     27  SD        -9.3010   55.9110   -2.4370 S.3    23  MET23      -0.1393
     28  CE        -8.8370   54.3550   -3.1970 C.3    23  MET23       0.0692
     29  N         -5.7900   59.4810   -2.3270 N.am   24  PRO24      -0.2727
     30  CA        -4.3660   59.7940   -2.1100 C.3    24  PRO24       0.1402
     31  C         -3.4240   58.6680   -2.5090 C.2    24  PRO24       0.2269
     32  O         -3.7700   57.4890   -2.3810 O.2    24  PRO24      -0.2865
     33  CB        -4.2810   60.0990   -0.6110 C.3    24  PRO24       0.0296
     34  CG        -5.6770   60.3540   -0.1730 C.3    24  PRO24       0.0237
     35  CD        -6.5420   59.5150   -1.0570 C.3    24  PRO24       0.0939
     36  N         -2.5560   55.8410   -0.0020 N.3    27  ILE27      -0.1245
     37  CA        -3.6020   54.8270    0.1570 C.3    27  ILE27       0.1561
     38  C         -3.4790   53.7830   -0.9650 C.2    27  ILE27       0.2260
     39  O         -3.4360   52.5890   -0.6720 O.2    27  ILE27      -0.2867
     40  CB        -5.0260   55.4480    0.3180 C.3    27  ILE27       0.0252
     41  CG1       -5.3920   55.6490    1.8140 C.3    27  ILE27       0.0019
     42  CG2       -6.1350   54.6800   -0.4460 C.3    27  ILE27       0.0019
     43  CD1       -5.6080   54.3380    2.6720 C.3    27  ILE27       0.0001
     44  N         -8.5100   49.7640    5.2290 N.3    45  LEU45      -0.1245
     45  CA        -9.9380   50.0720    5.1160 C.3    45  LEU45       0.1561
     46  C        -10.3910   51.1420    6.0900 C.2    45  LEU45       0.2260
     47  O        -11.1850   52.0060    5.7210 O.2    45  LEU45      -0.2867
     48  CB       -10.7560   48.7860    5.2740 C.3    45  LEU45       0.0270
     49  CG       -10.5280   47.7010    4.2020 C.3    45  LEU45       0.0019
     50  CD1      -11.2550   46.4350    4.5640 C.3    45  LEU45       0.0001
     51  CD2      -10.9330   48.1810    2.8180 C.3    45  LEU45       0.0001
     52  N         -9.1940   54.3390    4.7200 N.3    48  MET48      -0.1230
     53  CA       -10.0510   54.7260    3.5920 C.3    48  MET48       0.1702
     54  C        -11.3590   55.3280    4.1030 C.2    48  MET48       0.2592
     55  O        -11.7660   56.4000    3.6470 O.2    48  MET48      -0.2718
     56  CB       -10.3210   53.5250    2.6780 C.3    48  MET48       0.0401
     57  CG        -9.1050   53.0740    1.9160 C.3    48  MET48       0.0596
     58  SD        -9.4650   51.7130    0.7870 S.3    48  MET48      -0.1393
     59  CE       -10.5340   52.5250   -0.4050 C.3    48  MET48       0.0692
     60  N        -11.9740   54.6670    5.0940 N.am   49  ALA49      -0.1980
     61  CA       -13.2050   55.1130    5.7430 C.3    49  ALA49       0.1597
     62  C        -13.0320   56.5140    6.3730 C.2    49  ALA49       0.2287
     63  O        -13.9110   57.3700    6.2310 O.2    49  ALA49      -0.2864
     64  CB       -13.6230   54.1060    6.8040 C.3    49  ALA49       0.0319
     65  N        -10.6380   58.7700    5.5490 N.3    51  ASN51      -0.1225
     66  CA       -10.3950   59.6650    4.4140 C.3    51  ASN51       0.1785
     67  C        -11.7130   60.0880    3.7640 C.2    51  ASN51       0.2597
     68  O        -11.8560   61.2590    3.4010 O.2    51  ASN51      -0.2718
     69  CB        -9.5020   58.9760    3.3790 C.3    51  ASN51       0.1169
     70  CG        -8.0170   59.0960    3.6280 C.2    51  ASN51       0.2627
     71  OD1       -7.5550   59.4480    4.7180 O.2    51  ASN51      -0.2716
     72  ND2       -7.2300   58.7860    2.6120 N.am   51  ASN51      -0.0877
     73  N        -12.7030   59.1600    3.6850 N.am   52  HIS52      -0.1975
     74  CA       -14.0090   59.4950    3.1220 C.3    52  HIS52       0.1656
     75  C        -14.7520   60.5570    3.9370 C.2    52  HIS52       0.2291
     76  O        -15.4150   61.3940    3.3390 O.2    52  HIS52      -0.2864
     77  CB       -14.9050   58.2730    2.8590 C.3    52  HIS52       0.0771
     78  CG       -16.1860   58.6870    2.2090 C.ar   52  HIS52       0.0820
     79  ND1      -17.3150   58.9690    2.9610 N.ar   52  HIS52      -0.2267
     80  CD2      -16.4150   59.0570    0.9260 C.ar   52  HIS52       0.1154
     81  CE1      -18.2120   59.4310    2.1070 C.ar   52  HIS52       0.1986
     82  NE2      -17.7210   59.4940    0.8670 N.ar   52  HIS52      -0.2212
     83  N        -13.4440   63.8610    2.8240 N.3    55  VAL55      -0.1245
     84  CA       -13.9350   64.0860    1.4530 C.3    55  VAL55       0.1561
     85  C        -15.3960   64.5560    1.5080 C.2    55  VAL55       0.2260
     86  O        -15.7660   65.5210    0.8290 O.2    55  VAL55      -0.2867
     87  CB       -13.7820   62.7990    0.5890 C.3    55  VAL55       0.0252
     88  CG1      -14.5540   62.9000   -0.7280 C.3    55  VAL55       0.0019
     89  CG2      -12.3180   62.4890    0.3190 C.3    55  VAL55       0.0019
     90  N        -20.8460   57.3780    1.8970 N.3    86  MET86      -0.1230
     91  CA       -19.6850   56.4850    1.8100 C.3    86  MET86       0.1702
     92  C        -19.9470   55.3390    0.8480 C.2    86  MET86       0.2592
     93  O        -19.1480   55.1500   -0.0590 O.2    86  MET86      -0.2718
     94  CB       -19.2870   55.9540    3.1990 C.3    86  MET86       0.0401
     95  CG       -18.1250   54.9670    3.1660 C.3    86  MET86       0.0596
     96  SD       -17.6260   54.3740    4.7990 S.3    86  MET86      -0.1393
     97  CE       -18.9980   53.2590    5.1840 C.3    86  MET86       0.0692
     98  N        -21.0710   54.6030    1.0150 N.am   87  PHE87      -0.1976
     99  CA       -21.3760   53.4790    0.1240 C.3    87  PHE87       0.1639
    100  C        -21.6240   53.9180   -1.3010 C.2    87  PHE87       0.2290
    101  O        -21.2490   53.1990   -2.2220 O.2    87  PHE87      -0.2864
    102  CB       -22.5060   52.5940    0.6460 C.3    87  PHE87       0.0560
    103  CG       -22.0350   51.6830    1.7560 C.ar   87  PHE87      -0.0200
    104  CD1      -21.2430   50.5740    1.4810 C.ar   87  PHE87      -0.0042
    105  CD2      -22.3370   51.9650    3.0830 C.ar   87  PHE87      -0.0042
    106  CE1      -20.7660   49.7610    2.5170 C.ar   87  PHE87      -0.0003
    107  CE2      -21.8760   51.1400    4.1130 C.ar   87  PHE87      -0.0003
    108  CZ       -21.0970   50.0450    3.8210 C.ar   87  PHE87      -0.0000
    109  N        -20.2460   56.7090   -2.8290 N.3    89  ARG89      -0.1231
    110  CA       -18.9330   57.0860   -3.3840 C.3    89  ARG89       0.1694
    111  C        -18.1370   55.8070   -3.6610 C.2    89  ARG89       0.2592
    112  O        -17.4590   55.7300   -4.6880 O.2    89  ARG89      -0.2718
    113  CB       -18.1760   58.0180   -2.4100 C.3    89  ARG89       0.0321
    114  CG       -16.8240   58.5550   -2.9240 C.3    89  ARG89       0.0489
    115  CD       -16.9330   59.7810   -3.8320 C.3    89  ARG89       0.2205
    116  NE       -17.3630   60.9950   -3.1210 N.pl3  89  ARG89      -0.0865
    117  CZ       -17.2490   62.2300   -3.6040 C.cat  89  ARG89       0.5346
    118  NH1      -16.7180   62.4360   -4.8020 N.pl3  89  ARG89       0.1354
    119  NH2      -17.6700   63.2680   -2.8940 N.pl3  89  ARG89       0.1354
    120  N        -18.2600   54.8010   -2.7460 N.am   90  SER90      -0.1952
    121  CA       -17.5780   53.5150   -2.8910 C.3    90  SER90       0.1924
    122  C        -18.0400   52.7400   -4.1170 C.2    90  SER90       0.2314
    123  O        -17.2140   52.0860   -4.7580 O.2    90  SER90      -0.2863
    124  CB       -17.6910   52.6750   -1.6180 C.3    90  SER90       0.2116
    125  OG       -18.9520   52.0570   -1.4500 O.3    90  SER90      -0.2180
    126  N        -16.4660   54.5800   -7.2770 N.3    93  ILE93      -0.1231
    127  CA       -15.0470   54.2230   -7.3550 C.3    93  ILE93       0.1692
    128  C        -14.8550   52.7790   -7.8480 C.2    93  ILE93       0.2592
    129  O        -14.0820   52.5590   -8.7880 O.2    93  ILE93      -0.2718
    130  CB       -14.3320   54.5190   -6.0070 C.3    93  ILE93       0.0266
    131  CG1      -14.1630   56.0450   -5.8170 C.3    93  ILE93       0.0019
    132  CG2      -12.9790   53.7840   -5.9070 C.3    93  ILE93       0.0020
    133  CD1      -13.8030   56.5070   -4.4290 C.3    93  ILE93       0.0001
    134  N        -15.5880   51.8200   -7.2500 N.am   94  PHE94      -0.1976
    135  CA       -15.5100   50.3980   -7.6000 C.3    94  PHE94       0.1639
    136  C        -15.9070   50.1060   -9.0580 C.2    94  PHE94       0.2290
    137  O        -15.3310   49.2090   -9.6740 O.2    94  PHE94      -0.2864
    138  CB       -16.3400   49.5460   -6.6170 C.3    94  PHE94       0.0560
    139  CG       -16.1280   48.0540   -6.7340 C.ar   94  PHE94      -0.0200
    140  CD1      -15.0040   47.4480   -6.1810 C.ar   94  PHE94      -0.0042
    141  CD2      -17.0530   47.2540   -7.3920 C.ar   94  PHE94      -0.0042
    142  CE1      -14.8030   46.0670   -6.3010 C.ar   94  PHE94      -0.0003
    143  CE2      -16.8540   45.8740   -7.5070 C.ar   94  PHE94      -0.0003
    144  CZ       -15.7260   45.2930   -6.9690 C.ar   94  PHE94      -0.0000
    145  N         -8.0680   45.4030   -3.8650 N.3   106  LEU106     -0.1245
    146  CA        -8.8980   46.0750   -2.8740 C.3   106  LEU106      0.1561
    147  C        -10.0720   45.1870   -2.4800 C.2   106  LEU106      0.2260
    148  O        -10.3680   45.0930   -1.2890 O.2   106  LEU106     -0.2867
    149  CB        -9.3720   47.4540   -3.3540 C.3   106  LEU106      0.0270
    150  CG       -10.1810   48.3050   -2.3500 C.3   106  LEU106      0.0019
    151  CD1       -9.4790   48.4170   -0.9910 C.3   106  LEU106      0.0001
    152  CD2      -10.4190   49.6760   -2.9050 C.3   106  LEU106      0.0001
    153  N        -10.7610   43.6840    1.2100 N.3   110  ILE110     -0.1245
    154  CA       -12.0790   43.8280    1.8490 C.3   110  ILE110      0.1561
    155  C        -12.5940   42.4400    2.2750 C.2   110  ILE110      0.2260
    156  O        -12.9410   42.2410    3.4450 O.2   110  ILE110     -0.2867
    157  CB       -13.0780   44.5710    0.9100 C.3   110  ILE110      0.0252
    158  CG1      -12.7100   46.0560    0.7460 C.3   110  ILE110      0.0019
    159  CG2      -14.5180   44.4300    1.4020 C.3   110  ILE110      0.0019
    160  CD1      -13.3250   46.7380   -0.4720 C.3   110  ILE110      0.0001
    161  N        -22.9770   44.7730    0.4230 N.3   123  MET123     -0.1245
    162  CA       -22.0570   45.8080   -0.0510 C.3   123  MET123      0.1570
    163  C        -21.7750   45.6190   -1.5560 C.2   123  MET123      0.2261
    164  O        -22.0420   46.5240   -2.3450 O.2   123  MET123     -0.2867
    165  CB       -20.7570   45.7590    0.7620 C.3   123  MET123      0.0387
    166  CG       -19.8310   46.9160    0.4940 C.3   123  MET123      0.0595
    167  SD       -18.1760   46.7750    1.2220 S.3   123  MET123     -0.1393
    168  CE       -18.5930   46.2420    2.9010 C.3   123  MET123      0.0692
    169  N        -22.9790   47.4620   -5.1720 N.3   127  TYR127     -0.1241
    170  CA       -22.0270   47.9490   -6.1960 C.3   127  TYR127      0.1605
    171  C        -22.4360   47.4700   -7.5890 C.2   127  TYR127      0.2264
    172  O        -22.4340   48.2680   -8.5270 O.2   127  TYR127     -0.2867
    173  CB       -20.5720   47.5210   -5.9000 C.3   127  TYR127      0.0534
    174  CG       -19.9800   48.0310   -4.5990 C.ar  127  TYR127     -0.0201
    175  CD1      -20.5780   49.0720   -3.8940 C.ar  127  TYR127     -0.0009
    176  CD2      -18.8180   47.4740   -4.0750 C.ar  127  TYR127     -0.0009
    177  CE1      -20.0380   49.5370   -2.6960 C.ar  127  TYR127      0.0417
    178  CE2      -18.2600   47.9410   -2.8870 C.ar  127  TYR127      0.0417
    179  CZ       -18.8750   48.9720   -2.1990 C.ar  127  TYR127      0.1957
    180  OH       -18.3380   49.4130   -1.0130 O.3   127  TYR127     -0.2866
@<TRIPOS>BOND
     1    20    18    1
     2   137   136    2
     3    18    17    2
     4    18    19    1
     5    17    16    1
     6   136   135    1
     7   129   128    2
     8   172   171    2
     9    16    15    1
    10   128   127    1
    11   128   134   am
    12   135   134    1
    13   135   138    1
    14   171   170    1
    15   143   141   ar
    16   143   144   ar
    17   141   139   ar
    18   127   126    1
    19   127   130    1
    20    15    14    1
    21   144   142   ar
    22     4     3    2
    23   139   138    1
    24   139   140   ar
    25   142   140   ar
    26   170   173    1
    27   170   169    1
    28    14    11    1
    29   130   132    1
    30   130   131    1
    31   173   174    1
    32     8     7    2
    33   131   133    1
    34     3    10   am
    35     3     2    1
    36    11    10    1
    37    11    12    1
    38     1     2    1
    39     2     5    1
    40   118   117    1
    41     7     9   am
    42     7     6    1
    43   123   122    2
    44    21    12   am
    45    21    22    1
    46   112   111    2
    47   174   176   ar
    48   174   175   ar
    49     5     6    1
    50    24    23    2
    51    12    13    2
    52    25    26    1
    53    25    22    1
    54   122   121    1
    55   176   178   ar
    56    26    27    1
    57   175   177   ar
    58   145   146    1
    59   115   116    1
    60   115   114    1
    61    22    23    1
    62   111   110    1
    63   111   120   am
    64   117   116    2
    65   117   119    1
    66    23    29   am
    67   110   109    1
    68   110   113    1
    69   149   146    1
    70   149   150    1
    71    28    27    1
    72   114   113    1
    73   152   150    1
    74   121   120    1
    75   121   124    1
    76   178   179   ar
    77   146   147    1
    78   177   179   ar
    79    31    32    2
    80    31    30    1
    81   147   148    2
    82   150   151    1
    83   164   163    2
    84    29    30    1
    85    29    35    1
    86   101   100    2
    87   179   180    1
    88    30    33    1
    89   124   125    1
    90   163   162    1
    91   100    99    1
    92    35    34    1
    93    38    39    2
    94    38    37    1
    95    88    87    1
    96    33    34    1
    97   160   158    1
    98    42    40    1
    99    59    58    1
   100    93    92    2
   101   162   161    1
   102   162   165    1
   103    36    37    1
   104    99   102    1
   105    99    98    1
   106    37    40    1
   107    40    41    1
   108    89    87    1
   109   166   165    1
   110   166   167    1
   111    87    84    1
   112   102   103    1
   113   158   157    1
   114    58    57    1
   115    86    85    2
   116    92    98   am
   117    92    91    1
   118    82    80   ar
   119    82    81   ar
   120   157   159    1
   121   157   154    1
   122    80    78   ar
   123   153   154    1
   124   167   168    1
   125    84    85    1
   126    84    83    1
   127   104   103   ar
   128   104   106   ar
   129   103   105   ar
   130    91    90    1
   131    91    94    1
   132    41    43    1
   133   154   155    1
   134    57    56    1
   135    81    79   ar
   136    78    77    1
   137    78    79   ar
   138   155   156    2
   139   106   108   ar
   140    72    70   am
   141    56    53    1
   142    51    49    1
   143    77    74    1
   144   105   107   ar
   145    74    73    1
   146    74    75    1
   147    95    94    1
   148    95    96    1
   149    76    75    2
   150    69    70    1
   151    69    66    1
   152    68    67    2
   153    53    54    1
   154    53    52    1
   155    70    71    2
   156    55    54    2
   157    73    67   am
   158    67    66    1
   159   108   107   ar
   160    54    60   am
   161    49    50    1
   162    49    48    1
   163    66    65    1
   164    96    97    1
   165    60    61    1
   166    45    44    1
   167    45    48    1
   168    45    46    1
   169    47    46    2
   170    61    62    1
   171    61    64    1
   172    63    62    2
