@<TRIPOS>MOLECULE
tmp/5q0yA01.pdb
 240 230 0 0 0
SMALL
GASTEIGER

@<TRIPOS>ATOM
      1  N          4.6270   20.4840    7.0430 N.3    27  ILE27      -0.1231
      2  CA         5.9590   21.0860    7.1090 C.3    27  ILE27       0.1692
      3  C          5.9330   22.4820    7.7700 C.2    27  ILE27       0.2592
      4  O          6.7090   22.7220    8.6910 O.2    27  ILE27      -0.2718
      5  CB         6.5650   21.0720    5.6680 C.3    27  ILE27       0.0266
      6  CG1        6.6910   19.6020    5.1560 C.3    27  ILE27       0.0019
      7  CG2        7.9020   21.8420    5.5830 C.3    27  ILE27       0.0020
      8  CD1        6.5230   19.3790    3.7340 C.3    27  ILE27       0.0001
      9  N          5.0580   23.3870    7.2920 N.am   28  THR28      -0.1953
     10  CA         4.9620   24.7600    7.8180 C.3    28  THR28       0.1897
     11  C          4.4280   24.7880    9.2420 C.2    28  THR28       0.2313
     12  O          4.8730   25.6370   10.0200 O.2    28  THR28      -0.2863
     13  CB         4.1870   25.6870    6.8780 C.3    28  THR28       0.1794
     14  OG1        2.8940   25.1330    6.6370 O.3    28  THR28      -0.2208
     15  CG2        4.9180   25.9310    5.5560 C.3    28  THR28       0.0378
     16  N          7.4770   24.2090   11.6130 N.3    31  ILE31      -0.1245
     17  CA         8.3730   25.3680   11.6440 C.3    31  ILE31       0.1561
     18  C          7.6970   26.5470   12.3630 C.2    31  ILE31       0.2260
     19  O          8.3630   27.2420   13.1250 O.2    31  ILE31      -0.2867
     20  CB         8.8650   25.7360   10.2090 C.3    31  ILE31       0.0252
     21  CG1        9.5490   24.5380    9.5150 C.3    31  ILE31       0.0019
     22  CG2        9.7720   26.9780   10.2090 C.3    31  ILE31       0.0019
     23  CD1        9.5190   24.5970    7.9960 C.3    31  ILE31       0.0001
     24  N         17.2070   22.0700   13.8230 N.3    41  ASN41      -0.1240
     25  CA        16.8310   22.4390   12.4590 C.3    41  ASN41       0.1653
     26  C         17.6000   21.6520   11.4020 C.2    41  ASN41       0.2266
     27  O         17.0180   21.2940   10.3800 O.2    41  ASN41      -0.2867
     28  CB        16.9420   23.9400   12.2460 C.3    41  ASN41       0.1155
     29  CG        15.7490   24.7180   12.7550 C.2    41  ASN41       0.2627
     30  OD1       14.5990   24.2530   12.7230 O.2    41  ASN41      -0.2716
     31  ND2       15.9940   25.9340   13.2140 N.am   41  ASN41      -0.0877
     32  N         15.9440   18.2710   11.3020 N.3    44  ILE44      -0.1231
     33  CA        14.6420   18.3970   10.6280 C.3    44  ILE44       0.1692
     34  C         14.8970   18.3910    9.1190 C.2    44  ILE44       0.2591
     35  O         14.2430   17.6380    8.4080 O.2    44  ILE44      -0.2718
     36  CB        13.8260   19.6490   11.0950 C.3    44  ILE44       0.0266
     37  CG1       13.3180   19.4730   12.5480 C.3    44  ILE44       0.0019
     38  CG2       12.6530   19.9740   10.1170 C.3    44  ILE44       0.0020
     39  CD1       12.9600   20.7440   13.2610 C.3    44  ILE44       0.0001
     40  N         15.8960   19.1690    8.6510 N.am   45  LEU45      -0.1980
     41  CA        16.2440   19.2320    7.2360 C.3    45  LEU45       0.1596
     42  C         16.6380   17.8660    6.6510 C.2    45  LEU45       0.2287
     43  O         16.1450   17.4990    5.5790 O.2    45  LEU45      -0.2864
     44  CB        17.3610   20.2760    6.9760 C.3    45  LEU45       0.0297
     45  CG        17.8860   20.3390    5.5170 C.3    45  LEU45       0.0022
     46  CD1       16.8210   20.9190    4.5530 C.3    45  LEU45       0.0001
     47  CD2       19.1990   21.0820    5.4320 C.3    45  LEU45       0.0001
     48  N         13.5600   15.5930    6.5030 N.3    48  MET48      -0.1230
     49  CA        12.6970   16.1210    5.4300 C.3    48  MET48       0.1702
     50  C         13.2430   15.7400    4.0490 C.2    48  MET48       0.2592
     51  O         12.4970   15.2630    3.1960 O.2    48  MET48      -0.2718
     52  CB        12.5910   17.6620    5.5110 C.3    48  MET48       0.0401
     53  CG        11.6940   18.1660    6.6430 C.3    48  MET48       0.0596
     54  SD         9.9570   17.7280    6.4700 S.3    48  MET48      -0.1393
     55  CE         9.6740   18.3880    4.9260 C.3    48  MET48       0.0692
     56  N         14.5510   15.9400    3.8410 N.am   49  ALA49      -0.1980
     57  CA        15.2200   15.6770    2.5610 C.3    49  ALA49       0.1597
     58  C         15.3190   14.1920    2.2480 C.2    49  ALA49       0.2287
     59  O         15.3130   13.8230    1.0690 O.2    49  ALA49      -0.2864
     60  CB        16.5950   16.3140    2.5470 C.3    49  ALA49       0.0319
     61  N         11.8330   13.2520    1.0930 N.3    52  HIS52      -0.1241
     62  CA        11.6950   13.8590   -0.2200 C.3    52  HIS52       0.1621
     63  C         12.3220   13.0080   -1.3180 C.2    52  HIS52       0.2264
     64  O         11.6740   12.7970   -2.3450 O.2    52  HIS52      -0.2867
     65  CB        12.2820   15.2770   -0.2440 C.3    52  HIS52       0.0745
     66  CG        12.1970   15.9100   -1.6070 C.ar   52  HIS52       0.0817
     67  ND1       13.2760   15.8950   -2.4630 N.ar   52  HIS52      -0.2268
     68  CD2       11.1360   16.4640   -2.2530 C.ar   52  HIS52       0.1154
     69  CE1       12.8630   16.4570   -3.5900 C.ar   52  HIS52       0.1986
     70  NE2       11.5860   16.8240   -3.5170 N.ar   52  HIS52      -0.2212
     71  N         14.2210   19.2580   -4.7380 N.3    86  MET86      -0.1230
     72  CA        14.1010   19.6230   -3.3220 C.3    86  MET86       0.1702
     73  C         13.8800   21.1340   -3.1690 C.2    86  MET86       0.2592
     74  O         12.9810   21.5290   -2.4380 O.2    86  MET86      -0.2718
     75  CB        15.3440   19.1570   -2.5550 C.3    86  MET86       0.0401
     76  CG        15.1340   19.0310   -1.0880 C.3    86  MET86       0.0596
     77  SD        16.3500   19.9530   -0.1500 S.3    86  MET86      -0.1393
     78  CE        15.9680   21.6030   -0.6750 C.3    86  MET86       0.0692
     79  N         14.6920   21.9700   -3.8490 N.am   87  PHE87      -0.1976
     80  CA        14.5250   23.4290   -3.7950 C.3    87  PHE87       0.1639
     81  C         13.2520   23.8830   -4.4930 C.2    87  PHE87       0.2290
     82  O         12.6490   24.8510   -4.0520 O.2    87  PHE87      -0.2864
     83  CB        15.7520   24.1810   -4.3520 C.3    87  PHE87       0.0560
     84  CG        16.8880   24.1960   -3.3560 C.ar   87  PHE87      -0.0200
     85  CD1       16.8400   25.0160   -2.2330 C.ar   87  PHE87      -0.0042
     86  CD2       17.9610   23.3280   -3.4910 C.ar   87  PHE87      -0.0042
     87  CE1       17.8720   25.0050   -1.2980 C.ar   87  PHE87      -0.0003
     88  CE2       18.9990   23.3180   -2.5440 C.ar   87  PHE87      -0.0003
     89  CZ        18.9450   24.1580   -1.4670 C.ar   87  PHE87      -0.0000
     90  N         10.4110   22.1270   -4.6450 N.3    89  ARG89      -0.1231
     91  CA         9.3630   21.7700   -3.6880 C.3    89  ARG89       0.1694
     92  C          9.3430   22.7420   -2.4890 C.2    89  ARG89       0.2592
     93  O          8.2620   23.1270   -2.0220 O.2    89  ARG89      -0.2718
     94  CB         9.5090   20.3040   -3.2290 C.3    89  ARG89       0.0321
     95  CG         8.4340   19.8320   -2.2350 C.3    89  ARG89       0.0489
     96  CD         7.0260   19.9350   -2.8120 C.3    89  ARG89       0.2205
     97  NE         6.0330   19.3360   -1.9210 N.pl3  89  ARG89      -0.0865
     98  CZ         4.7320   19.2810   -2.1690 C.cat  89  ARG89       0.5346
     99  NH1        4.2410   19.7790   -3.2990 N.pl3  89  ARG89       0.1354
    100  NH2        3.9150   18.6930   -1.3120 N.pl3  89  ARG89       0.1354
    101  N         10.5310   23.1460   -2.0020 N.am   90  SER90      -0.1952
    102  CA        10.6370   24.1050   -0.8760 C.3    90  SER90       0.1924
    103  C         10.0210   25.4500   -1.2970 C.2    90  SER90       0.2314
    104  O          9.3150   26.0780   -0.5020 O.2    90  SER90      -0.2863
    105  CB        12.0960   24.3240   -0.4790 C.3    90  SER90       0.2116
    106  OG        12.6800   23.1620    0.0870 O.3    90  SER90      -0.2180
    107  N          6.2370   25.1980   -1.3090 N.3    93  ILE93      -0.1231
    108  CA         5.7600   25.2500    0.0830 C.3    93  ILE93       0.1692
    109  C          5.7990   26.6820    0.6050 C.2    93  ILE93       0.2592
    110  O          4.8050   27.1480    1.1440 O.2    93  ILE93      -0.2718
    111  CB         6.5240   24.2530    0.9860 C.3    93  ILE93       0.0266
    112  CG1        6.2260   22.7930    0.5630 C.3    93  ILE93       0.0019
    113  CG2        6.1850   24.4780    2.4740 C.3    93  ILE93       0.0020
    114  CD1        7.2120   21.8000    1.0910 C.3    93  ILE93       0.0001
    115  N          6.9260   27.3940    0.3820 N.am   94  PHE94      -0.1976
    116  CA         7.1090   28.7840    0.7920 C.3    94  PHE94       0.1639
    117  C          6.0430   29.7280    0.2450 C.2    94  PHE94       0.2290
    118  O          5.6470   30.6640    0.9370 O.2    94  PHE94      -0.2864
    119  CB         8.5220   29.2740    0.4010 C.3    94  PHE94       0.0560
    120  CG         8.8630   30.6540    0.9120 C.ar   94  PHE94      -0.0200
    121  CD1        9.2600   30.8480    2.2300 C.ar   94  PHE94      -0.0042
    122  CD2        8.7600   31.7670    0.0830 C.ar   94  PHE94      -0.0042
    123  CE1        9.5510   32.1260    2.7050 C.ar   94  PHE94      -0.0003
    124  CE2        9.0720   33.0430    0.5560 C.ar   94  PHE94      -0.0003
    125  CZ         9.4590   33.2160    1.8630 C.ar   94  PHE94      -0.0000
    126  N          7.4540   32.3990    8.9890 N.3   106  LEU106     -0.1245
    127  CA         8.0830   31.2840    8.2850 C.3   106  LEU106      0.1561
    128  C          9.4360   31.7350    7.7070 C.2   106  LEU106      0.2260
    129  O         10.4460   31.0740    7.9380 O.2   106  LEU106     -0.2867
    130  CB         7.1300   30.7800    7.1890 C.3   106  LEU106      0.0270
    131  CG         7.5740   29.5610    6.3650 C.3   106  LEU106      0.0019
    132  CD1        7.6010   28.2730    7.2240 C.3   106  LEU106      0.0001
    133  CD2        6.6760   29.3890    5.1390 C.3   106  LEU106      0.0001
    134  N         11.9190   32.3420   10.5460 N.3   109  ARG109     -0.1231
    135  CA        12.2980   31.0610   11.1370 C.3   109  ARG109      0.1694
    136  C         13.3110   30.3400   10.2480 C.2   109  ARG109      0.2591
    137  O         14.2860   29.8130   10.7670 O.2   109  ARG109     -0.2718
    138  CB        11.0620   30.1860   11.4170 C.3   109  ARG109      0.0321
    139  CG        10.2230   30.6640   12.6160 C.3   109  ARG109      0.0489
    140  CD        10.5760   30.0020   13.9400 C.3   109  ARG109      0.2205
    141  NE         9.8380   30.6110   15.0490 N.pl3 109  ARG109     -0.0865
    142  CZ        10.2900   31.5940   15.8240 C.cat 109  ARG109      0.5346
    143  NH1       11.5070   32.0940   15.6370 N.pl3 109  ARG109      0.1354
    144  NH2        9.5330   32.0760   16.8000 N.pl3 109  ARG109      0.1354
    145  N         13.1240   30.3760    8.9190 N.am  110  ILE110     -0.1980
    146  CA        14.0650   29.7790    7.9530 C.3   110  ILE110      0.1595
    147  C         15.3760   30.5880    7.9290 C.2   110  ILE110      0.2287
    148  O         16.4430   29.9920    7.9500 O.2   110  ILE110     -0.2864
    149  CB        13.4300   29.6040    6.5430 C.3   110  ILE110      0.0276
    150  CG1       12.2010   28.6870    6.5900 C.3   110  ILE110      0.0022
    151  CG2       14.4550   29.0830    5.5300 C.3   110  ILE110      0.0022
    152  CD1       11.2750   28.8640    5.4370 C.3   110  ILE110      0.0001
    153  N         17.4780   29.5010   10.8920 N.3   113  SER113     -0.1217
    154  CA        17.5190   28.0490   11.0330 C.3   113  SER113      0.1889
    155  C         18.9160   27.4560   11.3040 C.2   113  SER113      0.2288
    156  O         19.0090   26.3510   11.8320 O.2   113  SER113     -0.2866
    157  CB        16.8950   27.3870    9.8080 C.3   113  SER113      0.2089
    158  OG        17.6410   27.6740    8.6400 O.3   113  SER113     -0.2183
    159  N         21.4200   27.9790    8.6500 N.3   115  ILE115     -0.1245
    160  CA        22.0250   28.1560    7.3240 C.3   115  ILE115      0.1561
    161  C         22.8660   29.4580    7.3120 C.2   115  ILE115      0.2260
    162  O         22.4650   30.4510    7.9290 O.2   115  ILE115     -0.2867
    163  CB        20.9300   28.1150    6.2100 C.3   115  ILE115      0.0252
    164  CG1       21.5280   28.2390    4.7900 C.3   115  ILE115      0.0019
    165  CG2       19.8210   29.1410    6.4510 C.3   115  ILE115      0.0019
    166  CD1       20.6940   27.5880    3.7150 C.3   115  ILE115      0.0001
    167  N         18.6720   31.9530   -1.8470 N.3   123  MET123     -0.1245
    168  CA        17.5650   31.0370   -1.5910 C.3   123  MET123      0.1570
    169  C         16.2240   31.7750   -1.6180 C.2   123  MET123      0.2261
    170  O         15.3060   31.3240   -2.2990 O.2   123  MET123     -0.2867
    171  CB        17.7590   30.3070   -0.2630 C.3   123  MET123      0.0387
    172  CG        16.8820   29.0810   -0.1270 C.3   123  MET123      0.0595
    173  SD        17.0720   28.2490    1.4530 S.3   123  MET123     -0.1393
    174  CE        16.2140   29.2930    2.4570 C.3   123  MET123      0.0692
    175  N         12.9480   31.7920   -4.2380 N.3   127  TYR127     -0.1241
    176  CA        11.5960   31.5370   -3.7240 C.3   127  TYR127      0.1605
    177  C         10.6230   32.6290   -4.1160 C.2   127  TYR127      0.2264
    178  O          9.5110   32.3220   -4.5430 O.2   127  TYR127     -0.2867
    179  CB        11.5780   31.3780   -2.1850 C.3   127  TYR127      0.0534
    180  CG        12.2590   30.1550   -1.6110 C.ar  127  TYR127     -0.0201
    181  CD1       12.7430   29.1460   -2.4370 C.ar  127  TYR127     -0.0009
    182  CD2       12.3980   29.9940   -0.2350 C.ar  127  TYR127     -0.0009
    183  CE1       13.3570   28.0110   -1.9080 C.ar  127  TYR127      0.0417
    184  CE2       13.0300   28.8750    0.3030 C.ar  127  TYR127      0.0417
    185  CZ        13.5070   27.8840   -0.5390 C.ar  127  TYR127      0.1957
    186  OH        14.1610   26.7870   -0.0260 O.3   127  TYR127     -0.2866
    187  N         25.2240   23.0990   -3.1710 N.3   205  HIS205     -0.1241
    188  CA        24.4740   22.3090   -2.1740 C.3   205  HIS205      0.1621
    189  C         25.3560   21.7570   -1.0420 C.2   205  HIS205      0.2264
    190  O         24.9810   21.9260    0.1130 O.2   205  HIS205     -0.2867
    191  CB        23.6080   21.1990   -2.8100 C.3   205  HIS205      0.0745
    192  CG        24.3420   19.9490   -3.1840 C.ar  205  HIS205      0.0817
    193  ND1       24.9740   19.8130   -4.4060 N.ar  205  HIS205     -0.2268
    194  CD2       24.4780   18.7940   -2.4940 C.ar  205  HIS205      0.1154
    195  CE1       25.4970   18.5950   -4.4180 C.ar  205  HIS205      0.1986
    196  NE2       25.2300   17.9420   -3.2880 N.ar  205  HIS205     -0.2212
    197  N         26.5540   24.5440    1.2300 N.3   208  MET208     -0.1230
    198  CA        25.3550   25.0290    1.9190 C.3   208  MET208      0.1702
    199  C         25.0820   24.1930    3.1570 C.2   208  MET208      0.2592
    200  O         24.7810   24.7370    4.2190 O.2   208  MET208     -0.2718
    201  CB        24.1430   24.9590    0.9850 C.3   208  MET208      0.0401
    202  CG        23.6770   26.2880    0.5430 C.3   208  MET208      0.0596
    203  SD        22.2810   26.2610   -0.6040 S.3   208  MET208     -0.1393
    204  CE        20.9770   26.4880    0.5150 C.3   208  MET208      0.0692
    205  N         25.2190   22.8690    3.0180 N.am  209  LEU209     -0.1980
    206  CA        25.0280   21.9060    4.0990 C.3   209  LEU209      0.1596
    207  C         26.1570   21.9370    5.1100 C.2   209  LEU209      0.2287
    208  O         25.8840   21.9420    6.3120 O.2   209  LEU209     -0.2864
    209  CB        24.9190   20.5040    3.5150 C.3   209  LEU209      0.0297
    210  CG        23.6500   20.2450    2.7300 C.3   209  LEU209      0.0022
    211  CD1       23.9020   19.2400    1.6470 C.3   209  LEU209      0.0001
    212  CD2       22.4810   19.8610    3.6790 C.3   209  LEU209      0.0001
    213  N         26.2670   24.9470    7.6580 N.3   212  TRP212     -0.1241
    214  CA        25.1570   25.0320    8.6150 C.3   212  TRP212      0.1605
    215  C         25.8000   25.1580    9.9930 C.2   212  TRP212      0.2264
    216  O         26.7670   24.4450   10.2720 O.2   212  TRP212     -0.2867
    217  CB        24.2670   23.7830    8.5410 C.3   212  TRP212      0.0550
    218  CG        22.9190   23.9410    9.1840 C.ar  212  TRP212      0.0003
    219  CD1       22.6290   23.9090   10.5170 C.ar  212  TRP212      0.0946
    220  CD2       21.6790   24.1300    8.5060 C.ar  212  TRP212      0.0152
    221  NE1       21.2800   24.0760   10.7110 N.ar  212  TRP212     -0.2442
    222  CE2       20.6710   24.2220    9.4930 C.ar  212  TRP212      0.0810
    223  CE3       21.3150   24.2370    7.1500 C.ar  212  TRP212      0.0012
    224  CZ2       19.3240   24.4240    9.1680 C.ar  212  TRP212      0.0191
    225  CZ3       19.9820   24.4400    6.8350 C.ar  212  TRP212      0.0001
    226  CH2       19.0020   24.5370    7.8360 C.ar  212  TRP212      0.0015
    227  N         23.7080   13.5790   -2.2030 N.3   227  TRP227     -0.1241
    228  CA        24.4280   14.8150   -1.9430 C.3   227  TRP227      0.1605
    229  C         25.9140   14.5260   -1.9240 C.2   227  TRP227      0.2264
    230  O         26.3210   13.4170   -1.5960 O.2   227  TRP227     -0.2867
    231  CB        23.9980   15.3910   -0.5950 C.3   227  TRP227      0.0550
    232  CG        22.5740   15.8410   -0.5140 C.ar  227  TRP227      0.0003
    233  CD1       21.7040   16.0420   -1.5480 C.ar  227  TRP227      0.0946
    234  CD2       21.8840   16.2360    0.6730 C.ar  227  TRP227      0.0152
    235  NE1       20.5030   16.5130   -1.0720 N.ar  227  TRP227     -0.2442
    236  CE2       20.5960   16.6710    0.2850 C.ar  227  TRP227      0.0810
    237  CE3       22.2350   16.2730    2.0410 C.ar  227  TRP227      0.0012
    238  CZ2       19.6610   17.1510    1.2100 C.ar  227  TRP227      0.0191
    239  CZ3       21.2920   16.7110    2.9650 C.ar  227  TRP227      0.0001
    240  CH2       20.0290   17.1600    2.5480 C.ar  227  TRP227      0.0015
@<TRIPOS>BOND
     1    71    72    1
     2    90    91    1
     3   178   177    2
     4    81    82    2
     5    81    80    1
     6   195   193   ar
     7   195   196   ar
     8   193   192   ar
     9    83    80    1
    10    83    84    1
    11   175   176    1
    12   177   176    1
    13    79    80    1
    14    79    73   am
    15   176   179    1
    16    91    94    1
    17    91    92    1
    18    69    70   ar
    19    69    67   ar
    20    70    68   ar
    21    86    84   ar
    22    86    88   ar
    23    84    85   ar
    24    72    73    1
    25    72    75    1
    26    99    98    1
    27   196   194   ar
    28    94    95    1
    29   192   191    1
    30   192   194   ar
    31   187   188    1
    32    73    74    2
    33    96    95    1
    34    96    97    1
    35   191   188    1
    36    75    76    1
    37    88    89   ar
    38    92    93    2
    39    92   101   am
    40    67    66   ar
    41   181   183   ar
    42   181   180   ar
    43    64    63    2
    44   170   169    2
    45    68    66   ar
    46    85    87   ar
    47   227   228    1
    48   179   180    1
    49   188   189    1
    50    98    97    2
    51    98   100    1
    52   101   102    1
    53   228   229    1
    54   228   231    1
    55   229   230    2
    56   183   185   ar
    57   167   168    1
    58   169   168    1
    59   180   182   ar
    60    66    65    1
    61   168   171    1
    62   233   235   ar
    63   233   232   ar
    64    89    87   ar
    65    63    62    1
    66   107   108    1
    67   103   102    1
    68   103   104    2
    69    76    77    1
    70   235   236   ar
    71   189   190    2
    72   102   105    1
    73    78    77    1
    74   203   204    1
    75   203   202    1
    76   231   232    1
    77   185   186    1
    78   185   184   ar
    79   232   234   ar
    80   105   106    1
    81   171   172    1
    82    65    62    1
    83   182   184   ar
    84    62    61    1
    85   172   173    1
    86   108   109    1
    87   108   111    1
    88   122   124   ar
    89   122   120   ar
    90   117   116    1
    91   117   118    2
    92   236   234   ar
    93   236   238   ar
    94   115   109   am
    95   115   116    1
    96   119   116    1
    97   119   120    1
    98   202   201    1
    99   124   125   ar
   100   112   111    1
   101   112   114    1
   102   109   110    2
   103   234   237   ar
   104   120   121   ar
   105   201   198    1
   106   111   113    1
   107    59    58    2
   108   238   240   ar
   109   197   198    1
   110   173   174    1
   111   211   210    1
   112   125   123   ar
   113   198   199    1
   114   237   239   ar
   115   121   123   ar
   116    58    57    1
   117    60    57    1
   118   240   239   ar
   119    57    56    1
   120   210   209    1
   121   210   212    1
   122   205   199   am
   123   205   206    1
   124   199   200    2
   125    51    50    2
   126   209   206    1
   127   166   164    1
   128     8     6    1
   129    56    50   am
   130    50    49    1
   131   206   207    1
   132    46    45    1
   133   164   163    1
   134    55    54    1
   135   207   208    2
   136   133   131    1
   137     6     5    1
   138    49    52    1
   139    49    48    1
   140    47    45    1
   141   152   150    1
   142    52    53    1
   143    45    44    1
   144   151   149    1
   145    15    13    1
   146    43    42    2
   147     7     5    1
   148     5     2    1
   149   163   165    1
   150   163   160    1
   151   131   130    1
   152   131   132    1
   153    54    53    1
   154   149   150    1
   155   149   146    1
   156    14    13    1
   157    42    41    1
   158   225   223   ar
   159   225   226   ar
   160    13    10    1
   161    44    41    1
   162     1     2    1
   163     2     3    1
   164   223   220   ar
   165   130   127    1
   166    41    40    1
   167     9     3   am
   168     9    10    1
   169   161   160    1
   170   161   162    2
   171   160   159    1
   172   213   214    1
   173   128   129    2
   174   128   127    1
   175     3     4    2
   176    10    11    1
   177   226   224   ar
   178   147   148    2
   179   147   146    1
   180   146   145    1
   181    23    21    1
   182   127   126    1
   183    35    34    2
   184   220   218   ar
   185   220   222   ar
   186   217   214    1
   187   217   218    1
   188   214   215    1
   189   158   157    1
   190    40    34   am
   191   145   136   am
   192    34    33    1
   193   224   222   ar
   194   218   219   ar
   195    11    12    2
   196   222   221   ar
   197    21    20    1
   198   157   154    1
   199   215   216    2
   200    38    36    1
   201    22    20    1
   202    20    17    1
   203   136   137    2
   204   136   135    1
   205    27    26    2
   206   219   221   ar
   207   134   135    1
   208    33    36    1
   209    33    32    1
   210   153   154    1
   211   154   155    1
   212    36    37    1
   213   135   138    1
   214   155   156    2
   215    26    25    1
   216   138   139    1
   217    16    17    1
   218    17    18    1
   219    28    25    1
   220    28    29    1
   221    18    19    2
   222    25    24    1
   223    37    39    1
   224   139   140    1
   225    30    29    2
   226    29    31   am
   227   140   141    1
   228   141   142    2
   229   143   142    1
   230   142   144    1
