@<TRIPOS>MOLECULE
tmp/5q11A00.pdb
 207 198 0 0 0
SMALL
GASTEIGER

@<TRIPOS>ATOM
      1  N        -12.1400   50.2620   -8.4180 N.3    42  PHE42      -0.1241
      2  CA       -11.9160   48.9770   -9.0760 C.3    42  PHE42       0.1605
      3  C        -10.4130   48.7660   -9.3500 C.2    42  PHE42       0.2264
      4  O         -9.9170   47.6490   -9.1980 O.2    42  PHE42      -0.2867
      5  CB       -12.7470   48.8430  -10.3680 C.3    42  PHE42       0.0534
      6  CG       -12.7570   47.4460  -10.9400 C.ar   42  PHE42      -0.0203
      7  CD1      -11.8140   47.0560  -11.8840 C.ar   42  PHE42      -0.0042
      8  CD2      -13.6920   46.5080  -10.5110 C.ar   42  PHE42      -0.0042
      9  CE1      -11.8030   45.7570  -12.3880 C.ar   42  PHE42      -0.0003
     10  CE2      -13.6880   45.2070  -11.0240 C.ar   42  PHE42      -0.0003
     11  CZ       -12.7500   44.8440  -11.9680 C.ar   42  PHE42      -0.0000
     12  N         -8.5820   47.6920   -6.0550 N.3    45  LEU45      -0.1231
     13  CA        -8.8940   46.2910   -5.7740 C.3    45  LEU45       0.1693
     14  C         -8.0720   45.3780   -6.6680 C.2    45  LEU45       0.2592
     15  O         -7.5550   44.3670   -6.1930 O.2    45  LEU45      -0.2718
     16  CB       -10.4000   46.0100   -5.9420 C.3    45  LEU45       0.0284
     17  CG       -11.3520   46.8420   -5.0800 C.3    45  LEU45       0.0019
     18  CD1      -12.7890   46.5760   -5.4540 C.3    45  LEU45       0.0001
     19  CD2      -11.1300   46.5900   -3.6000 C.3    45  LEU45       0.0001
     20  N         -7.9120   45.7660   -7.9530 N.am   46  THR46      -0.1953
     21  CA        -7.1070   45.0360   -8.9380 C.3    46  THR46       0.1897
     22  C         -5.6540   44.9460   -8.4550 C.2    46  THR46       0.2313
     23  O         -5.0510   43.8770   -8.5560 O.2    46  THR46      -0.2863
     24  CB        -7.2490   45.6810  -10.3240 C.3    46  THR46       0.1794
     25  OG1       -8.6330   45.7650  -10.6500 O.3    46  THR46      -0.2208
     26  CG2       -6.5590   44.8890  -11.4010 C.3    46  THR46       0.0378
     27  N         -4.5890   45.2530   -5.1900 N.3    48  MET48      -0.1230
     28  CA        -4.6210   44.4200   -3.9930 C.3    48  MET48       0.1702
     29  C         -4.6810   42.9720   -4.3920 C.2    48  MET48       0.2592
     30  O         -3.9400   42.1820   -3.8150 O.2    48  MET48      -0.2718
     31  CB        -5.8190   44.7630   -3.1140 C.3    48  MET48       0.0401
     32  CG        -5.6590   46.0570   -2.3940 C.3    48  MET48       0.0596
     33  SD        -7.1660   46.5170   -1.5370 S.3    48  MET48      -0.1393
     34  CE        -6.9660   45.5990   -0.0380 C.3    48  MET48       0.0692
     35  N         -5.5030   42.6350   -5.4240 N.am   49  ALA49      -0.1980
     36  CA        -5.6660   41.2720   -5.9520 C.3    49  ALA49       0.1597
     37  C         -4.3560   40.7010   -6.4880 C.2    49  ALA49       0.2287
     38  O         -4.0040   39.5870   -6.1390 O.2    49  ALA49      -0.2864
     39  CB        -6.7550   41.2330   -7.0280 C.3    49  ALA49       0.0319
     40  N         -2.0250   40.0270   -3.5720 N.3    52  HIS52      -0.1241
     41  CA        -2.4330   38.8060   -2.8600 C.3    52  HIS52       0.1621
     42  C         -1.8650   37.5770   -3.5620 C.2    52  HIS52       0.2264
     43  O         -1.2630   36.7320   -2.9170 O.2    52  HIS52      -0.2867
     44  CB        -3.9710   38.6980   -2.7250 C.3    52  HIS52       0.0745
     45  CG        -4.6040   39.7150   -1.8140 C.ar   52  HIS52       0.0817
     46  ND1       -5.9700   39.9360   -1.8270 N.ar   52  HIS52      -0.2268
     47  CD2       -4.0430   40.5450   -0.9010 C.ar   52  HIS52       0.1154
     48  CE1       -6.1950   40.8800   -0.9300 C.ar   52  HIS52       0.1986
     49  NE2       -5.0680   41.2760   -0.3450 N.ar   52  HIS52      -0.2212
     50  N         -8.8170   31.9510   -6.1480 N.3    83  VAL83      -0.1245
     51  CA       -10.0030   32.6690   -5.6720 C.3    83  VAL83       0.1561
     52  C        -10.2280   32.3830   -4.1880 C.2    83  VAL83       0.2260
     53  O        -10.3540   33.3180   -3.4070 O.2    83  VAL83      -0.2867
     54  CB       -11.2530   32.3170   -6.5400 C.3    83  VAL83       0.0252
     55  CG1      -12.5370   32.9030   -5.9530 C.3    83  VAL83       0.0019
     56  CG2      -11.0660   32.7640   -7.9900 C.3    83  VAL83       0.0019
     57  N         -7.3650   33.7260   -1.9240 N.3    86  MET86      -0.1230
     58  CA        -7.4430   35.1980   -1.9150 C.3    86  MET86       0.1702
     59  C         -8.4960   35.6920   -0.9710 C.2    86  MET86       0.2592
     60  O         -8.1990   36.5950   -0.1920 O.2    86  MET86      -0.2718
     61  CB        -7.6810   35.7710   -3.3110 C.3    86  MET86       0.0401
     62  CG        -6.4670   35.6850   -4.1890 C.3    86  MET86       0.0596
     63  SD        -6.9160   35.9110   -5.9250 S.3    86  MET86      -0.1393
     64  CE        -7.1370   37.7160   -5.9490 C.3    86  MET86       0.0692
     65  N         -9.7120   35.1000   -1.0100 N.am   87  PHE87      -0.1976
     66  CA       -10.7790   35.5010   -0.0920 C.3    87  PHE87       0.1639
     67  C        -10.4060   35.2750    1.3550 C.2    87  PHE87       0.2290
     68  O        -10.6770   36.1390    2.1900 O.2    87  PHE87      -0.2864
     69  CB       -12.1380   34.8630   -0.4230 C.3    87  PHE87       0.0560
     70  CG       -12.8760   35.6360   -1.4790 C.ar   87  PHE87      -0.0200
     71  CD1      -13.3060   36.9410   -1.2390 C.ar   87  PHE87      -0.0042
     72  CD2      -13.1210   35.0770   -2.7270 C.ar   87  PHE87      -0.0042
     73  CE1      -13.9200   37.6900   -2.2510 C.ar   87  PHE87      -0.0003
     74  CE2      -13.7930   35.8060   -3.7180 C.ar   87  PHE87      -0.0003
     75  CZ       -14.1710   37.1120   -3.4760 C.ar   87  PHE87      -0.0000
     76  N         -7.9570   38.0250    2.2040 N.3    90  SER90      -0.1217
     77  CA        -8.6520   39.3110    2.2780 C.3    90  SER90       0.1889
     78  C         -9.5060   39.4180    3.5370 C.2    90  SER90       0.2288
     79  O         -9.5740   40.5030    4.1150 O.2    90  SER90      -0.2866
     80  CB        -9.4490   39.5890    1.0110 C.3    90  SER90       0.2089
     81  OG       -10.5350   38.6900    0.8880 O.3    90  SER90      -0.2183
     82  N         -9.0650   42.2770    6.2430 N.3    94  PHE94      -0.1241
     83  CA       -10.2450   43.0490    6.6190 C.3    94  PHE94       0.1605
     84  C        -10.5680   42.9900    8.1150 C.2    94  PHE94       0.2264
     85  O        -10.7710   44.0390    8.7300 O.2    94  PHE94      -0.2867
     86  CB       -11.4540   42.6570    5.7670 C.3    94  PHE94       0.0534
     87  CG       -12.5880   43.6530    5.8250 C.ar   94  PHE94      -0.0203
     88  CD1      -12.6030   44.7670    4.9890 C.ar   94  PHE94      -0.0042
     89  CD2      -13.6580   43.4640    6.6940 C.ar   94  PHE94      -0.0042
     90  CE1      -13.6550   45.6850    5.0400 C.ar   94  PHE94      -0.0003
     91  CE2      -14.7170   44.3740    6.7340 C.ar   94  PHE94      -0.0003
     92  CZ       -14.7040   45.4850    5.9160 C.ar   94  PHE94      -0.0000
     93  N        -12.2870   50.9290    2.9770 N.3   106  LEU106     -0.1245
     94  CA       -12.1720   49.8270    2.0300 C.3   106  LEU106      0.1561
     95  C        -13.5480   49.2760    1.6230 C.2   106  LEU106      0.2260
     96  O        -13.7720   49.0420    0.4320 O.2   106  LEU106     -0.2867
     97  CB       -11.2630   48.7290    2.5750 C.3   106  LEU106      0.0270
     98  CG       -10.9390   47.5920    1.6070 C.3   106  LEU106      0.0019
     99  CD1      -10.4280   48.1380    0.2520 C.3   106  LEU106      0.0001
    100  CD2       -9.9880   46.5830    2.2580 C.3   106  LEU106      0.0001
    101  N        -15.1410   49.0820   -2.0570 N.3   110  ILE110     -0.1245
    102  CA       -15.6650   47.8100   -2.5530 C.3   110  ILE110      0.1561
    103  C        -17.0890   47.9850   -3.0550 C.2   110  ILE110      0.2260
    104  O        -17.3710   47.6360   -4.2010 O.2   110  ILE110     -0.2867
    105  CB       -15.5440   46.6900   -1.4740 C.3   110  ILE110      0.0252
    106  CG1      -14.0560   46.2710   -1.2640 C.3   110  ILE110      0.0019
    107  CG2      -16.4330   45.4740   -1.8150 C.3   110  ILE110      0.0019
    108  CD1      -13.7820   45.5380    0.0760 C.3   110  ILE110      0.0001
    109  N        -18.7280   46.3090   -8.9440 N.3   115  ILE115     -0.1245
    110  CA       -18.9640   44.8980   -8.6360 C.3   115  ILE115      0.1561
    111  C        -20.3880   44.7760   -8.0620 C.2   115  ILE115      0.2260
    112  O        -20.7990   45.6370   -7.2840 O.2   115  ILE115     -0.2867
    113  CB       -17.8270   44.3570   -7.7110 C.3   115  ILE115      0.0252
    114  CG1      -16.4490   44.5650   -8.3940 C.3   115  ILE115      0.0019
    115  CG2      -18.0400   42.8750   -7.3380 C.3   115  ILE115      0.0019
    116  CD1      -15.2260   44.4990   -7.4980 C.3   115  ILE115      0.0001
    117  N        -22.3410   39.6010   -5.3590 N.3   119  TYR119     -0.1227
    118  CA       -20.9930   39.1150   -5.0550 C.3   119  TYR119      0.1736
    119  C        -20.5500   39.6710   -3.6970 C.2   119  TYR119      0.2595
    120  O        -20.0820   38.9150   -2.8370 O.2   119  TYR119     -0.2718
    121  CB       -20.0150   39.5890   -6.1610 C.3   119  TYR119      0.0548
    122  CG       -18.6870   38.8570   -6.2730 C.ar  119  TYR119     -0.0200
    123  CD1      -18.2030   38.0740   -5.2230 C.ar  119  TYR119     -0.0009
    124  CD2      -17.8940   38.9820   -7.4100 C.ar  119  TYR119     -0.0009
    125  CE1      -16.9900   37.3990   -5.3230 C.ar  119  TYR119      0.0417
    126  CE2      -16.6680   38.3250   -7.5130 C.ar  119  TYR119      0.0417
    127  CZ       -16.2190   37.5370   -6.4640 C.ar  119  TYR119      0.1957
    128  OH       -15.0170   36.8800   -6.5500 O.3   119  TYR119     -0.2866
    129  N        -20.6910   40.9950   -3.5220 N.am  120  ILE120     -0.1980
    130  CA       -20.2450   41.7540   -2.3530 C.3   120  ILE120      0.1595
    131  C        -20.9430   41.3280   -1.0430 C.2   120  ILE120      0.2287
    132  O        -20.2750   41.2810   -0.0060 O.2   120  ILE120     -0.2864
    133  CB       -20.3710   43.2730   -2.6510 C.3   120  ILE120      0.0276
    134  CG1      -19.3130   43.7080   -3.6920 C.3   120  ILE120      0.0022
    135  CG2      -20.3020   44.1420   -1.3910 C.3   120  ILE120      0.0022
    136  CD1      -19.5370   45.0950   -4.3180 C.3   120  ILE120      0.0001
    137  N        -19.6330   37.9460    0.3690 N.3   123  MET123     -0.1245
    138  CA       -18.2410   38.2200    0.7280 C.3   123  MET123      0.1570
    139  C        -18.1660   38.7720    2.1520 C.2   123  MET123      0.2261
    140  O        -17.3890   38.2650    2.9460 O.2   123  MET123     -0.2867
    141  CB       -17.5800   39.2000   -0.2590 C.3   123  MET123      0.0387
    142  CG       -16.0990   39.3760    0.0180 C.3   123  MET123      0.0595
    143  SD       -15.3150   40.8740   -0.6000 S.3   123  MET123     -0.1393
    144  CE       -15.9510   42.0140    0.4400 C.3   123  MET123      0.0692
    145  N        -16.8740   37.2470    5.6400 N.3   127  TYR127     -0.1241
    146  CA       -15.9270   38.0040    6.4760 C.3   127  TYR127      0.1605
    147  C        -16.3900   38.0440    7.9250 C.2   127  TYR127      0.2264
    148  O        -15.5720   37.8510    8.8250 O.2   127  TYR127     -0.2867
    149  CB       -15.7650   39.4480    5.9840 C.3   127  TYR127      0.0534
    150  CG       -14.8770   39.6850    4.7830 C.ar  127  TYR127     -0.0201
    151  CD1      -14.3200   38.6190    4.0730 C.ar  127  TYR127     -0.0009
    152  CD2      -14.6230   40.9760    4.3270 C.ar  127  TYR127     -0.0009
    153  CE1      -13.5200   38.8360    2.9510 C.ar  127  TYR127      0.0417
    154  CE2      -13.7990   41.2060    3.2310 C.ar  127  TYR127      0.0417
    155  CZ       -13.2620   40.1320    2.5370 C.ar  127  TYR127      0.1957
    156  OH       -12.5140   40.3760    1.4230 O.3   127  TYR127     -0.2866
    157  N        -17.4190   34.5000   -8.5640 N.3   204  HIS204     -0.1241
    158  CA       -16.2990   35.0700   -9.3310 C.3   204  HIS204      0.1621
    159  C        -16.4290   34.7400  -10.8130 C.2   204  HIS204      0.2264
    160  O        -16.1040   35.5780  -11.6580 O.2   204  HIS204     -0.2867
    161  CB       -14.9410   34.5550   -8.7980 C.3   204  HIS204      0.0745
    162  CG       -13.7500   35.2920   -9.3350 C.ar  204  HIS204      0.0817
    163  ND1      -13.3740   36.5230   -8.8280 N.ar  204  HIS204     -0.2268
    164  CD2      -12.8850   34.9410  -10.3150 C.ar  204  HIS204      0.1154
    165  CE1      -12.3060   36.8880   -9.5210 C.ar  204  HIS204      0.1986
    166  NE2      -11.9810   35.9730  -10.4350 N.ar  204  HIS204     -0.2212
    167  N        -18.9920   36.9240  -12.3590 N.3   207  MET207     -0.1245
    168  CA       -18.4770   38.2850  -12.4240 C.3   207  MET207      0.1570
    169  C        -17.5820   38.4420  -13.6620 C.2   207  MET207      0.2261
    170  O        -17.7350   39.4230  -14.3970 O.2   207  MET207     -0.2867
    171  CB       -17.7220   38.6570  -11.1380 C.3   207  MET207      0.0387
    172  CG       -17.2250   40.0920  -11.1170 C.3   207  MET207      0.0595
    173  SD       -15.5020   40.2230  -10.5860 S.3   207  MET207     -0.1393
    174  CE       -14.6480   39.7400  -12.0780 C.3   207  MET207      0.0692
    175  N         -7.8930   43.8160  -16.1220 N.3   213  PHE213     -0.1241
    176  CA        -7.1760   43.3750  -14.9240 C.3   213  PHE213      0.1605
    177  C         -5.6520   43.5200  -15.0870 C.2   213  PHE213      0.2264
    178  O         -5.1950   44.5630  -15.5560 O.2   213  PHE213     -0.2867
    179  CB        -7.5990   41.9410  -14.5400 C.3   213  PHE213      0.0534
    180  CG        -9.0750   41.6560  -14.7020 C.ar  213  PHE213     -0.0203
    181  CD1       -9.9970   42.1210  -13.7700 C.ar  213  PHE213     -0.0042
    182  CD2       -9.5430   40.9220  -15.7830 C.ar  213  PHE213     -0.0042
    183  CE1      -11.3610   41.8560  -13.9190 C.ar  213  PHE213     -0.0003
    184  CE2      -10.9100   40.6670  -15.9380 C.ar  213  PHE213     -0.0003
    185  CZ       -11.8090   41.1340  -15.0050 C.ar  213  PHE213     -0.0000
    186  N         -3.4220   38.2650  -12.9280 N.3   217  LEU217     -0.1245
    187  CA        -4.8390   37.9990  -12.6920 C.3   217  LEU217      0.1561
    188  C         -5.4760   37.2320  -13.8560 C.2   217  LEU217      0.2260
    189  O         -6.2070   36.2760  -13.6020 O.2   217  LEU217     -0.2867
    190  CB        -5.6210   39.2860  -12.3820 C.3   217  LEU217      0.0270
    191  CG        -5.3510   39.9480  -11.0280 C.3   217  LEU217      0.0019
    192  CD1       -6.2880   41.1220  -10.8190 C.3   217  LEU217      0.0001
    193  CD2       -5.4500   38.9490   -9.8650 C.3   217  LEU217      0.0001
    194  N         -6.6310   33.4340  -13.1800 N.3   221  TRP221     -0.1241
    195  CA        -8.0820   33.3010  -13.3110 C.3   221  TRP221      0.1605
    196  C         -8.4210   32.8410  -14.7250 C.2   221  TRP221      0.2264
    197  O         -9.5620   32.4820  -14.9970 O.2   221  TRP221     -0.2867
    198  CB        -8.8100   34.6280  -12.9990 C.3   221  TRP221      0.0550
    199  CG        -8.6850   35.1730  -11.5980 C.ar  221  TRP221      0.0003
    200  CD1       -8.4960   34.4660  -10.4410 C.ar  221  TRP221      0.0946
    201  CD2       -8.8920   36.5390  -11.2050 C.ar  221  TRP221      0.0152
    202  NE1       -8.5470   35.3160   -9.3520 N.ar  221  TRP221     -0.2442
    203  CE2       -8.7860   36.5930   -9.7950 C.ar  221  TRP221      0.0810
    204  CE3       -9.1770   37.7240  -11.9080 C.ar  221  TRP221      0.0012
    205  CZ2       -8.9300   37.7900   -9.0820 C.ar  221  TRP221      0.0191
    206  CZ3       -9.3210   38.9090  -11.2000 C.ar  221  TRP221      0.0001
    207  CH2       -9.1920   38.9370   -9.8050 C.ar  221  TRP221      0.0015
@<TRIPOS>BOND
     1   175   176    1
     2   184   182   ar
     3   184   185   ar
     4   182   180   ar
     5   178   177    2
     6   177   176    1
     7   185   183   ar
     8   197   196    2
     9   176   179    1
    10   196   195    1
    11   180   179    1
    12   180   181   ar
    13   170   169    2
    14   183   181   ar
    15   188   189    2
    16   188   187    1
    17   169   168    1
    18   195   194    1
    19   195   198    1
    20   198   199    1
    21   186   187    1
    22   187   190    1
    23   168   167    1
    24   168   171    1
    25     9    11   ar
    26     9     7   ar
    27   190   191    1
    28   174   173    1
    29    11    10   ar
    30   204   201   ar
    31   204   206   ar
    32     7     6   ar
    33   160   159    2
    34   199   201   ar
    35   199   200   ar
    36    26    24    1
    37   201   203   ar
    38   206   207   ar
    39   171   172    1
    40   172   173    1
    41   191   192    1
    42   191   193    1
    43    10     8   ar
    44     6     8   ar
    45     6     5    1
    46   159   158    1
    47    25    24    1
    48   200   202   ar
    49   166   164   ar
    50   166   165   ar
    51     5     2    1
    52    24    21    1
    53   164   162   ar
    54   207   205   ar
    55   203   202   ar
    56   203   205   ar
    57   165   163   ar
    58     3     4    2
    59     3     2    1
    60   162   163   ar
    61   162   161    1
    62   158   161    1
    63   158   157    1
    64     2     1    1
    65   109   110    1
    66    21    22    1
    67    21    20    1
    68   110   111    1
    69   110   113    1
    70    23    22    2
    71   114   113    1
    72   114   116    1
    73   111   112    2
    74    56    54    1
    75    20    14   am
    76   113   115    1
    77   126   124   ar
    78   126   127   ar
    79   124   122   ar
    80    39    36    1
    81    14    15    2
    82    14    13    1
    83   128   127    1
    84    54    55    1
    85    54    51    1
    86    37    38    2
    87    37    36    1
    88   127   125   ar
    89   122   121    1
    90   122   123   ar
    91   121   118    1
    92    50    51    1
    93    12    13    1
    94    36    35    1
    95    64    63    1
    96    16    13    1
    97    16    17    1
    98    63    62    1
    99    51    52    1
   100    18    17    1
   101    35    29   am
   102   117   118    1
   103   125   123   ar
   104    27    28    1
   105    17    19    1
   106   118   119    1
   107    29    28    1
   108    29    30    2
   109   136   134    1
   110   104   103    2
   111    62    61    1
   112    52    53    2
   113    28    31    1
   114    74    75   ar
   115    74    72   ar
   116   119   129   am
   117   119   120    2
   118   134   133    1
   119    40    41    1
   120    42    43    2
   121    42    41    1
   122   129   130    1
   123    75    73   ar
   124    61    58    1
   125    31    32    1
   126   103   102    1
   127    41    44    1
   128    72    70   ar
   129    44    45    1
   130   133   130    1
   131   133   135    1
   132   102   101    1
   133   102   105    1
   134    32    33    1
   135   130   131    1
   136    73    71   ar
   137    57    58    1
   138    58    59    1
   139    46    45   ar
   140    46    48   ar
   141   107   105    1
   142    45    47   ar
   143    33    34    1
   144    70    71   ar
   145    70    69    1
   146   105   106    1
   147   106   108    1
   148   131   132    2
   149    65    59   am
   150    65    66    1
   151    59    60    2
   152    48    49   ar
   153    47    49   ar
   154   143   142    1
   155   143   144    1
   156    69    66    1
   157   141   142    1
   158   141   138    1
   159    66    67    1
   160    99    98    1
   161   137   138    1
   162    96    95    2
   163   138   139    1
   164    81    80    1
   165    80    77    1
   166    67    68    2
   167   156   155    1
   168    98   100    1
   169    98    97    1
   170    95    94    1
   171    94    97    1
   172    94    93    1
   173   139   140    2
   174    76    77    1
   175    77    78    1
   176   155   153   ar
   177   155   154   ar
   178   153   151   ar
   179   154   152   ar
   180    78    79    2
   181   151   150   ar
   182   152   150   ar
   183   150   149    1
   184    88    90   ar
   185    88    87   ar
   186    90    92   ar
   187   145   146    1
   188    86    87    1
   189    86    83    1
   190    87    89   ar
   191    92    91   ar
   192   149   146    1
   193    82    83    1
   194   146   147    1
   195    83    84    1
   196    89    91   ar
   197   147   148    2
   198    84    85    2
