@<TRIPOS>MOLECULE
tmp/5q12A01.pdb
 193 185 0 0 0
SMALL
GASTEIGER

@<TRIPOS>ATOM
      1  N         -7.1740   45.6680    7.4630 N.3    42  PHE42      -0.1241
      2  CA        -8.0700   46.5830    8.1750 C.3    42  PHE42       0.1605
      3  C         -7.4820   47.9910    8.3400 C.2    42  PHE42       0.2264
      4  O         -8.2240   48.9780    8.2780 O.2    42  PHE42      -0.2867
      5  CB        -8.5230   45.9920    9.5120 C.3    42  PHE42       0.0534
      6  CG        -9.7030   46.7300   10.0890 C.ar   42  PHE42      -0.0203
      7  CD1      -10.9980   46.4200    9.6920 C.ar   42  PHE42      -0.0042
      8  CD2       -9.5190   47.7490   11.0190 C.ar   42  PHE42      -0.0042
      9  CE1      -12.0910   47.1020   10.2270 C.ar   42  PHE42      -0.0003
     10  CE2      -10.6150   48.4480   11.5370 C.ar   42  PHE42      -0.0003
     11  CZ       -11.8920   48.0990   11.1580 C.ar   42  PHE42      -0.0000
     12  N         -8.2730   49.8990    5.2290 N.3    45  LEU45      -0.1231
     13  CA        -9.6890   50.2890    5.2840 C.3    45  LEU45       0.1693
     14  C         -9.9140   51.4610    6.2480 C.2    45  LEU45       0.2592
     15  O        -10.7810   52.3020    5.9900 O.2    45  LEU45      -0.2718
     16  CB       -10.5920   49.1040    5.6560 C.3    45  LEU45       0.0284
     17  CG       -10.4770   47.8130    4.7970 C.3    45  LEU45       0.0019
     18  CD1      -11.5760   46.8250    5.1610 C.3    45  LEU45       0.0001
     19  CD2      -10.5310   48.1190    3.2950 C.3    45  LEU45       0.0001
     20  N         -9.1210   51.5320    7.3390 N.am   46  THR46      -0.1953
     21  CA        -9.1840   52.6330    8.3260 C.3    46  THR46       0.1897
     22  C         -8.7230   53.9290    7.6590 C.2    46  THR46       0.2313
     23  O         -9.3810   54.9510    7.7940 O.2    46  THR46      -0.2863
     24  CB        -8.3890   52.2660    9.6060 C.3    46  THR46       0.1794
     25  OG1       -8.9720   51.0920   10.1620 O.3    46  THR46      -0.2208
     26  CG2       -8.4210   53.3770   10.6680 C.3    46  THR46       0.0378
     27  N         -8.7400   54.5230    4.4360 N.3    48  MET48      -0.1230
     28  CA        -9.7190   54.8560    3.4110 C.3    48  MET48       0.1702
     29  C        -10.9220   55.5280    4.0350 C.2    48  MET48       0.2592
     30  O        -11.3800   56.5450    3.5220 O.2    48  MET48      -0.2718
     31  CB       -10.1240   53.6100    2.6210 C.3    48  MET48       0.0401
     32  CG        -9.0660   53.1950    1.6350 C.3    48  MET48       0.0596
     33  SD        -9.5750   51.7210    0.7430 S.3    48  MET48      -0.1393
     34  CE        -9.1040   52.1770   -0.8810 C.3    48  MET48       0.0692
     35  N        -11.4050   54.9760    5.1700 N.am   49  ALA49      -0.1980
     36  CA       -12.5460   55.5060    5.9100 C.3    49  ALA49       0.1597
     37  C        -12.3120   56.9350    6.3960 C.2    49  ALA49       0.2287
     38  O        -13.2180   57.7540    6.2640 O.2    49  ALA49      -0.2864
     39  CB       -12.9060   54.5900    7.0720 C.3    49  ALA49       0.0319
     40  N        -12.5310   59.1940    3.4320 N.3    52  HIS52      -0.1241
     41  CA       -13.9540   59.3220    3.0820 C.3    52  HIS52       0.1621
     42  C        -14.6380   60.3960    3.9340 C.2    52  HIS52       0.2264
     43  O        -15.4590   61.1550    3.4200 O.2    52  HIS52      -0.2867
     44  CB       -14.7100   57.9880    3.2520 C.3    52  HIS52       0.0745
     45  CG       -14.4880   57.0050    2.1390 C.ar   52  HIS52       0.0817
     46  ND1      -14.7840   57.3200    0.8260 N.ar   52  HIS52      -0.2268
     47  CD2      -14.0440   55.7250    2.1900 C.ar   52  HIS52       0.1154
     48  CE1      -14.4690   56.2390    0.1150 C.ar   52  HIS52       0.1986
     49  NE2      -14.0250   55.2550    0.8940 N.ar   52  HIS52      -0.2212
     50  N        -20.4320   57.8470    2.3240 N.3    86  MET86      -0.1230
     51  CA       -19.2220   57.0180    2.3800 C.3    86  MET86       0.1702
     52  C        -19.4050   55.7620    1.5180 C.2    86  MET86       0.2592
     53  O        -18.5200   55.4590    0.7140 O.2    86  MET86      -0.2718
     54  CB       -18.8890   56.6100    3.8290 C.3    86  MET86       0.0401
     55  CG       -18.3120   57.7430    4.6800 C.3    86  MET86       0.0596
     56  SD       -18.2750   57.3760    6.4660 S.3    86  MET86      -0.1393
     57  CE       -16.9450   56.1550    6.5310 C.3    86  MET86       0.0692
     58  N        -20.5560   55.0370    1.6670 N.am   87  PHE87      -0.1976
     59  CA       -20.8330   53.8400    0.8650 C.3    87  PHE87       0.1639
     60  C        -20.9000   54.1920   -0.6340 C.2    87  PHE87       0.2290
     61  O        -20.3000   53.4890   -1.4470 O.2    87  PHE87      -0.2864
     62  CB       -22.1130   53.1060    1.3390 C.3    87  PHE87       0.0560
     63  CG       -21.8990   52.0160    2.3730 C.ar   87  PHE87      -0.0200
     64  CD1      -21.9190   52.3080    3.7300 C.ar   87  PHE87      -0.0042
     65  CD2      -21.6790   50.6980    1.9850 C.ar   87  PHE87      -0.0042
     66  CE1      -21.7230   51.3000    4.6880 C.ar   87  PHE87      -0.0003
     67  CE2      -21.4580   49.6960    2.9400 C.ar   87  PHE87      -0.0003
     68  CZ       -21.5060   49.9980    4.2870 C.ar   87  PHE87      -0.0000
     69  N        -17.3720   54.9840   -1.8940 N.3    90  SER90      -0.1217
     70  CA       -16.5910   53.7400   -1.9390 C.3    90  SER90       0.1889
     71  C        -16.9150   52.9030   -3.1780 C.2    90  SER90       0.2288
     72  O        -16.0220   52.2350   -3.7050 O.2    90  SER90      -0.2866
     73  CB       -16.7280   52.9400   -0.6490 C.3    90  SER90       0.2089
     74  OG       -17.9850   52.2930   -0.5580 O.3    90  SER90      -0.2183
     75  N        -10.5070   43.4660    1.6560 N.3   110  ILE110     -0.1245
     76  CA       -11.8070   43.6670    2.3170 C.3   110  ILE110      0.1561
     77  C        -12.3380   42.3300    2.8440 C.2   110  ILE110      0.2260
     78  O        -12.7600   42.2500    3.9970 O.2   110  ILE110     -0.2867
     79  CB       -12.8250   44.3950    1.3790 C.3   110  ILE110      0.0252
     80  CG1      -12.4250   45.8680    1.1750 C.3   110  ILE110      0.0019
     81  CG2      -14.2700   44.2940    1.9250 C.3   110  ILE110      0.0019
     82  CD1      -13.1510   46.6370    0.0870 C.3   110  ILE110      0.0001
     83  N        -13.9490   40.7760    8.8020 N.3   115  ILE115     -0.1245
     84  CA       -15.3120   41.3070    8.8370 C.3   115  ILE115      0.1561
     85  C        -16.2480   40.2160    8.3420 C.2   115  ILE115      0.2260
     86  O        -15.9910   39.6220    7.2970 O.2   115  ILE115     -0.2867
     87  CB       -15.4760   42.6220    8.0220 C.3   115  ILE115      0.0252
     88  CG1      -14.4560   43.6980    8.4650 C.3   115  ILE115      0.0019
     89  CG2      -16.9320   43.1470    8.1160 C.3   115  ILE115      0.0019
     90  CD1      -14.2670   44.8410    7.4810 C.3   115  ILE115      0.0001
     91  N        -20.1860   42.1480    4.3760 N.3   120  ILE120     -0.1245
     92  CA       -19.3750   42.2170    3.1580 C.3   120  ILE120      0.1561
     93  C        -20.2110   41.8970    1.8970 C.2   120  ILE120      0.2260
     94  O        -20.0800   42.6050    0.8920 O.2   120  ILE120     -0.2867
     95  CB       -18.0940   41.3390    3.3130 C.3   120  ILE120      0.0252
     96  CG1      -17.1250   41.8900    4.4070 C.3   120  ILE120      0.0019
     97  CG2      -17.3640   41.1000    1.9940 C.3   120  ILE120      0.0019
     98  CD1      -16.8110   43.4500    4.4030 C.3   120  ILE120      0.0001
     99  N        -22.4180   44.8030    0.5430 N.3   123  MET123     -0.1245
    100  CA       -21.5330   45.8490    0.0340 C.3   123  MET123      0.1570
    101  C        -21.1810   45.6040   -1.4370 C.2   123  MET123      0.2261
    102  O        -21.4530   46.4680   -2.2620 O.2   123  MET123     -0.2867
    103  CB       -20.2730   45.9100    0.9030 C.3   123  MET123      0.0387
    104  CG       -19.4520   47.1420    0.7060 C.3   123  MET123      0.0595
    105  SD       -17.9820   47.0790    1.7670 S.3   123  MET123     -0.1393
    106  CE       -18.7330   46.9510    3.4020 C.3   123  MET123      0.0692
    107  N        -22.2100   47.4590   -4.9850 N.3   127  TYR127     -0.1241
    108  CA       -21.2040   47.8800   -5.9610 C.3   127  TYR127      0.1605
    109  C        -21.5730   47.3710   -7.3580 C.2   127  TYR127      0.2264
    110  O        -21.4600   48.1280   -8.3220 O.2   127  TYR127     -0.2867
    111  CB       -19.8040   47.3790   -5.5780 C.3   127  TYR127      0.0534
    112  CG       -19.1610   48.0040   -4.3530 C.ar  127  TYR127     -0.0201
    113  CD1      -19.7760   49.0520   -3.6690 C.ar  127  TYR127     -0.0009
    114  CD2      -17.9490   47.5340   -3.8660 C.ar  127  TYR127     -0.0009
    115  CE1      -19.1970   49.6100   -2.5300 C.ar  127  TYR127      0.0417
    116  CE2      -17.3550   48.0920   -2.7400 C.ar  127  TYR127      0.0417
    117  CZ       -17.9820   49.1300   -2.0760 C.ar  127  TYR127      0.1957
    118  OH       -17.3830   49.6750   -0.9710 O.3   127  TYR127     -0.2866
    119  N        -24.2150   48.9720    8.8450 N.3   205  HIS205     -0.1241
    120  CA       -22.9920   49.6170    9.3330 C.3   205  HIS205      0.1621
    121  C        -22.9850   49.7420   10.8610 C.2   205  HIS205      0.2264
    122  O        -21.9620   49.4760   11.4920 O.2   205  HIS205     -0.2867
    123  CB       -22.8160   50.9860    8.6670 C.3   205  HIS205      0.0745
    124  CG       -21.4580   51.5750    8.8640 C.ar  205  HIS205      0.0817
    125  ND1      -21.1910   52.4280    9.9140 N.ar  205  HIS205     -0.2268
    126  CD2      -20.3320   51.4130    8.1330 C.ar  205  HIS205      0.1154
    127  CE1      -19.9200   52.7610    9.7870 C.ar  205  HIS205      0.1986
    128  NE2      -19.3640   52.1710    8.7320 N.ar  205  HIS205     -0.2212
    129  N        -22.4940   46.3130   12.2560 N.3   208  MET208     -0.1230
    130  CA       -21.1010   45.9510   11.9640 C.3   208  MET208      0.1702
    131  C        -20.1890   46.4760   13.0810 C.2   208  MET208      0.2592
    132  O        -19.4360   45.7060   13.6820 O.2   208  MET208     -0.2718
    133  CB       -20.6810   46.5500   10.6100 C.3   208  MET208      0.0401
    134  CG       -19.4820   45.8860    9.9790 C.3   208  MET208      0.0596
    135  SD       -18.6740   46.8940    8.7090 S.3   208  MET208     -0.1393
    136  CE       -20.0100   47.1180    7.5040 C.3   208  MET208      0.0692
    137  N        -20.2750   47.7950   13.3700 N.am  209  LEU209     -0.1980
    138  CA       -19.4670   48.4480   14.4060 C.3   209  LEU209      0.1596
    139  C        -19.6740   47.8370   15.7900 C.2   209  LEU209      0.2287
    140  O        -18.7030   47.6510   16.5090 O.2   209  LEU209     -0.2864
    141  CB       -19.7120   49.9690   14.4560 C.3   209  LEU209      0.0297
    142  CG       -19.3440   50.7800   13.2150 C.3   209  LEU209      0.0022
    143  CD1      -19.5920   52.2470   13.4420 C.3   209  LEU209      0.0001
    144  CD2      -17.9150   50.5860   12.8320 C.3   209  LEU209      0.0001
    145  N        -17.8090   44.3990   16.5680 N.3   212  TRP212     -0.1241
    146  CA       -16.3870   44.4700   16.8870 C.3   212  TRP212      0.1605
    147  C        -16.2500   44.8670   18.3670 C.2   212  TRP212      0.2264
    148  O        -16.8020   45.8920   18.7760 O.2   212  TRP212     -0.2867
    149  CB       -15.6660   45.4810   15.9640 C.3   212  TRP212      0.0550
    150  CG       -15.8860   45.2940   14.4850 C.ar  212  TRP212      0.0003
    151  CD1      -16.2220   44.1400   13.8370 C.ar  212  TRP212      0.0946
    152  CD2      -15.6990   46.2850   13.4640 C.ar  212  TRP212      0.0152
    153  NE1      -16.2870   44.3590   12.4800 N.ar  212  TRP212     -0.2442
    154  CE2      -15.9720   45.6670   12.2230 C.ar  212  TRP212      0.0810
    155  CE3      -15.3520   47.6470   13.4780 C.ar  212  TRP212      0.0012
    156  CZ2      -15.8890   46.3590   11.0080 C.ar  212  TRP212      0.0191
    157  CZ3      -15.2670   48.3280   12.2730 C.ar  212  TRP212      0.0001
    158  CH2      -15.5580   47.6920   11.0590 C.ar  212  TRP212      0.0015
    159  N        -11.9820   50.9090   16.3240 N.3   220  THR220     -0.1218
    160  CA       -11.3030   52.1510   15.9410 C.3   220  THR220      0.1862
    161  C        -12.0860   53.3360   16.4880 C.2   220  THR220      0.2287
    162  O        -13.0080   53.8260   15.8250 O.2   220  THR220     -0.2866
    163  CB       -11.0920   52.2010   14.4120 C.3   220  THR220      0.1770
    164  OG1      -12.3510   52.0090   13.7740 O.3   220  THR220     -0.2211
    165  CG2      -10.1170   51.1450   13.9200 C.3   220  THR220      0.0375
    166  N        -13.2690   56.6410   14.3510 N.3   223  LEU223     -0.1231
    167  CA       -14.4090   56.4810   13.4490 C.3   223  LEU223      0.1693
    168  C        -15.6670   56.0160   14.1530 C.2   223  LEU223      0.2592
    169  O        -16.7160   56.6120   13.9400 O.2   223  LEU223     -0.2718
    170  CB       -14.0720   55.5550   12.2810 C.3   223  LEU223      0.0284
    171  CG       -12.9700   56.0330   11.3430 C.3   223  LEU223      0.0019
    172  CD1      -12.3250   54.8680   10.6520 C.3   223  LEU223      0.0001
    173  CD2      -13.4900   57.0590   10.3410 C.3   223  LEU223      0.0001
    174  N        -15.5660   54.9730   15.0020 N.am  224  CYS224     -0.1970
    175  CA       -16.7040   54.3880   15.7110 C.3   224  CYS224      0.1712
    176  C        -17.4670   55.3820   16.5940 C.2   224  CYS224      0.2296
    177  O        -18.6980   55.3040   16.6370 O.2   224  CYS224     -0.2864
    178  CB       -16.2830   53.1460   16.4910 C.3   224  CYS224      0.0983
    179  SG       -15.6680   51.7970   15.4430 S.3   224  CYS224     -0.0798
    180  N        -20.5870   57.6510   15.5080 N.3   227  TRP227     -0.1241
    181  CA       -21.9300   57.0550   15.6510 C.3   227  TRP227      0.1605
    182  C        -22.2910   56.5750   17.0750 C.2   227  TRP227      0.2264
    183  O        -23.4640   56.3020   17.3420 O.2   227  TRP227     -0.2867
    184  CB       -22.1060   55.9150   14.6330 C.3   227  TRP227      0.0550
    185  CG       -21.9580   56.3830   13.2150 C.ar  227  TRP227      0.0003
    186  CD1      -22.8910   57.0450   12.4740 C.ar  227  TRP227      0.0946
    187  CD2      -20.7750   56.3130   12.4030 C.ar  227  TRP227      0.0152
    188  NE1      -22.3770   57.3590   11.2370 N.ar  227  TRP227     -0.2442
    189  CE2      -21.0830   56.9100   11.1610 C.ar  227  TRP227      0.0810
    190  CE3      -19.4890   55.7830   12.5960 C.ar  227  TRP227      0.0012
    191  CZ2      -20.1500   57.0000   10.1200 C.ar  227  TRP227      0.0191
    192  CZ3      -18.5750   55.8400   11.5540 C.ar  227  TRP227      0.0001
    193  CH2      -18.9000   56.4590   10.3400 C.ar  227  TRP227      0.0015
@<TRIPOS>BOND
     1   110   109    2
     2   109   108    1
     3   108   111    1
     4   108   107    1
     5   111   112    1
     6   112   114   ar
     7   112   113   ar
     8   114   116   ar
     9    72    71    2
    10   113   115   ar
    11    71    70    1
    12   116   117   ar
    13   115   117   ar
    14   102   101    2
    15   117   118    1
    16    70    69    1
    17    70    73    1
    18    61    60    2
    19   101   100    1
    20    34    33    1
    21    73    74    1
    22    60    59    1
    23   100    99    1
    24   100   103    1
    25    82    80    1
    26    48    46   ar
    27    48    49   ar
    28   104   103    1
    29   104   105    1
    30    53    52    2
    31    33    32    1
    32    46    45   ar
    33    59    62    1
    34    59    58    1
    35    94    93    2
    36    49    47   ar
    37    80    79    1
    38    62    63    1
    39    79    81    1
    40    79    76    1
    41    52    58   am
    42    52    51    1
    43    32    31    1
    44    75    76    1
    45   105   106    1
    46    93    92    1
    47    65    63   ar
    48    65    67   ar
    49    97    95    1
    50    45    47   ar
    51    45    44    1
    52    76    77    1
    53    50    51    1
    54    63    64   ar
    55    51    54    1
    56    31    28    1
    57    77    78    2
    58    67    68   ar
    59    41    44    1
    60    41    40    1
    61    41    42    1
    62    92    95    1
    63    92    91    1
    64    19    17    1
    65    95    96    1
    66    28    29    1
    67    28    27    1
    68    43    42    2
    69    30    29    2
    70    64    66   ar
    71    54    55    1
    72    29    35   am
    73    68    66   ar
    74    98    96    1
    75    55    56    1
    76    17    18    1
    77    17    16    1
    78    35    36    1
    79    12    13    1
    80    13    16    1
    81    13    14    1
    82    36    37    1
    83    36    39    1
    84    15    14    2
    85    14    20   am
    86    38    37    2
    87    56    57    1
    88    86    85    2
    89    20    21    1
    90     1     2    1
    91    90    88    1
    92   136   135    1
    93    22    23    2
    94    22    21    1
    95    87    89    1
    96    87    88    1
    97    87    84    1
    98   126   128   ar
    99   126   124   ar
   100     2     3    1
   101     2     5    1
   102     4     3    2
   103    21    24    1
   104    85    84    1
   105   123   124    1
   106   123   120    1
   107   135   134    1
   108   128   127   ar
   109    83    84    1
   110   119   120    1
   111   124   125   ar
   112   120   121    1
   113     5     6    1
   114    24    25    1
   115    24    26    1
   116     7     6   ar
   117     7     9   ar
   118   127   125   ar
   119   134   133    1
   120     6     8   ar
   121   191   193   ar
   122   191   189   ar
   123     9    11   ar
   124   193   192   ar
   125   173   171    1
   126   133   130    1
   127   172   171    1
   128   121   122    2
   129   156   158   ar
   130   156   154   ar
   131     8    10   ar
   132   158   157   ar
   133    11    10   ar
   134   189   188   ar
   135   189   187   ar
   136   188   186   ar
   137   171   170    1
   138   192   190   ar
   139   130   129    1
   140   130   131    1
   141   154   153   ar
   142   154   152   ar
   143   157   155   ar
   144   170   167    1
   145   187   190   ar
   146   187   185   ar
   147   186   185   ar
   148   153   151   ar
   149   144   142    1
   150   131   137   am
   151   131   132    2
   152   185   184    1
   153   142   143    1
   154   142   141    1
   155   137   138    1
   156   167   168    1
   157   167   166    1
   158   152   155   ar
   159   152   150   ar
   160   164   163    1
   161   151   150   ar
   162   165   163    1
   163   169   168    2
   164   168   174   am
   165   138   141    1
   166   138   139    1
   167   163   160    1
   168   150   149    1
   169   184   181    1
   170   174   175    1
   171   179   178    1
   172   180   181    1
   173   181   182    1
   174   175   178    1
   175   175   176    1
   176   139   140    2
   177   162   161    2
   178   160   159    1
   179   160   161    1
   180   149   146    1
   181   145   146    1
   182   176   177    2
   183   146   147    1
   184   182   183    2
   185   147   148    2
