@<TRIPOS>MOLECULE
tmp/5q12A00.pdb
 96 91 0 0 0
SMALL
GASTEIGER

@<TRIPOS>ATOM
      1  N        -14.3120   60.4410    5.2360 N.3    53  VAL53      -0.1231
      2  CA       -14.9000   61.3950    6.1920 C.3    53  VAL53       0.1692
      3  C        -14.4610   62.8300    5.8770 C.2    53  VAL53       0.2591
      4  O        -15.2950   63.7360    5.8500 O.2    53  VAL53      -0.2718
      5  CB       -14.6580   60.9920    7.6770 C.3    53  VAL53       0.0266
      6  CG1      -15.2060   62.0540    8.6400 C.3    53  VAL53       0.0020
      7  CG2      -15.3020   59.6380    7.9790 C.3    53  VAL53       0.0020
      8  N        -13.1640   63.0240    5.6290 N.am   54  GLN54      -0.1979
      9  CA       -12.5950   64.3350    5.3230 C.3    54  GLN54       0.1601
     10  C        -13.1470   64.8710    3.9990 C.2    54  GLN54       0.2287
     11  O        -13.5560   66.0290    3.9300 O.2    54  GLN54      -0.2864
     12  CB       -11.0600   64.2740    5.3190 C.3    54  GLN54       0.0394
     13  CG       -10.4740   63.9600    6.6910 C.3    54  GLN54       0.0908
     14  CD        -8.9820   63.7370    6.6190 C.2    54  GLN54       0.2608
     15  OE1       -8.4930   62.6750    6.2380 O.2    54  GLN54      -0.2717
     16  NE2       -8.2280   64.7200    7.0180 N.am   54  GLN54      -0.0878
     17  N        -16.9300   65.9880    4.3030 N.3    57  VAL57      -0.1231
     18  CA       -17.0850   67.3060    4.9340 C.3    57  VAL57       0.1692
     19  C        -16.7180   68.4400    3.9720 C.2    57  VAL57       0.2591
     20  O        -17.4460   69.4230    3.9030 O.2    57  VAL57      -0.2718
     21  CB       -16.3430   67.4010    6.2890 C.3    57  VAL57       0.0266
     22  CG1      -16.4550   68.8090    6.8840 C.3    57  VAL57       0.0020
     23  CG2      -16.8930   66.3680    7.2700 C.3    57  VAL57       0.0020
     24  N        -15.6280   68.2820    3.2060 N.am   58  GLU58      -0.1979
     25  CA       -15.1780   69.3030    2.2550 C.3    58  GLU58       0.1602
     26  C        -16.1580   69.4840    1.1090 C.2    58  GLU58       0.2287
     27  O        -16.4250   70.6220    0.7000 O.2    58  GLU58      -0.2864
     28  CB       -13.7410   69.0410    1.7650 C.3    58  GLU58       0.0415
     29  CG       -12.6860   69.2460    2.8540 C.3    58  GLU58       0.1163
     30  CD       -12.8370   70.4870    3.7240 C.2    58  GLU58       0.3649
     31  OE1      -12.8660   71.6100    3.1700 O.co2  58  GLU58      -0.2457
     32  OE2      -12.9560   70.3320    4.9620 O.co2  58  GLU58      -0.2457
     33  N        -19.5360   71.2720    2.6520 N.3    61  LYS61      -0.1245
     34  CA       -19.3330   72.7040    2.9450 C.3    61  LYS61       0.1561
     35  C        -19.5110   73.5900    1.7170 C.2    61  LYS61       0.2260
     36  O        -19.9620   74.7290    1.8490 O.2    61  LYS61      -0.2867
     37  CB       -17.9280   72.9470    3.5270 C.3    61  LYS61       0.0271
     38  CG       -17.7650   72.5900    4.9910 C.3    61  LYS61       0.0035
     39  CD       -16.3030   72.2790    5.3620 C.3    61  LYS61       0.0206
     40  CE       -15.3750   73.4700    5.3630 C.3    61  LYS61       0.1093
     41  NZ       -13.9740   73.0670    5.6610 N.3    61  LYS61      -0.1314
     42  N        -25.5560   75.2740    1.5950 N.3    66  PHE66      -0.1227
     43  CA       -25.2420   74.5830    2.8600 C.3    66  PHE66       0.1736
     44  C        -24.7850   75.5450    3.9650 C.2    66  PHE66       0.2595
     45  O        -25.2210   75.4030    5.1070 O.2    66  PHE66      -0.2718
     46  CB       -24.2220   73.4460    2.6610 C.3    66  PHE66       0.0547
     47  CG       -24.0440   72.5880    3.8930 C.ar   66  PHE66      -0.0202
     48  CD1      -24.9040   71.5290    4.1520 C.ar   66  PHE66      -0.0042
     49  CD2      -22.9990   72.8240    4.7790 C.ar   66  PHE66      -0.0042
     50  CE1      -24.7480   70.7480    5.3020 C.ar   66  PHE66      -0.0003
     51  CE2      -22.8290   72.0260    5.9090 C.ar   66  PHE66      -0.0003
     52  CZ       -23.7100   70.9980    6.1650 C.ar   66  PHE66      -0.0000
     53  N        -23.9560   76.5440    3.6110 N.am   67  GLN67      -0.1979
     54  CA       -23.4450   77.5490    4.5530 C.3    67  GLN67       0.1601
     55  C        -24.5280   78.4610    5.1330 C.2    67  GLN67       0.2287
     56  O        -24.3150   79.0330    6.1950 O.2    67  GLN67      -0.2864
     57  CB       -22.3070   78.3800    3.9290 C.3    67  GLN67       0.0394
     58  CG       -21.0000   77.6060    3.6950 C.3    67  GLN67       0.0908
     59  CD       -20.3470   77.0920    4.9590 C.2    67  GLN67       0.2608
     60  OE1      -20.1850   75.8840    5.1490 O.2    67  GLN67      -0.2717
     61  NE2      -19.9600   77.9940    5.8500 N.am   67  GLN67      -0.0878
     62  N        -26.3270   76.3490   12.0630 N.3    71  HIS71      -0.1241
     63  CA       -25.1130   75.6020   12.3700 C.3    71  HIS71       0.1621
     64  C        -25.3590   74.1940   12.9200 C.2    71  HIS71       0.2264
     65  O        -24.6750   73.2640   12.4920 O.2    71  HIS71      -0.2867
     66  CB       -24.1870   76.3850   13.2880 C.3    71  HIS71       0.0745
     67  CG       -22.8270   75.7830   13.3570 C.ar   71  HIS71       0.0817
     68  ND1      -22.4410   74.9970   14.4270 N.ar   71  HIS71      -0.2268
     69  CD2      -21.8280   75.8130   12.4480 C.ar   71  HIS71       0.1154
     70  CE1      -21.2060   74.6150   14.1550 C.ar   71  HIS71       0.1986
     71  NE2      -20.8030   75.0740   12.9700 N.ar   71  HIS71      -0.2212
     72  N        -26.4250   71.8970   10.1710 N.3    74  GLN74      -0.1231
     73  CA       -25.2800   71.5300    9.3240 C.3    74  GLN74       0.1698
     74  C        -24.6110   70.2460    9.8470 C.2    74  GLN74       0.2592
     75  O        -24.2630   69.3500    9.0620 O.2    74  GLN74      -0.2718
     76  CB       -24.2580   72.6730    9.2640 C.3    74  GLN74       0.0381
     77  CG       -24.7030   73.8760    8.4380 C.3    74  GLN74       0.0905
     78  CD       -23.6720   74.9760    8.3960 C.2    74  GLN74       0.2608
     79  OE1      -22.4640   74.7460    8.4180 O.2    74  GLN74      -0.2717
     80  NE2      -24.1280   76.2060    8.2880 N.am   74  GLN74      -0.0878
     81  N        -24.4610   70.1620   11.1860 N.am   75  ILE75      -0.1980
     82  CA       -23.8720   69.0290   11.9080 C.3    75  ILE75       0.1595
     83  C        -24.7950   67.8210   11.8170 C.2    75  ILE75       0.2287
     84  O        -24.3210   66.7220   11.5520 O.2    75  ILE75      -0.2864
     85  CB       -23.5690   69.4250   13.3950 C.3    75  ILE75       0.0276
     86  CG1      -22.5160   70.5570   13.4880 C.3    75  ILE75       0.0022
     87  CG2      -23.1940   68.2150   14.2730 C.3    75  ILE75       0.0022
     88  CD1      -21.1040   70.2210   12.9670 C.3    75  ILE75       0.0001
     89  N        -24.5210   66.2710    8.3560 N.3    78  LEU78      -0.1245
     90  CA       -23.2490   65.5550    8.2130 C.3    78  LEU78       0.1561
     91  C        -23.3140   64.1900    8.9220 C.2    78  LEU78       0.2260
     92  O        -23.0010   63.1770    8.2920 O.2    78  LEU78      -0.2867
     93  CB       -22.0800   66.3860    8.7700 C.3    78  LEU78       0.0270
     94  CG       -21.4990   67.4920    7.8950 C.3    78  LEU78       0.0019
     95  CD1      -20.4880   68.3000    8.6830 C.3    78  LEU78       0.0001
     96  CD2      -20.8300   66.9220    6.6510 C.3    78  LEU78       0.0001
@<TRIPOS>BOND
     1    27    26    2
     2    26    25    1
     3    42    43    1
     4    35    36    2
     5    35    34    1
     6    28    25    1
     7    28    29    1
     8    25    24    1
     9    33    34    1
    10    46    43    1
    11    46    47    1
    12    29    30    1
    13    43    44    1
    14    34    37    1
    15    31    30   ar
    16    24    19   am
    17    37    38    1
    18    53    44   am
    19    53    54    1
    20    58    57    1
    21    58    59    1
    22    30    32   ar
    23    47    48   ar
    24    47    49   ar
    25    20    19    2
    26    57    54    1
    27    11    10    2
    28    44    45    2
    29    19    18    1
    30    10     9    1
    31    48    50   ar
    32    17    18    1
    33    54    55    1
    34    49    51   ar
    35    18    21    1
    36    59    60    2
    37    59    61   am
    38    38    39    1
    39    55    56    2
    40     1     2    1
    41    50    52   ar
    42    12     9    1
    43    12    13    1
    44     9     8    1
    45    39    40    1
    46    40    41    1
    47     8     3   am
    48     4     3    2
    49     3     2    1
    50    51    52   ar
    51     2     5    1
    52    15    14    2
    53    21    22    1
    54    21    23    1
    55    14    13    1
    56    14    16   am
    57    96    94    1
    58     5     7    1
    59     5     6    1
    60    94    95    1
    61    94    93    1
    62    90    89    1
    63    90    93    1
    64    90    91    1
    65    80    78   am
    66    92    91    2
    67    78    79    2
    68    78    77    1
    69    77    76    1
    70    75    74    2
    71    76    73    1
    72    73    74    1
    73    73    72    1
    74    74    81   am
    75    81    82    1
    76    84    83    2
    77    83    82    1
    78    82    85    1
    79    62    63    1
    80    63    64    1
    81    63    66    1
    82    69    71   ar
    83    69    67   ar
    84    65    64    2
    85    88    86    1
    86    71    70   ar
    87    66    67    1
    88    67    68   ar
    89    85    86    1
    90    85    87    1
    91    70    68   ar
