@<TRIPOS>MOLECULE
tmp/5q13C00.pdb
 104 98 0 0 0
SMALL
GASTEIGER

@<TRIPOS>ATOM
      1  N         23.8410    1.9720   18.9910 N.3    54  GLN54      -0.1245
      2  CA        25.1520    1.4100   19.3510 C.3    54  GLN54       0.1566
      3  C         25.4980    0.2020   18.4880 C.2    54  GLN54       0.2260
      4  O         26.5860    0.1490   17.9190 O.2    54  GLN54      -0.2867
      5  CB        25.1850    0.9990   20.8280 C.3    54  GLN54       0.0367
      6  CG        25.2310    2.1640   21.7790 C.3    54  GLN54       0.0905
      7  CD        25.1210    1.7340   23.2150 C.2    54  GLN54       0.2608
      8  OE1       24.7590    0.5990   23.5430 O.2    54  GLN54      -0.2717
      9  NE2       25.3740    2.6640   24.1060 N.am   54  GLN54      -0.0878
     10  N         25.9390    1.0070   14.7150 N.3    57  VAL57      -0.1231
     11  CA        27.2940    1.5030   14.3900 C.3    57  VAL57       0.1692
     12  C         28.2380    0.3180   14.1340 C.2    57  VAL57       0.2591
     13  O         29.0100    0.3530   13.1740 O.2    57  VAL57      -0.2718
     14  CB        27.8710    2.4980   15.4370 C.3    57  VAL57       0.0266
     15  CG1       29.2640    2.9880   15.0230 C.3    57  VAL57       0.0020
     16  CG2       26.9410    3.6910   15.6270 C.3    57  VAL57       0.0020
     17  N         28.1620   -0.7250   14.9770 N.am   58  GLU58      -0.1979
     18  CA        28.9890   -1.9430   14.8440 C.3    58  GLU58       0.1602
     19  C         28.7110   -2.6680   13.5440 C.2    58  GLU58       0.2287
     20  O         29.6490   -3.0810   12.8620 O.2    58  GLU58      -0.2864
     21  CB        28.7920   -2.9030   16.0350 C.3    58  GLU58       0.0415
     22  CG        29.5310   -2.4780   17.2930 C.3    58  GLU58       0.1163
     23  CD        31.0320   -2.3280   17.1280 C.2    58  GLU58       0.3649
     24  OE1       31.7260   -3.3620   16.9860 O.co2  58  GLU58      -0.2457
     25  OE2       31.5070   -1.1690   17.1050 O.co2  58  GLU58      -0.2457
     26  N         27.2730   -1.2670   10.7300 N.3    60  THR60      -0.1203
     27  CA        27.6590   -0.3490    9.6530 C.3    60  THR60       0.1994
     28  C         29.1580   -0.4280    9.3310 C.2    60  THR60       0.2617
     29  O         29.5260   -0.5190    8.1620 O.2    60  THR60      -0.2717
     30  CB        27.2160    1.0560   10.0300 C.3    60  THR60       0.1784
     31  OG1       25.7940    1.0700   10.2110 O.3    60  THR60      -0.2211
     32  CG2       27.6100    2.0810    9.0220 C.3    60  THR60       0.0376
     33  N         30.0130   -0.4020   10.3600 N.am   61  LYS61      -0.1979
     34  CA        31.4580   -0.3990   10.1620 C.3    61  LYS61       0.1596
     35  C         31.9860   -1.7330    9.6240 C.2    61  LYS61       0.2287
     36  O         33.0490   -1.7610    9.0120 O.2    61  LYS61      -0.2864
     37  CB        32.2150    0.0910   11.4100 C.3    61  LYS61       0.0298
     38  CG        32.0110   -0.6770   12.6960 C.3    61  LYS61       0.0038
     39  CD        32.3550    0.1880   13.9230 C.3    61  LYS61       0.0206
     40  CE        33.8330    0.2130   14.2030 C.3    61  LYS61       0.1093
     41  NZ        34.1740    1.1940   15.2550 N.3    61  LYS61      -0.1314
     42  N         32.7460   -0.4270    3.7470 N.3    66  PHE66      -0.1227
     43  CA        32.4820    0.7750    4.5460 C.3    66  PHE66       0.1736
     44  C         33.7630    1.4890    5.0270 C.2    66  PHE66       0.2595
     45  O         33.7930    2.7230    5.0530 O.2    66  PHE66      -0.2718
     46  CB        31.5290    0.4940    5.7270 C.3    66  PHE66       0.0547
     47  CG        31.0390    1.7490    6.4270 C.ar   66  PHE66      -0.0202
     48  CD1       29.9410    2.4530    5.9420 C.ar   66  PHE66      -0.0042
     49  CD2       31.6880    2.2330    7.5620 C.ar   66  PHE66      -0.0042
     50  CE1       29.5040    3.6280    6.5730 C.ar   66  PHE66      -0.0003
     51  CE2       31.2300    3.3860    8.2160 C.ar   66  PHE66      -0.0003
     52  CZ        30.1460    4.0820    7.7130 C.ar   66  PHE66      -0.0000
     53  N         34.7970    0.7280    5.4130 N.am   67  GLN67      -0.1979
     54  CA        36.0710    1.2800    5.8900 C.3    67  GLN67       0.1601
     55  C         36.8720    1.9920    4.7730 C.2    67  GLN67       0.2287
     56  O         37.7820    2.7630    5.0860 O.2    67  GLN67      -0.2864
     57  CB        36.9510    0.2080    6.5920 C.3    67  GLN67       0.0394
     58  CG        36.3900   -0.3420    7.9120 C.3    67  GLN67       0.0908
     59  CD        36.0080    0.7430    8.8790 C.2    67  GLN67       0.2608
     60  OE1       36.8350    1.5460    9.3180 O.2    67  GLN67      -0.2717
     61  NE2       34.7330    0.8060    9.2080 N.am   67  GLN67      -0.0878
     62  N         36.0500    9.3540    6.0970 N.3    71  HIS71      -0.1241
     63  CA        35.5040    9.3420    7.4610 C.3    71  HIS71       0.1621
     64  C         34.3330   10.3130    7.6850 C.2    71  HIS71       0.2264
     65  O         33.4430    9.9770    8.4710 O.2    71  HIS71      -0.2867
     66  CB        36.6060    9.5260    8.5260 C.3    71  HIS71       0.0745
     67  CG        37.5110    8.3290    8.6650 C.ar   71  HIS71       0.0817
     68  ND1       38.4850    8.2710    9.6490 N.ar   71  HIS71      -0.2268
     69  CD2       37.5890    7.2000    7.9150 C.ar   71  HIS71       0.1154
     70  CE1       39.1050    7.1110    9.4810 C.ar   71  HIS71       0.1986
     71  NE2       38.6050    6.4320    8.4500 N.ar   71  HIS71      -0.2212
     72  N         31.3690    8.7240    6.1920 N.3    74  GLN74      -0.1231
     73  CA        30.9650    7.6420    7.1160 C.3    74  GLN74       0.1698
     74  C         29.9310    8.1380    8.1420 C.2    74  GLN74       0.2592
     75  O         28.9060    7.4840    8.3210 O.2    74  GLN74      -0.2718
     76  CB        32.1800    7.0250    7.8370 C.3    74  GLN74       0.0381
     77  CG        33.0770    6.2020    6.9130 C.3    74  GLN74       0.0905
     78  CD        34.2200    5.5080    7.6120 C.2    74  GLN74       0.2608
     79  OE1       34.2770    5.4050    8.8290 O.2    74  GLN74      -0.2717
     80  NE2       35.1640    5.0080    6.8460 N.am   74  GLN74      -0.0878
     81  N         30.1940    9.3050    8.7910 N.am   75  ILE75      -0.1980
     82  CA        29.3260    9.9470    9.8030 C.3    75  ILE75       0.1595
     83  C         27.9870   10.3420    9.1840 C.2    75  ILE75       0.2287
     84  O         26.9430   10.1070    9.7870 O.2    75  ILE75      -0.2864
     85  CB        30.0270   11.1770   10.4630 C.3    75  ILE75       0.0276
     86  CG1       31.3910   10.8040   11.0950 C.3    75  ILE75       0.0022
     87  CG2       29.1010   11.9200   11.4730 C.3    75  ILE75       0.0022
     88  CD1       31.3680    9.9250   12.2820 C.3    75  ILE75       0.0001
     89  N         25.8030    7.2460    8.6210 N.3    78  LEU78      -0.1245
     90  CA        25.3660    6.7720    9.9290 C.3    78  LEU78       0.1561
     91  C         24.2470    7.6590   10.4780 C.2    78  LEU78       0.2260
     92  O         23.1790    7.1410   10.7800 O.2    78  LEU78      -0.2867
     93  CB        26.5720    6.7290   10.8770 C.3    78  LEU78       0.0270
     94  CG        26.3530    6.0270   12.2010 C.3    78  LEU78       0.0019
     95  CD1       26.0370    4.5280   11.9940 C.3    78  LEU78       0.0001
     96  CD2       27.5750    6.2140   13.0960 C.3    78  LEU78       0.0001
     97  N         23.5990   10.4950   23.2980 N.3   222  LEU222     -0.1245
     98  CA        23.7310    9.7660   22.0310 C.3   222  LEU222      0.1561
     99  C         22.4930    9.9290   21.1310 C.2   222  LEU222      0.2260
    100  O         22.6460   10.0860   19.9220 O.2   222  LEU222     -0.2867
    101  CB        24.0570    8.2830   22.2690 C.3   222  LEU222      0.0270
    102  CG        24.2640    7.3800   21.0390 C.3   222  LEU222      0.0019
    103  CD1       25.4890    7.8250   20.1990 C.3   222  LEU222      0.0001
    104  CD2       24.4640    5.9500   21.4770 C.3   222  LEU222      0.0001
@<TRIPOS>BOND
     1    42    43    1
     2    43    44    1
     3    43    46    1
     4    55    56    2
     5    55    54    1
     6    44    45    2
     7    44    53   am
     8    53    54    1
     9    46    47    1
    10    54    57    1
    11    48    47   ar
    12    48    50   ar
    13    62    63    1
    14    72    73    1
    15    47    49   ar
    16    50    52   ar
    17    57    58    1
    18    80    78   am
    19    77    78    1
    20    77    76    1
    21    73    76    1
    22    73    74    1
    23    63    64    1
    24    63    66    1
    25    49    51   ar
    26    78    79    2
    27    64    65    2
    28    52    51   ar
    29    58    59    1
    30    69    71   ar
    31    69    67   ar
    32    74    75    2
    33    74    81   am
    34    29    28    2
    35    71    70   ar
    36    66    67    1
    37    89    90    1
    38    67    68   ar
    39    81    82    1
    40    59    61   am
    41    59    60    2
    42    36    35    2
    43    32    30    1
    44    83    84    2
    45    83    82    1
    46    28    27    1
    47    28    33   am
    48    70    68   ar
    49    35    34    1
    50    27    30    1
    51    27    26    1
    52    82    85    1
    53    90    91    1
    54    90    93    1
    55    30    31    1
    56    34    33    1
    57    34    37    1
    58    85    86    1
    59    85    87    1
    60    91    92    2
    61    93    94    1
    62    86    88    1
    63    37    38    1
    64    95    94    1
    65    94    96    1
    66    38    39    1
    67    20    19    2
    68    13    12    2
    69    19    18    1
    70    39    40    1
    71    12    11    1
    72    12    17   am
    73    40    41    1
    74    11    10    1
    75    11    14    1
    76    18    17    1
    77    18    21    1
    78    15    14    1
    79    14    16    1
    80    21    22    1
    81    24    23   ar
    82    25    23   ar
    83    23    22    1
    84     4     3    2
    85     3     2    1
    86     1     2    1
    87     2     5    1
    88   100    99    2
    89   103   102    1
    90     5     6    1
    91   102   104    1
    92   102   101    1
    93    99    98    1
    94     6     7    1
    95    98   101    1
    96    98    97    1
    97     7     8    2
    98     7     9   am
