@<TRIPOS>MOLECULE
tmp/5q13C01.pdb
 226 215 0 0 0
SMALL
GASTEIGER

@<TRIPOS>ATOM
      1  N         12.6290   -8.1530   23.2280 N.3    27  ILE27      -0.1231
      2  CA        11.8100   -6.9450   23.1190 C.3    27  ILE27       0.1692
      3  C         10.3070   -7.2560   23.2810 C.2    27  ILE27       0.2592
      4  O          9.6410   -6.6140   24.0970 O.2    27  ILE27      -0.2718
      5  CB        12.1480   -6.2100   21.7970 C.3    27  ILE27       0.0266
      6  CG1       13.6360   -5.7770   21.8150 C.3    27  ILE27       0.0019
      7  CG2       11.2210   -5.0020   21.5840 C.3    27  ILE27       0.0020
      8  CD1       14.2350   -5.4000   20.5430 C.3    27  ILE27       0.0001
      9  N          9.7860   -8.2520   22.5350 N.am   28  THR28      -0.1953
     10  CA         8.3620   -8.5800   22.6350 C.3    28  THR28       0.1897
     11  C          8.0170   -9.2160   23.9780 C.2    28  THR28       0.2313
     12  O          6.9180   -8.9590   24.4610 O.2    28  THR28      -0.2863
     13  CB         7.8430   -9.3720   21.4340 C.3    28  THR28       0.1794
     14  OG1        8.5640  -10.5970   21.2970 O.3    28  THR28      -0.2208
     15  CG2        7.9210   -8.5670   20.1530 C.3    28  THR28       0.0378
     16  N          7.4230   -6.2160   26.2810 N.3    31  ILE31      -0.1245
     17  CA         6.1880   -5.4880   25.9760 C.3    31  ILE31       0.1561
     18  C          4.9280   -6.3380   26.2990 C.2    31  ILE31       0.2260
     19  O          3.9450   -5.7950   26.8010 O.2    31  ILE31      -0.2867
     20  CB         6.2250   -4.9090   24.5220 C.3    31  ILE31       0.0252
     21  CG1        7.3390   -3.8470   24.4230 C.3    31  ILE31       0.0019
     22  CG2        4.8780   -4.2810   24.0980 C.3    31  ILE31       0.0019
     23  CD1        7.8620   -3.5620   22.9970 C.3    31  ILE31       0.0001
     24  N          6.8250    3.6530   28.9810 N.3    41  ASN41      -0.1240
     25  CA         6.9290    3.2840   27.5610 C.3    41  ASN41       0.1653
     26  C          7.8710    4.2180   26.7850 C.2    41  ASN41       0.2266
     27  O          8.5920    3.7540   25.9100 O.2    41  ASN41      -0.2867
     28  CB         5.5560    3.2760   26.9170 C.3    41  ASN41       0.1155
     29  CG         4.7140    2.1030   27.3360 C.2    41  ASN41       0.2627
     30  OD1        5.2080    0.9830   27.4280 O.2    41  ASN41      -0.2716
     31  ND2        3.4130    2.3270   27.5430 N.am   41  ASN41      -0.0877
     32  N         11.2780    3.0400   27.8000 N.3    44  ILE44      -0.1231
     33  CA        11.5600    1.7610   27.1290 C.3    44  ILE44       0.1692
     34  C         12.0690    2.0850   25.7190 C.2    44  ILE44       0.2591
     35  O         13.1180    1.5960   25.3370 O.2    44  ILE44      -0.2718
     36  CB        10.3380    0.7860   27.1200 C.3    44  ILE44       0.0266
     37  CG1       10.0960    0.2520   28.5450 C.3    44  ILE44       0.0019
     38  CG2       10.5830   -0.4060   26.1460 C.3    44  ILE44       0.0020
     39  CD1        8.7710   -0.3770   28.7830 C.3    44  ILE44       0.0001
     40  N         11.3650    2.9700   24.9780 N.am   45  LEU45      -0.1980
     41  CA        11.7790    3.3680   23.6290 C.3    45  LEU45       0.1596
     42  C         13.1820    4.0090   23.6140 C.2    45  LEU45       0.2287
     43  O         13.9850    3.6530   22.7640 O.2    45  LEU45      -0.2864
     44  CB        10.7100    4.2970   22.9790 C.3    45  LEU45       0.0297
     45  CG        10.9410    4.9110   21.5570 C.3    45  LEU45       0.0022
     46  CD1       11.7830    6.1290   21.5940 C.3    45  LEU45       0.0001
     47  CD2       11.5130    3.9170   20.5630 C.3    45  LEU45       0.0001
     48  N         15.7240    1.2850   24.2810 N.3    48  MET48      -0.1230
     49  CA        15.7310    0.3970   23.1000 C.3    48  MET48       0.1702
     50  C         16.4840    1.0290   21.9240 C.2    48  MET48       0.2592
     51  O         17.3270    0.3680   21.3040 O.2    48  MET48      -0.2718
     52  CB        14.3010    0.0250   22.6620 C.3    48  MET48       0.0401
     53  CG        13.5690   -0.8710   23.6350 C.3    48  MET48       0.0596
     54  SD        14.1980   -2.5540   23.6160 S.3    48  MET48      -0.1393
     55  CE        13.1900   -3.2880   24.9200 C.3    48  MET48       0.0692
     56  N         16.1790    2.3130   21.6340 N.am   49  ALA49      -0.1980
     57  CA        16.7830    3.0730   20.5510 C.3    49  ALA49       0.1597
     58  C         18.2850    3.3530   20.7700 C.2    49  ALA49       0.2287
     59  O         19.0420    3.2910   19.8100 O.2    49  ALA49      -0.2864
     60  CB        16.0030    4.3620   20.3090 C.3    49  ALA49       0.0319
     61  N         19.9720    0.1110   20.0760 N.3    52  HIS52      -0.1241
     62  CA        19.8530   -0.0290   18.6240 C.3    52  HIS52       0.1621
     63  C         20.9320    0.7640   17.8600 C.2    52  HIS52       0.2264
     64  O         21.5940    0.1900   16.9970 O.2    52  HIS52      -0.2867
     65  CB        18.4530    0.3310   18.1360 C.3    52  HIS52       0.0745
     66  CG        18.3170    0.2440   16.6490 C.ar   52  HIS52       0.0817
     67  ND1       18.4560    1.3590   15.8560 N.ar   52  HIS52      -0.2268
     68  CD2       18.2010   -0.8510   15.8560 C.ar   52  HIS52       0.1154
     69  CE1       18.3810    0.9210   14.6080 C.ar   52  HIS52       0.1986
     70  NE2       18.1970   -0.4020   14.5630 N.ar   52  HIS52      -0.2212
     71  N         15.9020    2.0900   12.5070 N.3    86  MET86      -0.1230
     72  CA        15.1320    1.8890   13.7360 C.3    86  MET86       0.1702
     73  C         13.6750    1.4880   13.3680 C.2    86  MET86       0.2592
     74  O         13.1460    0.5150   13.9100 O.2    86  MET86      -0.2718
     75  CB        15.1840    3.1890   14.5460 C.3    86  MET86       0.0401
     76  CG        14.8270    3.0420   15.9790 C.3    86  MET86       0.0596
     77  SD        13.1500    3.6090   16.2800 S.3    86  MET86      -0.1393
     78  CE        13.3480    5.3930   16.0800 C.3    86  MET86       0.0692
     79  N         13.0510    2.2040   12.4150 N.am   87  PHE87      -0.1976
     80  CA        11.6860    1.8700   11.9890 C.3    87  PHE87       0.1639
     81  C         11.5940    0.5380   11.2040 C.2    87  PHE87       0.2290
     82  O         10.6140   -0.2010   11.3580 O.2    87  PHE87      -0.2864
     83  CB        11.0330    3.0320   11.2250 C.3    87  PHE87       0.0560
     84  CG        10.4850    4.0910   12.1540 C.ar   87  PHE87      -0.0200
     85  CD1        9.2780    3.8980   12.8230 C.ar   87  PHE87      -0.0042
     86  CD2       11.1700    5.2790   12.3590 C.ar   87  PHE87      -0.0042
     87  CE1        8.7590    4.8840   13.6610 C.ar   87  PHE87      -0.0003
     88  CE2       10.6490    6.2670   13.2030 C.ar   87  PHE87      -0.0003
     89  CZ         9.4450    6.0660   13.8390 C.ar   87  PHE87      -0.0000
     90  N         13.6470   -2.0970   11.6680 N.3    89  ARG89      -0.1231
     91  CA        13.8220   -3.1260   12.6980 C.3    89  ARG89       0.1694
     92  C         12.5220   -3.2860   13.4930 C.2    89  ARG89       0.2592
     93  O         12.1260   -4.4090   13.8010 O.2    89  ARG89      -0.2718
     94  CB        14.9940   -2.7660   13.6230 C.3    89  ARG89       0.0321
     95  CG        15.3450   -3.8100   14.6890 C.3    89  ARG89       0.0489
     96  CD        15.7300   -5.1570   14.0980 C.3    89  ARG89       0.2205
     97  NE        16.2210   -6.0480   15.1400 N.pl3  89  ARG89      -0.0865
     98  CZ        16.5780   -7.3110   14.9560 C.cat  89  ARG89       0.5346
     99  NH1       16.4660   -7.8710   13.7570 N.pl3  89  ARG89       0.1354
    100  NH2       17.0320   -8.0340   15.9740 N.pl3  89  ARG89       0.1354
    101  N         11.8520   -2.1680   13.8070 N.am   90  SER90      -0.1952
    102  CA        10.5500   -2.1680   14.4990 C.3    90  SER90       0.1924
    103  C          9.5180   -2.9710   13.7010 C.2    90  SER90       0.2314
    104  O          8.8530   -3.8240   14.2760 O.2    90  SER90      -0.2863
    105  CB        10.0690   -0.7430   14.7410 C.3    90  SER90       0.2116
    106  OG        10.8510   -0.1290   15.7530 O.3    90  SER90      -0.2180
    107  N         10.2450   -6.7300   13.8340 N.3    93  ILE93      -0.1231
    108  CA         9.7910   -7.2670   15.1090 C.3    93  ILE93       0.1692
    109  C          8.2710   -7.3870   15.1550 C.2    93  ILE93       0.2592
    110  O          7.7580   -8.3970   15.6280 O.2    93  ILE93      -0.2718
    111  CB        10.3740   -6.4770   16.3080 C.3    93  ILE93       0.0266
    112  CG1       11.9190   -6.5120   16.3020 C.3    93  ILE93       0.0019
    113  CG2        9.8320   -7.0110   17.6230 C.3    93  ILE93       0.0020
    114  CD1       12.5060   -5.5010   17.2100 C.3    93  ILE93       0.0001
    115  N          7.5600   -6.3770   14.6430 N.am   94  PHE94      -0.1976
    116  CA         6.0890   -6.3530   14.6380 C.3    94  PHE94       0.1639
    117  C          5.4910   -7.5270   13.8500 C.2    94  PHE94       0.2290
    118  O          4.4170   -8.0240   14.1960 O.2    94  PHE94      -0.2864
    119  CB         5.6060   -5.0170   14.0390 C.3    94  PHE94       0.0560
    120  CG         4.1380   -4.7070   14.1980 C.ar   94  PHE94      -0.0200
    121  CD1        3.6710   -4.0330   15.3240 C.ar   94  PHE94      -0.0042
    122  CD2        3.2320   -5.0170   13.1880 C.ar   94  PHE94      -0.0042
    123  CE1        2.3140   -3.7020   15.4490 C.ar   94  PHE94      -0.0003
    124  CE2        1.8720   -4.6820   13.3130 C.ar   94  PHE94      -0.0003
    125  CZ         1.4240   -4.0350   14.4440 C.ar   94  PHE94      -0.0000
    126  N          0.3550   -7.3930   21.2980 N.3   106  LEU106     -0.1245
    127  CA         1.5180   -6.5610   20.9670 C.3   106  LEU106      0.1561
    128  C          1.0890   -5.2300   20.3400 C.2   106  LEU106      0.2260
    129  O          1.4710   -4.1710   20.8280 O.2   106  LEU106     -0.2867
    130  CB         2.5260   -7.2960   20.0450 C.3   106  LEU106      0.0270
    131  CG         3.8170   -6.5230   19.6760 C.3   106  LEU106      0.0019
    132  CD1        4.6840   -6.2600   20.9220 C.3   106  LEU106      0.0001
    133  CD2        4.6510   -7.3000   18.6950 C.3   106  LEU106      0.0001
    134  N         -0.8150   -2.9200   22.8500 N.3   109  ARG109     -0.1231
    135  CA         0.1540   -2.2850   23.7610 C.3   109  ARG109      0.1694
    136  C          0.8590   -1.1050   23.0700 C.2   109  ARG109      0.2591
    137  O          1.0140   -0.0460   23.6760 O.2   109  ARG109     -0.2718
    138  CB         1.1910   -3.3150   24.2640 C.3   109  ARG109      0.0321
    139  CG         0.6010   -4.3720   25.2140 C.3   109  ARG109      0.0489
    140  CD         0.6320   -3.9330   26.6690 C.3   109  ARG109      0.2205
    141  NE        -0.2470   -4.7310   27.5270 N.pl3 109  ARG109     -0.0865
    142  CZ         0.1200   -5.8390   28.1660 C.cat 109  ARG109      0.5346
    143  NH1        1.3450   -6.3200   28.0260 N.pl3 109  ARG109      0.1354
    144  NH2       -0.7330   -6.4680   28.9530 N.pl3 109  ARG109      0.1354
    145  N          1.2380   -1.2630   21.7920 N.am  110  ILE110     -0.1980
    146  CA         1.9100   -0.1940   21.0440 C.3   110  ILE110      0.1595
    147  C          0.9230    0.9570   20.7730 C.2   110  ILE110      0.2287
    148  O          1.2820    2.1240   20.9440 O.2   110  ILE110     -0.2864
    149  CB         2.6070   -0.7170   19.7700 C.3   110  ILE110      0.0276
    150  CG1        3.6370   -1.8340   20.1250 C.3   110  ILE110      0.0022
    151  CG2        3.2890    0.4370   19.0060 C.3   110  ILE110      0.0022
    152  CD1        4.0940   -2.6730   18.9500 C.3   110  ILE110      0.0001
    153  N          0.6220    2.9890   23.8830 N.3   113  SER113     -0.1217
    154  CA         1.9210    3.2910   24.4980 C.3   113  SER113      0.1889
    155  C          2.1320    4.7500   25.0110 C.2   113  SER113      0.2288
    156  O          3.0120    4.9770   25.8400 O.2   113  SER113     -0.2866
    157  CB         3.0460    2.9170   23.5450 C.3   113  SER113      0.2089
    158  OG         2.9510    3.6860   22.3570 O.3   113  SER113     -0.2183
    159  N          2.2110    7.3520   22.5930 N.3   115  ILE115     -0.1245
    160  CA         2.4040    8.1070   21.3480 C.3   115  ILE115      0.1561
    161  C          0.9760    8.5940   20.8860 C.2   115  ILE115      0.2260
    162  O         -0.0200    7.8840   21.1040 O.2   115  ILE115     -0.2867
    163  CB         3.0790    7.2170   20.2680 C.3   115  ILE115      0.0252
    164  CG1        3.3840    8.0050   18.9730 C.3   115  ILE115      0.0019
    165  CG2        2.2330    5.9890   19.9700 C.3   115  ILE115      0.0019
    166  CD1        3.8630    7.1760   17.8500 C.3   115  ILE115      0.0001
    167  N          2.6370    4.7380   11.1830 N.3   123  MET123     -0.1245
    168  CA         3.5080    3.7060   11.7430 C.3   123  MET123      0.1570
    169  C          2.9440    2.2940   11.4720 C.2   123  MET123      0.2261
    170  O          3.6670    1.4520   10.9370 O.2   123  MET123     -0.2867
    171  CB         3.7450    3.9710   13.2390 C.3   123  MET123      0.0387
    172  CG         4.8060    3.0970   13.8440 C.3   123  MET123      0.0595
    173  SD         5.1490    3.4250   15.5960 S.3   123  MET123     -0.1393
    174  CE         3.7200    2.7650   16.3290 C.3   123  MET123      0.0692
    175  N          4.1860   -0.8230    9.0030 N.3   127  TYR127     -0.1241
    176  CA         4.4400   -2.1820    9.5370 C.3   127  TYR127      0.1605
    177  C          3.6270   -3.2460    8.7920 C.2   127  TYR127      0.2264
    178  O          4.1720   -4.2930    8.4420 O.2   127  TYR127     -0.2867
    179  CB         4.1240   -2.2610   11.0370 C.3   127  TYR127      0.0534
    180  CG         4.9860   -1.3960   11.9290 C.ar  127  TYR127     -0.0201
    181  CD1        6.1490   -0.7890   11.4410 C.ar  127  TYR127     -0.0009
    182  CD2        4.6630   -1.2060   13.2690 C.ar  127  TYR127     -0.0009
    183  CE1        6.9530   -0.0090   12.2610 C.ar  127  TYR127      0.0417
    184  CE2        5.4550   -0.4160   14.0960 C.ar  127  TYR127      0.0417
    185  CZ         6.5960    0.1830   13.5870 C.ar  127  TYR127      0.1957
    186  OH         7.3490    1.0010   14.3830 O.3   127  TYR127     -0.2866
    187  N          9.9390   11.8710   12.6660 N.3   205  HIS205     -0.1241
    188  CA        10.3700   11.2580   13.9430 C.3   205  HIS205      0.1621
    189  C         10.3440   12.2220   15.1450 C.2   205  HIS205      0.2264
    190  O          9.8830   11.8290   16.2090 O.2   205  HIS205     -0.2867
    191  CB        11.7460   10.5600   13.8380 C.3   205  HIS205      0.0745
    192  CG        12.9140   11.4980   13.8880 C.ar  205  HIS205      0.0817
    193  ND1       13.2820   12.2600   12.7800 N.ar  205  HIS205     -0.2268
    194  CD2       13.7440   11.7920   14.9190 C.ar  205  HIS205      0.1154
    195  CE1       14.3300   12.9770   13.1670 C.ar  205  HIS205      0.1986
    196  NE2       14.6450   12.7360   14.4490 N.ar  205  HIS205     -0.2212
    197  N          6.8370   12.9220   16.2690 N.3   208  MET208     -0.1230
    198  CA         6.3160   11.6750   16.8200 C.3   208  MET208      0.1702
    199  C          6.7560   11.5410   18.2960 C.2   208  MET208      0.2592
    200  O          5.9320   11.2640   19.1540 O.2   208  MET208     -0.2718
    201  CB         6.8140   10.4780   15.9920 C.3   208  MET208      0.0401
    202  CG         6.0860    9.2150   16.3030 C.3   208  MET208      0.0596
    203  SD         6.5700    7.7190   15.4080 S.3   208  MET208     -0.1393
    204  CE         6.1570    8.1570   13.7180 C.3   208  MET208      0.0692
    205  N          8.0540   11.7790   18.5800 N.am  209  LEU209     -0.1980
    206  CA         8.6260   11.6980   19.9310 C.3   209  LEU209      0.1596
    207  C          8.0510   12.7480   20.8640 C.2   209  LEU209      0.2287
    208  O          7.6130   12.3990   21.9630 O.2   209  LEU209     -0.2864
    209  CB        10.1810   11.7290   19.9030 C.3   209  LEU209      0.0297
    210  CG        10.8010   10.5830   19.0740 C.3   209  LEU209      0.0022
    211  CD1       12.1940   10.9070   18.6290 C.3   209  LEU209      0.0001
    212  CD2       10.6980    9.2270   19.7780 C.3   209  LEU209      0.0001
    213  N          4.4320   12.3490   22.4460 N.3   212  TRP212     -0.1241
    214  CA         4.2740   11.3990   23.5530 C.3   212  TRP212      0.1605
    215  C          3.6560   12.0360   24.7610 C.2   212  TRP212      0.2264
    216  O          4.0330   13.1450   25.1370 O.2   212  TRP212     -0.2867
    217  CB         5.6100   10.7510   23.9570 C.3   212  TRP212      0.0550
    218  CG         5.4940    9.2750   24.2130 C.ar  212  TRP212      0.0003
    219  CD1        4.8540    8.6580   25.2510 C.ar  212  TRP212      0.0946
    220  CD2        6.0340    8.2330   23.3920 C.ar  212  TRP212      0.0152
    221  NE1        4.9860    7.2880   25.1380 N.ar  212  TRP212     -0.2442
    222  CE2        5.6960    7.0010   23.9990 C.ar  212  TRP212      0.0810
    223  CE3        6.7660    8.2220   22.1900 C.ar  212  TRP212      0.0012
    224  CZ2        6.0880    5.7700   23.4620 C.ar  212  TRP212      0.0191
    225  CZ3        7.1650    7.0020   21.6650 C.ar  212  TRP212      0.0001
    226  CH2        6.8360    5.7930   22.3050 C.ar  212  TRP212      0.0015
@<TRIPOS>BOND
     1   178   177    2
     2   177   176    1
     3   175   176    1
     4   176   179    1
     5   170   169    2
     6   179   180    1
     7   167   168    1
     8    81    82    2
     9    81    80    1
    10    83    80    1
    11    83    84    1
    12   181   180   ar
    13   181   183   ar
    14   169   168    1
    15    90    91    1
    16   168   171    1
    17   180   182   ar
    18    80    79    1
    19    84    86   ar
    20    84    85   ar
    21   183   185   ar
    22    86    88   ar
    23    79    73   am
    24    71    72    1
    25   187   188    1
    26    91    92    1
    27    91    94    1
    28   193   195   ar
    29   193   192   ar
    30    85    87   ar
    31   195   196   ar
    32   122   124   ar
    33   122   120   ar
    34    88    89   ar
    35   171   172    1
    36   182   184   ar
    37   124   125   ar
    38    73    72    1
    39    73    74    2
    40    92    93    2
    41    92   101   am
    42   185   184   ar
    43   185   186    1
    44    94    95    1
    45    87    89   ar
    46   103   104    2
    47   103   102    1
    48   204   203    1
    49    72    75    1
    50    99    98    1
    51   101   102    1
    52   107   108    1
    53   191   192    1
    54   191   188    1
    55   172   173    1
    56   117   118    2
    57   117   116    1
    58   192   194   ar
    59   188   189    1
    60   119   120    1
    61   119   116    1
    62    96    95    1
    63    96    97    1
    64   120   121   ar
    65   125   123   ar
    66   196   194   ar
    67   102   105    1
    68    75    76    1
    69    70    69   ar
    70    70    68   ar
    71    69    67   ar
    72   116   115    1
    73   115   109   am
    74   105   106    1
    75    98    97    2
    76    98   100    1
    77   108   109    1
    78   108   111    1
    79   189   190    2
    80   109   110    2
    81   121   123   ar
    82   203   202    1
    83   173   174    1
    84    68    66   ar
    85    67    66   ar
    86    76    77    1
    87   201   202    1
    88   201   198    1
    89    78    77    1
    90   197   198    1
    91   112   111    1
    92   112   114    1
    93   111   113    1
    94    66    65    1
    95   198   199    1
    96    64    63    2
    97   166   164    1
    98    63    62    1
    99    65    62    1
   100   199   205   am
   101   199   200    2
   102   205   206    1
   103    62    61    1
   104   211   210    1
   105   133   131    1
   106   152   150    1
   107   164   163    1
   108   151   149    1
   109   210   212    1
   110   210   209    1
   111   131   130    1
   112   131   132    1
   113   149   150    1
   114   149   146    1
   115    59    58    2
   116   209   206    1
   117   206   207    1
   118   165   163    1
   119   130   127    1
   120    15    13    1
   121   163   160    1
   122    60    57    1
   123   128   129    2
   124   128   127    1
   125     8     6    1
   126    57    58    1
   127    57    56    1
   128    47    45    1
   129   147   148    2
   130   147   146    1
   131   207   208    2
   132   161   162    2
   133   161   160    1
   134   127   126    1
   135   146   145    1
   136    14    13    1
   137    51    50    2
   138   160   159    1
   139    13    10    1
   140    45    46    1
   141    45    44    1
   142     7     5    1
   143    56    50   am
   144   225   223   ar
   145   225   226   ar
   146   145   136   am
   147     5     6    1
   148     5     2    1
   149    50    49    1
   150   223   220   ar
   151   226   224   ar
   152   158   157    1
   153   213   214    1
   154     9    10    1
   155     9     3   am
   156    10    11    1
   157    52    49    1
   158    52    53    1
   159    43    42    2
   160   134   135    1
   161    44    41    1
   162    23    21    1
   163   136   137    2
   164   136   135    1
   165    49    48    1
   166     2     1    1
   167     2     3    1
   168     3     4    2
   169   220   222   ar
   170   220   218   ar
   171   224   222   ar
   172   157   154    1
   173   214   217    1
   174   214   215    1
   175    42    41    1
   176    54    53    1
   177    54    55    1
   178    41    40    1
   179   135   138    1
   180   153   154    1
   181   217   218    1
   182    11    12    2
   183   222   221   ar
   184    22    20    1
   185   218   219   ar
   186   138   139    1
   187    21    20    1
   188   154   155    1
   189    20    17    1
   190   215   216    2
   191    40    34   am
   192   155   156    2
   193   221   219   ar
   194   139   140    1
   195    35    34    2
   196    34    33    1
   197    27    26    2
   198    17    16    1
   199    17    18    1
   200    38    36    1
   201    18    19    2
   202   140   141    1
   203    26    25    1
   204    28    29    1
   205    28    25    1
   206    36    33    1
   207    36    37    1
   208    33    32    1
   209    29    30    2
   210    29    31   am
   211   141   142    2
   212    25    24    1
   213   143   142    1
   214   142   144    1
   215    37    39    1
