@<TRIPOS>MOLECULE
tmp/5q15A01.pdb
 226 214 0 0 0
SMALL
GASTEIGER

@<TRIPOS>ATOM
      1  N         31.3900   21.4630  102.6210 N.3    27  ILE27      -0.1231
      2  CA        30.0750   20.8360  102.7010 C.3    27  ILE27       0.1692
      3  C         30.1290   19.4600  103.3850 C.2    27  ILE27       0.2592
      4  O         29.3950   19.2420  104.3530 O.2    27  ILE27      -0.2718
      5  CB        29.4510   20.8010  101.2750 C.3    27  ILE27       0.0266
      6  CG1       29.3350   22.2440  100.7170 C.3    27  ILE27       0.0019
      7  CG2       28.0880   20.0940  101.2700 C.3    27  ILE27       0.0020
      8  CD1       29.8590   22.4700   99.3840 C.3    27  ILE27       0.0001
      9  N         30.9980   18.5460  102.8990 N.am   28  THR28      -0.1953
     10  CA        31.1240   17.1890  103.4530 C.3    28  THR28       0.1897
     11  C         31.6480   17.1740  104.8880 C.2    28  THR28       0.2313
     12  O         31.1610   16.3590  105.6690 O.2    28  THR28      -0.2863
     13  CB        31.9240   16.2600  102.5470 C.3    28  THR28       0.1794
     14  OG1       33.2200   16.8060  102.3160 O.3    28  THR28      -0.2208
     15  CG2       31.2200   15.9880  101.2380 C.3    28  THR28       0.0378
     16  N         28.5550   17.8260  107.2890 N.3    31  ILE31      -0.1245
     17  CA        27.6760   16.6510  107.3510 C.3    31  ILE31       0.1561
     18  C         28.3510   15.4750  108.0870 C.2    31  ILE31       0.2260
     19  O         27.7000   14.8210  108.9010 O.2    31  ILE31      -0.2867
     20  CB        27.1570   16.2800  105.9220 C.3    31  ILE31       0.0252
     21  CG1       26.4170   17.4690  105.2750 C.3    31  ILE31       0.0019
     22  CG2       26.2680   15.0270  105.9240 C.3    31  ILE31       0.0019
     23  CD1       26.5360   17.5320  103.7890 C.3    31  ILE31       0.0001
     24  N         19.1440   19.8980  109.7300 N.3    41  ASN41      -0.1240
     25  CA        19.4750   19.5830  108.3380 C.3    41  ASN41       0.1653
     26  C         18.6870   20.4310  107.3460 C.2    41  ASN41       0.2266
     27  O         19.2230   20.7680  106.2860 O.2    41  ASN41      -0.2867
     28  CB        19.2670   18.0970  108.0510 C.3    41  ASN41       0.1155
     29  CG        20.3540   17.2010  108.5750 C.2    41  ASN41       0.2627
     30  OD1       21.5510   17.5290  108.5170 O.2    41  ASN41      -0.2716
     31  ND2       19.9640   16.0150  109.0160 N.am   41  ASN41      -0.0877
     32  N         20.4990   23.7340  107.2790 N.3    44  ILE44      -0.1231
     33  CA        21.7960   23.5490  106.5990 C.3    44  ILE44       0.1692
     34  C         21.5200   23.5950  105.0910 C.2    44  ILE44       0.2591
     35  O         22.2480   24.2550  104.3530 O.2    44  ILE44      -0.2718
     36  CB        22.4990   22.2180  107.0300 C.3    44  ILE44       0.0266
     37  CG1       23.0190   22.3070  108.4740 C.3    44  ILE44       0.0019
     38  CG2       23.6460   21.8340  106.0620 C.3    44  ILE44       0.0020
     39  CD1       23.1440   20.9850  109.2070 C.3    44  ILE44       0.0001
     40  N         20.4440   22.9120  104.6360 N.am   45  LEU45      -0.1980
     41  CA        20.0950   22.9020  103.2180 C.3    45  LEU45       0.1596
     42  C         19.7220   24.2830  102.6990 C.2    45  LEU45       0.2287
     43  O         20.2030   24.6570  101.6290 O.2    45  LEU45      -0.2864
     44  CB        18.9890   21.8690  102.8970 C.3    45  LEU45       0.0297
     45  CG        18.5650   21.8100  101.4030 C.3    45  LEU45       0.0022
     46  CD1       19.6860   21.3520  100.4590 C.3    45  LEU45       0.0001
     47  CD2       17.2780   21.2430  101.2200 C.3    45  LEU45       0.0001
     48  N         22.8650   26.3940  102.4040 N.3    48  MET48      -0.1230
     49  CA        23.6870   25.8560  101.3070 C.3    48  MET48       0.1702
     50  C         23.0820   26.2260   99.9540 C.2    48  MET48       0.2592
     51  O         23.8030   26.6380   99.0450 O.2    48  MET48      -0.2718
     52  CB        23.7700   24.3130  101.3950 C.3    48  MET48       0.0401
     53  CG        24.6910   23.7930  102.4830 C.3    48  MET48       0.0596
     54  SD        26.4380   24.0360  102.1290 S.3    48  MET48      -0.1393
     55  CE        27.1710   23.2610  103.5580 C.3    48  MET48       0.0692
     56  N         21.7570   26.0620   99.8220 N.am   49  ALA49      -0.1980
     57  CA        21.0230   26.3370   98.5900 C.3    49  ALA49       0.1597
     58  C         21.0070   27.8100   98.2600 C.2    49  ALA49       0.2287
     59  O         21.0830   28.1520   97.0830 O.2    49  ALA49      -0.2864
     60  CB        19.6080   25.8110   98.6970 C.3    49  ALA49       0.0319
     61  N         24.4660   28.6840   96.9690 N.3    52  HIS52      -0.1241
     62  CA        24.5630   28.1190   95.6320 C.3    52  HIS52       0.1621
     63  C         23.8690   28.9930   94.5770 C.2    52  HIS52       0.2264
     64  O         24.4520   29.2250   93.5170 O.2    52  HIS52      -0.2867
     65  CB        24.0220   26.6790   95.6010 C.3    52  HIS52       0.0745
     66  CG        24.1330   26.0630   94.2500 C.ar   52  HIS52       0.0817
     67  ND1       23.0780   26.0930   93.3590 N.ar   52  HIS52      -0.2268
     68  CD2       25.2090   25.5230   93.6340 C.ar   52  HIS52       0.1154
     69  CE1       23.5340   25.5460   92.2410 C.ar   52  HIS52       0.1986
     70  NE2       24.8090   25.1900   92.3580 N.ar   52  HIS52      -0.2212
     71  N         21.9060   22.6600   90.9930 N.3    86  MET86      -0.1230
     72  CA        22.1030   22.2510   92.3840 C.3    86  MET86       0.1702
     73  C         22.3410   20.7410   92.4820 C.2    86  MET86       0.2592
     74  O         23.2420   20.3180   93.2090 O.2    86  MET86      -0.2718
     75  CB        20.8970   22.6680   93.2310 C.3    86  MET86       0.0401
     76  CG        20.9770   22.2210   94.6560 C.3    86  MET86       0.0596
     77  SD        19.5790   22.8220   95.6140 S.3    86  MET86      -0.1393
     78  CE        19.7320   24.6440   95.2850 C.3    86  MET86       0.0692
     79  N         21.5490   19.9250   91.7560 N.am   87  PHE87      -0.1976
     80  CA        21.7500   18.4740   91.8050 C.3    87  PHE87       0.1639
     81  C         23.0230   18.0450   91.1180 C.2    87  PHE87       0.2290
     82  O         23.6220   17.0420   91.5090 O.2    87  PHE87      -0.2864
     83  CB        20.5350   17.6810   91.2870 C.3    87  PHE87       0.0560
     84  CG        19.4480   17.6210   92.3300 C.ar   87  PHE87      -0.0200
     85  CD1       19.5380   16.7400   93.4050 C.ar   87  PHE87      -0.0042
     86  CD2       18.3810   18.5010   92.2920 C.ar   87  PHE87      -0.0042
     87  CE1       18.5590   16.7240   94.4020 C.ar   87  PHE87      -0.0003
     88  CE2       17.3800   18.4530   93.2680 C.ar   87  PHE87      -0.0003
     89  CZ        17.4860   17.5750   94.3220 C.ar   87  PHE87      -0.0000
     90  N         25.8280   19.8440   91.0540 N.3    89  ARG89      -0.1231
     91  CA        26.8730   20.2010   92.0220 C.3    89  ARG89       0.1694
     92  C         26.8900   19.2100   93.1940 C.2    89  ARG89       0.2592
     93  O         27.9640   18.7740   93.6160 O.2    89  ARG89      -0.2718
     94  CB        26.6870   21.6490   92.5050 C.3    89  ARG89       0.0321
     95  CG        27.7720   22.1290   93.4960 C.3    89  ARG89       0.0489
     96  CD        29.1780   22.0170   92.9330 C.3    89  ARG89       0.2205
     97  NE        30.1690   22.5640   93.8510 N.pl3  89  ARG89      -0.0865
     98  CZ        31.4600   22.7000   93.5800 C.cat  89  ARG89       0.5346
     99  NH1       31.9480   22.2910   92.4150 N.pl3  89  ARG89       0.1354
    100  NH2       32.2800   23.2240   94.4760 N.pl3  89  ARG89       0.1354
    101  N         25.7010   18.8090   93.6830 N.am   90  SER90      -0.1952
    102  CA        25.6020   17.7860   94.7470 C.3    90  SER90       0.1924
    103  C         26.2060   16.4450   94.2980 C.2    90  SER90       0.2314
    104  O         26.8560   15.7700   95.1000 O.2    90  SER90      -0.2863
    105  CB        24.1480   17.5710   95.1480 C.3    90  SER90       0.2116
    106  OG        23.5660   18.7800   95.5960 O.3    90  SER90      -0.2180
    107  N         30.0340   16.7750   94.4060 N.3    93  ILE93      -0.1231
    108  CA        30.4570   16.7210   95.8080 C.3    93  ILE93       0.1692
    109  C         30.3950   15.2850   96.3220 C.2    93  ILE93       0.2592
    110  O         31.3670   14.8010   96.8930 O.2    93  ILE93      -0.2718
    111  CB        29.6310   17.7100   96.6730 C.3    93  ILE93       0.0266
    112  CG1       29.8760   19.1800   96.2390 C.3    93  ILE93       0.0019
    113  CG2       29.9230   17.5390   98.1650 C.3    93  ILE93       0.0020
    114  CD1       28.7770   20.1420   96.7030 C.3    93  ILE93       0.0001
    115  N         29.2820   14.5870   96.0690 N.am   94  PHE94      -0.1976
    116  CA        29.0970   13.1960   96.5100 C.3    94  PHE94       0.1639
    117  C         30.1710   12.2450   95.9690 C.2    94  PHE94       0.2290
    118  O         30.5480   11.3120   96.6640 O.2    94  PHE94      -0.2864
    119  CB        27.7030   12.7040   96.0970 C.3    94  PHE94       0.0560
    120  CG        27.3150   11.3480   96.6310 C.ar   94  PHE94      -0.0200
    121  CD1       26.7340   11.2200   97.8810 C.ar   94  PHE94      -0.0042
    122  CD2       27.5150   10.1970   95.8710 C.ar   94  PHE94      -0.0042
    123  CE1       26.3660    9.9680   98.3660 C.ar   94  PHE94      -0.0003
    124  CE2       27.1440    8.9470   96.3570 C.ar   94  PHE94      -0.0003
    125  CZ        26.5650    8.8430   97.5940 C.ar   94  PHE94      -0.0000
    126  N         28.6420    9.4780  104.7760 N.3   106  LEU106     -0.1245
    127  CA        28.0100   10.5930  104.0710 C.3   106  LEU106      0.1561
    128  C         26.6690   10.1610  103.4690 C.2   106  LEU106      0.2260
    129  O         25.6840   10.8840  103.6170 O.2   106  LEU106     -0.2867
    130  CB        28.9520   11.1560  102.9990 C.3   106  LEU106      0.0270
    131  CG        28.4970   12.4210  102.2550 C.3   106  LEU106      0.0019
    132  CD1       28.5690   13.6610  103.1460 C.3   106  LEU106      0.0001
    133  CD2       29.3260   12.6310  101.0270 C.3   106  LEU106      0.0001
    134  N         24.1610    9.6390  106.3030 N.3   109  ARG109     -0.1231
    135  CA        23.7700   10.9400  106.8480 C.3   109  ARG109      0.1694
    136  C         22.7570   11.6190  105.9310 C.2   109  ARG109      0.2591
    137  O         21.8220   12.2330  106.4300 O.2   109  ARG109     -0.2718
    138  CB        24.9910   11.8520  107.0880 C.3   109  ARG109      0.0321
    139  CG        25.9150   11.4210  108.2320 C.3   109  ARG109      0.0489
    140  CD        25.5030   11.9270  109.6040 C.3   109  ARG109      0.2205
    141  NE        26.2180   11.2210  110.6730 N.pl3 109  ARG109     -0.0865
    142  CZ        27.3840   11.6040  111.1870 C.cat 109  ARG109      0.5346
    143  NH1       27.9870   12.6990  110.7430 N.pl3 109  ARG109      0.1354
    144  NH2       27.9550   10.8950  112.1520 N.pl3 109  ARG109      0.1354
    145  N         22.9170   11.4740  104.5940 N.am  110  ILE110     -0.1980
    146  CA        21.9900   12.0230  103.6020 C.3   110  ILE110      0.1595
    147  C         20.6550   11.2460  103.6540 C.2   110  ILE110      0.2287
    148  O         19.6050   11.8720  103.5290 O.2   110  ILE110     -0.2864
    149  CB        22.6330   12.1410  102.1810 C.3   110  ILE110      0.0276
    150  CG1       23.8090   13.1530  102.2040 C.3   110  ILE110      0.0022
    151  CG2       21.5990   12.5710  101.1410 C.3   110  ILE110      0.0022
    152  CD1       24.8440   12.9730  101.1300 C.3   110  ILE110      0.0001
    153  N         18.4990   12.6800  106.4560 N.3   113  SER113     -0.1217
    154  CA        18.3730   14.1370  106.3370 C.3   113  SER113      0.1889
    155  C         17.0570   14.6940  106.8890 C.2   113  SER113      0.2288
    156  O         17.0560   15.7610  107.4960 O.2   113  SER113     -0.2866
    157  CB        18.5630   14.5810  104.8900 C.3   113  SER113      0.2089
    158  OG        17.6520   13.9170  104.0280 O.3   113  SER113     -0.2183
    159  N         14.0260   14.1010  104.7860 N.3   115  ILE115     -0.1245
    160  CA        13.1340   13.9730  103.6270 C.3   115  ILE115      0.1561
    161  C         12.6670   12.5370  103.4400 C.2   115  ILE115      0.2260
    162  O         13.3300   11.6190  103.9250 O.2   115  ILE115     -0.2867
    163  CB        13.7380   14.5550  102.3240 C.3   115  ILE115      0.0252
    164  CG1       14.9620   13.7550  101.8130 C.3   115  ILE115      0.0019
    165  CG2       14.0450   16.0080  102.4960 C.3   115  ILE115      0.0019
    166  CD1       15.0930   13.7360  100.2860 C.3   115  ILE115      0.0001
    167  N         14.9510   10.0220   98.0920 N.3   120  ILE120     -0.1245
    168  CA        16.3390    9.6280   98.3610 C.3   120  ILE120      0.1561
    169  C         16.8580    8.6570   97.2960 C.2   120  ILE120      0.2260
    170  O         17.9410    8.8720   96.7520 O.2   120  ILE120     -0.2867
    171  CB        16.4840    9.0820   99.8120 C.3   120  ILE120      0.0252
    172  CG1       16.4080   10.2260  100.8370 C.3   120  ILE120      0.0019
    173  CG2       17.7690    8.2590  100.0060 C.3   120  ILE120      0.0019
    174  CD1       15.7940    9.8360  102.2090 C.3   120  ILE120      0.0001
    175  N         17.9590   10.1770   93.9160 N.3   123  MET123     -0.1245
    176  CA        19.1330   11.0420   94.0840 C.3   123  MET123      0.1570
    177  C         20.4050   10.2100   94.0100 C.2   123  MET123      0.2261
    178  O         21.2990   10.5500   93.2460 O.2   123  MET123     -0.2867
    179  CB        19.1140   11.7690   95.4380 C.3   123  MET123      0.0387
    180  CG        18.2150   12.9530   95.4960 C.3   123  MET123      0.0595
    181  SD        18.5040   13.8370   97.0490 S.3   123  MET123     -0.1393
    182  CE        16.9950   14.7740   97.1320 C.3   123  MET123      0.0692
    183  N         23.5190   10.1710   91.4390 N.3   127  TYR127     -0.1241
    184  CA        24.8900   10.4050   91.9150 C.3   127  TYR127      0.1605
    185  C         25.8280    9.2550   91.5240 C.2   127  TYR127      0.2264
    186  O         26.9360    9.5180   91.0660 O.2   127  TYR127     -0.2867
    187  CB        24.9370   10.5910   93.4430 C.3   127  TYR127      0.0534
    188  CG        24.1610   11.7560   94.0140 C.ar  127  TYR127     -0.0201
    189  CD1       23.7750   12.8270   93.2140 C.ar  127  TYR127     -0.0009
    190  CD2       23.8750   11.8250   95.3740 C.ar  127  TYR127     -0.0009
    191  CE1       23.1160   13.9280   93.7490 C.ar  127  TYR127      0.0417
    192  CE2       23.2010   12.9170   95.9160 C.ar  127  TYR127      0.0417
    193  CZ        22.8310   13.9690   95.0980 C.ar  127  TYR127      0.1957
    194  OH        22.1310   15.0340   95.6020 O.3   127  TYR127     -0.2866
    195  N         10.4090   18.8630   92.9350 N.3   205  HIS205     -0.1241
    196  CA        11.3260   19.5360   93.8690 C.3   205  HIS205      0.1621
    197  C         10.6180   20.1630   95.0750 C.2   205  HIS205      0.2264
    198  O         11.0460   19.9410   96.2090 O.2   205  HIS205     -0.2867
    199  CB        12.2260   20.5640   93.1550 C.3   205  HIS205      0.0745
    200  CG        13.3060   21.1090   94.0470 C.ar  205  HIS205      0.0817
    201  ND1       14.2970   20.2940   94.5650 N.ar  205  HIS205     -0.2268
    202  CD2       13.5170   22.3730   94.4800 C.ar  205  HIS205      0.1154
    203  CE1       15.0660   21.0840   95.3020 C.ar  205  HIS205      0.1986
    204  NE2       14.6490   22.3440   95.2640 N.ar  205  HIS205     -0.2212
    205  N          9.3490   17.3700   97.4350 N.3   208  MET208     -0.1245
    206  CA        10.4780   16.8120   98.1910 C.3   208  MET208      0.1570
    207  C         10.7990   17.7050   99.3880 C.2   208  MET208      0.2261
    208  O         10.9970   17.1910  100.4860 O.2   208  MET208     -0.2867
    209  CB        11.7260   16.6780   97.2880 C.3   208  MET208      0.0387
    210  CG        12.9430   16.1160   98.0030 C.3   208  MET208      0.0595
    211  SD        14.3350   17.2640   98.0410 S.3   208  MET208     -0.1393
    212  CE        14.2030   17.8930   99.5740 C.3   208  MET208      0.0692
    213  N          9.9390   17.2950  104.0630 N.3   212  TRP212     -0.1241
    214  CA        10.9070   17.3510  105.1610 C.3   212  TRP212      0.1605
    215  C         10.2050   17.2650  106.5120 C.2   212  TRP212      0.2264
    216  O          9.2240   17.9770  106.7400 O.2   212  TRP212     -0.2867
    217  CB        11.7540   18.6360  105.1030 C.3   212  TRP212      0.0550
    218  CG        13.1640   18.4240  105.5560 C.ar  212  TRP212      0.0003
    219  CD1       13.5750   17.9600  106.7700 C.ar  212  TRP212      0.0946
    220  CD2       14.3450   18.5990  104.7710 C.ar  212  TRP212      0.0152
    221  NE1       14.9420   17.8440  106.7910 N.ar  212  TRP212     -0.2442
    222  CE2       15.4400   18.2140  105.5730 C.ar  212  TRP212      0.0810
    223  CE3       14.5900   19.0670  103.4680 C.ar  212  TRP212      0.0012
    224  CZ2       16.7590   18.2680  105.1130 C.ar  212  TRP212      0.0191
    225  CZ3       15.8910   19.0910  103.0050 C.ar  212  TRP212      0.0001
    226  CH2       16.9640   18.7280  103.8340 C.ar  212  TRP212      0.0015
@<TRIPOS>BOND
     1    71    72    1
     2    90    91    1
     3   186   185    2
     4    81    82    2
     5    81    80    1
     6    83    80    1
     7    83    84    1
     8   183   184    1
     9   185   184    1
    10    79    80    1
    11    79    73   am
    12   184   187    1
    13    91    94    1
    14    91    92    1
    15    69    70   ar
    16    69    67   ar
    17    86    84   ar
    18    86    88   ar
    19    84    85   ar
    20    70    68   ar
    21    72    73    1
    22    72    75    1
    23    99    98    1
    24    73    74    2
    25    94    95    1
    26    96    95    1
    27    96    97    1
    28   195   196    1
    29   199   196    1
    30   199   200    1
    31    92    93    2
    32    92   101   am
    33   189   191   ar
    34   189   188   ar
    35    75    76    1
    36   178   177    2
    37    88    89   ar
    38    67    66   ar
    39    85    87   ar
    40   187   188    1
    41    64    63    2
    42    98    97    2
    43    98   100    1
    44    68    66   ar
    45   101   102    1
    46   191   193   ar
    47   196   197    1
    48   175   176    1
    49   177   176    1
    50   188   190   ar
    51   200   202   ar
    52   200   201   ar
    53   176   179    1
    54    66    65    1
    55   103   102    1
    56   103   104    2
    57    89    87   ar
    58   107   108    1
    59   202   204   ar
    60   201   203   ar
    61    63    62    1
    62    76    77    1
    63   102   105    1
    64   197   198    2
    65   193   194    1
    66   193   192   ar
    67   105   106    1
    68   204   203   ar
    69    78    77    1
    70   190   192   ar
    71   179   180    1
    72   180   181    1
    73    65    62    1
    74    62    61    1
    75   108   109    1
    76   108   111    1
    77   122   124   ar
    78   122   120   ar
    79   117   116    1
    80   117   118    2
    81   115   109   am
    82   115   116    1
    83   119   116    1
    84   119   120    1
    85   112   111    1
    86   112   114    1
    87   109   110    2
    88   124   125   ar
    89   120   121   ar
    90   111   113    1
    91   170   169    2
    92   181   182    1
    93    59    58    2
    94   209   210    1
    95   209   206    1
    96   169   168    1
    97   205   206    1
    98   125   123   ar
    99   121   123   ar
   100   210   211    1
   101   211   212    1
   102   167   168    1
   103   206   207    1
   104    58    57    1
   105   168   171    1
   106    57    60    1
   107    57    56    1
   108    51    50    2
   109     8     6    1
   110   207   208    2
   111   171   173    1
   112   171   172    1
   113    56    50   am
   114    50    49    1
   115   166   164    1
   116    46    45    1
   117     6     5    1
   118   172   174    1
   119   133   131    1
   120   152   150    1
   121   151   149    1
   122    47    45    1
   123    15    13    1
   124     7     5    1
   125     5     2    1
   126    49    52    1
   127    49    48    1
   128    52    53    1
   129    45    44    1
   130    43    42    2
   131   164   163    1
   132    54    53    1
   133    54    55    1
   134   149   150    1
   135   149   146    1
   136   131   130    1
   137   131   132    1
   138    14    13    1
   139   163   165    1
   140   163   160    1
   141    13    10    1
   142     1     2    1
   143    42    41    1
   144     2     3    1
   145    44    41    1
   146     9     3   am
   147     9    10    1
   148   130   127    1
   149   225   223   ar
   150   225   226   ar
   151    41    40    1
   152     3     4    2
   153   161   160    1
   154   161   162    2
   155    10    11    1
   156   223   220   ar
   157   128   129    2
   158   128   127    1
   159   148   147    2
   160   146   147    1
   161   146   145    1
   162   160   159    1
   163    23    21    1
   164   226   224   ar
   165   158   157    1
   166   213   214    1
   167   127   126    1
   168    35    34    2
   169   145   136   am
   170    40    34   am
   171   220   218   ar
   172   220   222   ar
   173    11    12    2
   174   157   154    1
   175    34    33    1
   176   217   214    1
   177   217   218    1
   178   224   222   ar
   179   214   215    1
   180    21    20    1
   181   218   219   ar
   182   222   221   ar
   183    20    22    1
   184    20    17    1
   185   136   137    2
   186   136   135    1
   187    38    36    1
   188    27    26    2
   189   134   135    1
   190   154   153    1
   191   154   155    1
   192   215   216    2
   193    33    36    1
   194    33    32    1
   195   219   221   ar
   196   135   138    1
   197   155   156    2
   198    36    37    1
   199   138   139    1
   200    16    17    1
   201    26    25    1
   202    17    18    1
   203    28    25    1
   204    28    29    1
   205    18    19    2
   206   139   140    1
   207    25    24    1
   208    37    39    1
   209    30    29    2
   210    29    31   am
   211   140   141    1
   212   141   142    2
   213   143   142    1
   214   142   144    1
