@<TRIPOS>MOLECULE
tmp/5q16A01.pdb
 240 230 0 0 0
SMALL
GASTEIGER

@<TRIPOS>ATOM
      1  N         31.3630   21.7710  102.1020 N.3    27  ILE27      -0.1231
      2  CA        30.0000   21.2430  102.2010 C.3    27  ILE27       0.1692
      3  C         29.9970   19.8430  102.8430 C.2    27  ILE27       0.2592
      4  O         29.2450   19.6200  103.8010 O.2    27  ILE27      -0.2718
      5  CB        29.2960   21.3070  100.8080 C.3    27  ILE27       0.0266
      6  CG1       29.1360   22.7820  100.3570 C.3    27  ILE27       0.0019
      7  CG2       27.9350   20.5800  100.8150 C.3    27  ILE27       0.0020
      8  CD1       29.1420   23.0450   98.8800 C.3    27  ILE27       0.0001
      9  N         30.8490   18.9230  102.3360 N.am   28  THR28      -0.1953
     10  CA        30.9360   17.5530  102.8520 C.3    28  THR28       0.1897
     11  C         31.4620   17.4970  104.2870 C.2    28  THR28       0.2313
     12  O         30.9920   16.6540  105.0500 O.2    28  THR28      -0.2863
     13  CB        31.7120   16.6280  101.9140 C.3    28  THR28       0.1794
     14  OG1       32.8950   17.2820  101.4570 O.3    28  THR28      -0.2208
     15  CG2       30.8730   16.1700  100.7330 C.3    28  THR28       0.0378
     16  N         28.4490   18.0830  106.7640 N.3    31  ILE31      -0.1245
     17  CA        27.5180   16.9460  106.7660 C.3    31  ILE31       0.1561
     18  C         28.1480   15.7140  107.4360 C.2    31  ILE31       0.2260
     19  O         27.4300   14.9530  108.0840 O.2    31  ILE31      -0.2867
     20  CB        26.9650   16.6570  105.3290 C.3    31  ILE31       0.0252
     21  CG1       26.3270   17.9210  104.7130 C.3    31  ILE31       0.0019
     22  CG2       25.9610   15.4860  105.3170 C.3    31  ILE31       0.0019
     23  CD1       26.3460   17.9680  103.2100 C.3    31  ILE31       0.0001
     24  N         18.8130   20.2590  109.2520 N.3    41  ASN41      -0.1240
     25  CA        19.1790   19.8860  107.8930 C.3    41  ASN41       0.1653
     26  C         18.4000   20.6630  106.8350 C.2    41  ASN41       0.2266
     27  O         18.9470   20.9260  105.7620 O.2    41  ASN41      -0.2867
     28  CB        19.0580   18.3770  107.6820 C.3    41  ASN41       0.1155
     29  CG        20.2300   17.5590  108.1720 C.2    41  ASN41       0.2627
     30  OD1       21.3900   18.0020  108.1660 O.2    41  ASN41      -0.2716
     31  ND2       19.9510   16.3160  108.5430 N.am   41  ASN41      -0.0877
     32  N         20.0880   24.0670  106.7200 N.3    44  ILE44      -0.1231
     33  CA        21.3830   23.8820  106.0410 C.3    44  ILE44       0.1692
     34  C         21.1380   23.9450  104.5260 C.2    44  ILE44       0.2591
     35  O         21.8090   24.7130  103.8400 O.2    44  ILE44      -0.2718
     36  CB        22.1050   22.5680  106.4920 C.3    44  ILE44       0.0266
     37  CG1       22.6770   22.7020  107.9250 C.3    44  ILE44       0.0019
     38  CG2       23.2080   22.1460  105.4920 C.3    44  ILE44       0.0020
     39  CD1       22.9010   21.3700  108.6810 C.3    44  ILE44       0.0001
     40  N         20.1380   23.1800  104.0240 N.am   45  LEU45      -0.1980
     41  CA        19.7710   23.1650  102.6070 C.3    45  LEU45       0.1596
     42  C         19.3750   24.5510  102.0900 C.2    45  LEU45       0.2287
     43  O         19.8410   24.9430  101.0290 O.2    45  LEU45      -0.2864
     44  CB        18.6420   22.1460  102.3090 C.3    45  LEU45       0.0297
     45  CG        18.1030   22.1900  100.8480 C.3    45  LEU45       0.0022
     46  CD1       19.0990   21.6130   99.8600 C.3    45  LEU45       0.0001
     47  CD2       16.7650   21.5310  100.7230 C.3    45  LEU45       0.0001
     48  N         22.4860   26.6820  101.8850 N.3    48  MET48      -0.1230
     49  CA        23.3000   26.1140  100.8000 C.3    48  MET48       0.1702
     50  C         22.7460   26.4990   99.4260 C.2    48  MET48       0.2592
     51  O         23.5130   26.8580   98.5390 O.2    48  MET48      -0.2718
     52  CB        23.3740   24.5780  100.8980 C.3    48  MET48       0.0401
     53  CG        24.2940   24.0760  101.9850 C.3    48  MET48       0.0596
     54  SD        26.0430   24.3270  101.6350 S.3    48  MET48      -0.1393
     55  CE        26.7350   23.7760  103.1890 C.3    48  MET48       0.0692
     56  N         21.4160   26.4140   99.2590 N.am   49  ALA49      -0.1980
     57  CA        20.7350   26.7220   98.0050 C.3    49  ALA49       0.1597
     58  C         20.7300   28.2080   97.6770 C.2    49  ALA49       0.2287
     59  O         20.8240   28.5600   96.5010 O.2    49  ALA49      -0.2864
     60  CB        19.3170   26.1930   98.0440 C.3    49  ALA49       0.0319
     61  N         24.1870   28.9890   96.4160 N.3    52  HIS52      -0.1241
     62  CA        24.2840   28.3790   95.0890 C.3    52  HIS52       0.1621
     63  C         23.6400   29.2600   94.0190 C.2    52  HIS52       0.2264
     64  O         24.2770   29.5040   92.9960 O.2    52  HIS52      -0.2867
     65  CB        23.6650   26.9670   95.0450 C.3    52  HIS52       0.0745
     66  CG        23.8290   26.3230   93.6990 C.ar   52  HIS52       0.0817
     67  ND1       22.8500   26.4330   92.7130 N.ar   52  HIS52      -0.2268
     68  CD2       24.9030   25.6890   93.1700 C.ar   52  HIS52       0.1154
     69  CE1       23.3430   25.8290   91.6420 C.ar   52  HIS52       0.1986
     70  NE2       24.5710   25.3580   91.8700 N.ar   52  HIS52      -0.2212
     71  N         21.5970   23.0000   90.5030 N.3    86  MET86      -0.1230
     72  CA        21.7280   22.6130   91.9110 C.3    86  MET86       0.1702
     73  C         21.9530   21.1050   92.0320 C.2    86  MET86       0.2592
     74  O         22.8460   20.6790   92.7590 O.2    86  MET86      -0.2718
     75  CB        20.4730   23.0360   92.6790 C.3    86  MET86       0.0401
     76  CG        20.6360   23.0060   94.1680 C.3    86  MET86       0.0596
     77  SD        19.1370   23.5360   95.0270 S.3    86  MET86      -0.1393
     78  CE        19.0270   25.2850   94.4410 C.3    86  MET86       0.0692
     79  N         21.1480   20.3070   91.2960 N.am   87  PHE87      -0.1976
     80  CA        21.2480   18.8540   91.2990 C.3    87  PHE87       0.1639
     81  C         22.5310   18.3640   90.6230 C.2    87  PHE87       0.2290
     82  O         23.1060   17.3860   91.0830 O.2    87  PHE87      -0.2864
     83  CB        20.0000   18.1970   90.6950 C.3    87  PHE87       0.0560
     84  CG        18.8560   18.0520   91.6660 C.ar   87  PHE87      -0.0200
     85  CD1       18.8500   17.0340   92.6130 C.ar   87  PHE87      -0.0042
     86  CD2       17.7870   18.9380   91.6410 C.ar   87  PHE87      -0.0042
     87  CE1       17.7900   16.9000   93.5100 C.ar   87  PHE87      -0.0003
     88  CE2       16.7290   18.8070   92.5500 C.ar   87  PHE87      -0.0003
     89  CZ        16.7350   17.7800   93.4670 C.ar   87  PHE87      -0.0000
     90  N         25.3940   20.0770   90.5280 N.3    89  ARG89      -0.1231
     91  CA        26.4280   20.4580   91.4950 C.3    89  ARG89       0.1694
     92  C         26.4280   19.4980   92.6860 C.2    89  ARG89       0.2592
     93  O         27.4940   19.1110   93.1460 O.2    89  ARG89      -0.2718
     94  CB        26.2580   21.9240   91.9530 C.3    89  ARG89       0.0321
     95  CG        27.3400   22.4270   92.9150 C.3    89  ARG89       0.0489
     96  CD        28.7180   22.3820   92.2840 C.3    89  ARG89       0.2205
     97  NE        29.7420   22.8480   93.2030 N.pl3  89  ARG89      -0.0865
     98  CZ        31.0380   22.9150   92.9130 C.cat  89  ARG89       0.5346
     99  NH1       31.4740   22.5410   91.7110 N.pl3  89  ARG89       0.1354
    100  NH2       31.9030   23.3650   93.8050 N.pl3  89  ARG89       0.1354
    101  N         25.2360   19.0830   93.1560 N.am   90  SER90      -0.1952
    102  CA        25.0900   18.1190   94.2530 C.3    90  SER90       0.1924
    103  C         25.6780   16.7680   93.8510 C.2    90  SER90       0.2314
    104  O         26.3270   16.1130   94.6650 O.2    90  SER90      -0.2863
    105  CB        23.6230   17.9520   94.6290 C.3    90  SER90       0.2116
    106  OG        23.1380   19.0980   95.3050 O.3    90  SER90      -0.2180
    107  N         29.5810   17.0710   93.9090 N.3    93  ILE93      -0.1231
    108  CA        30.0540   17.0190   95.2970 C.3    93  ILE93       0.1692
    109  C         30.0240   15.5740   95.8390 C.2    93  ILE93       0.2592
    110  O         31.0200   15.1180   96.4020 O.2    93  ILE93      -0.2718
    111  CB        29.3180   18.0430   96.2120 C.3    93  ILE93       0.0266
    112  CG1       29.5530   19.4950   95.7290 C.3    93  ILE93       0.0019
    113  CG2       29.7530   17.8930   97.6820 C.3    93  ILE93       0.0020
    114  CD1       28.5200   20.4840   96.2110 C.3    93  ILE93       0.0001
    115  N         28.9070   14.8550   95.6140 N.am   94  PHE94      -0.1976
    116  CA        28.6970   13.4630   96.0410 C.3    94  PHE94       0.1639
    117  C         29.7230   12.4850   95.4530 C.2    94  PHE94       0.2290
    118  O         30.0730   11.5140   96.1170 O.2    94  PHE94      -0.2864
    119  CB        27.2660   13.0060   95.6820 C.3    94  PHE94       0.0560
    120  CG        26.8590   11.6660   96.2470 C.ar   94  PHE94      -0.0200
    121  CD1       26.3620   11.5620   97.5360 C.ar   94  PHE94      -0.0042
    122  CD2       26.9500   10.5110   95.4760 C.ar   94  PHE94      -0.0042
    123  CE1       25.9860   10.3220   98.0560 C.ar   94  PHE94      -0.0003
    124  CE2       26.5680    9.2730   95.9930 C.ar   94  PHE94      -0.0003
    125  CZ        26.0840    9.1870   97.2770 C.ar   94  PHE94      -0.0000
    126  N         28.3510    9.8130  104.0880 N.3   106  LEU106     -0.1245
    127  CA        27.7370   10.9450  103.3930 C.3   106  LEU106      0.1561
    128  C         26.3630   10.5410  102.8500 C.2   106  LEU106      0.2260
    129  O         25.3840   11.2450  103.1040 O.2   106  LEU106     -0.2867
    130  CB        28.6580   11.4660  102.2670 C.3   106  LEU106      0.0270
    131  CG        28.1310   12.6290  101.4050 C.3   106  LEU106      0.0019
    132  CD1       27.9830   13.9220  102.2190 C.3   106  LEU106      0.0001
    133  CD2       29.0210   12.8540  100.2100 C.3   106  LEU106      0.0001
    134  N         23.9120    9.9850  105.7490 N.3   109  ARG109     -0.1231
    135  CA        23.5270   11.2880  106.3000 C.3   109  ARG109      0.1694
    136  C         22.4860   11.9950  105.4240 C.2   109  ARG109      0.2591
    137  O         21.5620   12.6030  105.9620 O.2   109  ARG109     -0.2718
    138  CB        24.7580   12.1780  106.5670 C.3   109  ARG109      0.0321
    139  CG        25.6310   11.7000  107.7350 C.3   109  ARG109      0.0489
    140  CD        25.2650   12.3260  109.0720 C.3   109  ARG109      0.2205
    141  NE        25.9700   11.6970  110.1950 N.pl3 109  ARG109     -0.0865
    142  CZ        27.2010   12.0140  110.5890 C.cat 109  ARG109      0.5346
    143  NH1       27.7510   11.4000  111.6260 N.pl3 109  ARG109      0.1354
    144  NH2       27.8950   12.9350  109.9400 N.pl3 109  ARG109      0.1354
    145  N         22.6000   11.8650  104.0840 N.am  110  ILE110     -0.1980
    146  CA        21.6350   12.4440  103.1380 C.3   110  ILE110      0.1595
    147  C         20.3100   11.6470  103.1800 C.2   110  ILE110      0.2287
    148  O         19.2400   12.2580  103.0930 O.2   110  ILE110     -0.2864
    149  CB        22.2190   12.6360  101.6990 C.3   110  ILE110      0.0276
    150  CG1       23.4760   13.5370  101.7180 C.3   110  ILE110      0.0022
    151  CG2       21.1670   13.2170  100.7510 C.3   110  ILE110      0.0022
    152  CD1       24.4540   13.2940  100.5930 C.3   110  ILE110      0.0001
    153  N         18.3330   12.8830  106.1870 N.3   113  SER113     -0.1217
    154  CA        18.2650   14.3450  106.2620 C.3   113  SER113      0.1889
    155  C         16.8810   14.9240  106.5740 C.2   113  SER113      0.2288
    156  O         16.7940   16.0170  107.1330 O.2   113  SER113     -0.2866
    157  CB        18.8000   14.9650  104.9810 C.3   113  SER113      0.2089
    158  OG        18.0210   14.5620  103.8720 O.3   113  SER113     -0.2183
    159  N         14.2210   14.2690  103.9080 N.3   115  ILE115     -0.1245
    160  CA        13.5100   14.0580  102.6300 C.3   115  ILE115      0.1561
    161  C         12.7370   12.7280  102.6680 C.2   115  ILE115      0.2260
    162  O         13.1940   11.7940  103.3240 O.2   115  ILE115     -0.2867
    163  CB        14.4520   14.0620  101.3850 C.3   115  ILE115      0.0252
    164  CG1       15.7520   14.8530  101.6060 C.3   115  ILE115      0.0019
    165  CG2       13.7080   14.5470  100.1420 C.3   115  ILE115      0.0019
    166  CD1       16.9220   14.5050  100.6590 C.3   115  ILE115      0.0001
    167  N         17.1650   10.3040   93.3480 N.3   123  MET123     -0.1245
    168  CA        18.2420   11.2710   93.5630 C.3   123  MET123      0.1570
    169  C         19.6040   10.5510   93.5720 C.2   123  MET123      0.2261
    170  O         20.5240   10.9910   92.8820 O.2   123  MET123     -0.2867
    171  CB        18.0130   12.0340   94.8760 C.3   123  MET123      0.0387
    172  CG        18.8690   13.2740   95.0210 C.3   123  MET123      0.0595
    173  SD        18.8170   13.9600   96.6880 S.3   123  MET123     -0.1393
    174  CE        19.8460   12.8110   97.5270 C.3   123  MET123      0.0692
    175  N         22.9200   10.4570   90.9950 N.3   127  TYR127     -0.1241
    176  CA        24.2760   10.6970   91.5120 C.3   127  TYR127      0.1605
    177  C         25.2410    9.5730   91.1150 C.2   127  TYR127      0.2264
    178  O         26.3520    9.8560   90.6690 O.2   127  TYR127     -0.2867
    179  CB        24.2720   10.8590   93.0500 C.3   127  TYR127      0.0534
    180  CG        23.5510   12.0670   93.6140 C.ar  127  TYR127     -0.0201
    181  CD1       23.1080   13.0930   92.7860 C.ar  127  TYR127     -0.0009
    182  CD2       23.3660   12.2140   94.9860 C.ar  127  TYR127     -0.0009
    183  CE1       22.4620   14.2110   93.3020 C.ar  127  TYR127      0.0417
    184  CE2       22.7300   13.3350   95.5150 C.ar  127  TYR127      0.0417
    185  CZ        22.2790   14.3320   94.6690 C.ar  127  TYR127      0.1957
    186  OH        21.6230   15.4250   95.1830 O.3   127  TYR127     -0.2866
    187  N         10.5850   19.0180   92.2950 N.3   205  HIS205     -0.1241
    188  CA        11.3900   19.7370   93.3010 C.3   205  HIS205      0.1621
    189  C         10.5440   20.3510   94.4330 C.2   205  HIS205      0.2264
    190  O         10.9390   20.2410   95.5910 O.2   205  HIS205     -0.2867
    191  CB        12.3350   20.7810   92.6660 C.3   205  HIS205      0.0745
    192  CG        11.7300   22.1280   92.4380 C.ar  205  HIS205      0.0817
    193  ND1       10.9430   22.3800   91.3350 N.ar  205  HIS205     -0.2268
    194  CD2       11.8120   23.2520   93.1860 C.ar  205  HIS205      0.1154
    195  CE1       10.5680   23.6420   91.4380 C.ar  205  HIS205      0.1986
    196  NE2       11.0600   24.2070   92.5410 N.ar  205  HIS205     -0.2212
    197  N          9.2530   17.6220   96.6260 N.3   208  MET208     -0.1230
    198  CA        10.4180   17.0930   97.3410 C.3   208  MET208      0.1702
    199  C         10.7220   17.9430   98.5790 C.2   208  MET208      0.2592
    200  O         10.9760   17.3890   99.6510 O.2   208  MET208     -0.2718
    201  CB        11.6330   17.0460   96.3970 C.3   208  MET208      0.0401
    202  CG        12.7920   16.2330   96.9280 C.3   208  MET208      0.0596
    203  SD        14.2460   16.2490   95.8500 S.3   208  MET208     -0.1393
    204  CE        13.6930   15.1750   94.5250 C.3   208  MET208      0.0692
    205  N         10.6830   19.2870   98.4320 N.am  209  LEU209     -0.1980
    206  CA        10.9450   20.2460   99.5150 C.3   209  LEU209      0.1596
    207  C          9.8410   20.2580  100.5650 C.2   209  LEU209      0.2287
    208  O         10.1440   20.2930  101.7560 O.2   209  LEU209     -0.2864
    209  CB        11.1240   21.6660   98.9610 C.3   209  LEU209      0.0297
    210  CG        12.3790   21.9250   98.1520 C.3   209  LEU209      0.0022
    211  CD1       12.1330   22.9810   97.1060 C.3   209  LEU209      0.0001
    212  CD2       13.5450   22.2730   99.0460 C.3   209  LEU209      0.0001
    213  N          9.6680   17.3440  103.2040 N.3   212  TRP212     -0.1241
    214  CA        10.7270   17.3240  104.2140 C.3   212  TRP212      0.1605
    215  C         10.0960   17.2300  105.6010 C.2   212  TRP212      0.2264
    216  O          9.1380   17.9500  105.8900 O.2   212  TRP212     -0.2867
    217  CB        11.6220   18.5690  104.1040 C.3   212  TRP212      0.0550
    218  CG        13.0160   18.3750  104.6180 C.ar  212  TRP212      0.0003
    219  CD1       13.4050   18.2840  105.9210 C.ar  212  TRP212      0.0946
    220  CD2       14.2150   18.3130  103.8370 C.ar  212  TRP212      0.0152
    221  NE1       14.7680   18.1370  105.9990 N.ar  212  TRP212     -0.2442
    222  CE2       15.2910   18.1460  104.7330 C.ar  212  TRP212      0.0810
    223  CE3       14.4820   18.3540  102.4570 C.ar  212  TRP212      0.0012
    224  CZ2       16.6200   18.0470  104.3010 C.ar  212  TRP212      0.0191
    225  CZ3       15.8000   18.2680  102.0300 C.ar  212  TRP212      0.0001
    226  CH2       16.8490   18.1000  102.9430 C.ar  212  TRP212      0.0015
    227  N         12.3170   28.7480   93.1370 N.3   227  TRP227     -0.1241
    228  CA        11.5500   27.5180   93.3470 C.3   227  TRP227      0.1605
    229  C         10.0330   27.7760   93.3120 C.2   227  TRP227      0.2264
    230  O          9.5980   28.9150   93.4790 O.2   227  TRP227     -0.2867
    231  CB        11.9370   26.8690   94.6930 C.3   227  TRP227      0.0550
    232  CG        13.3520   26.3630   94.8120 C.ar  227  TRP227      0.0003
    233  CD1       14.2070   26.0420   93.7960 C.ar  227  TRP227      0.0946
    234  CD2       14.0290   26.0210   96.0310 C.ar  227  TRP227      0.0152
    235  NE1       15.3950   25.5640   94.3090 N.ar  227  TRP227     -0.2442
    236  CE2       15.3090   25.5340   95.6800 C.ar  227  TRP227      0.0810
    237  CE3       13.6940   26.1160   97.3950 C.ar  227  TRP227      0.0012
    238  CZ2       16.2360   25.1030   96.6480 C.ar  227  TRP227      0.0191
    239  CZ3       14.6120   25.6960   98.3500 C.ar  227  TRP227      0.0001
    240  CH2       15.8640   25.1900   97.9770 C.ar  227  TRP227      0.0015
@<TRIPOS>BOND
     1    71    72    1
     2    90    91    1
     3    81    82    2
     4    81    80    1
     5   178   177    2
     6    83    80    1
     7    83    84    1
     8   175   176    1
     9   177   176    1
    10    79    80    1
    11    79    73   am
    12   193   195   ar
    13   193   192   ar
    14   195   196   ar
    15    91    94    1
    16    91    92    1
    17   176   179    1
    18    86    84   ar
    19    86    88   ar
    20    69    70   ar
    21    69    67   ar
    22    84    85   ar
    23    99    98    1
    24    70    68   ar
    25    72    73    1
    26    72    75    1
    27    94    95    1
    28    73    74    2
    29    96    95    1
    30    96    97    1
    31   187   188    1
    32   192   191    1
    33   192   194   ar
    34   196   194   ar
    35    88    89   ar
    36    85    87   ar
    37   191   188    1
    38    75    76    1
    39    92    93    2
    40    92   101   am
    41    67    66   ar
    42   181   183   ar
    43   181   180   ar
    44   170   169    2
    45    98    97    2
    46    98   100    1
    47    64    63    2
    48   179   180    1
    49   227   228    1
    50   101   102    1
    51    68    66   ar
    52   188   189    1
    53   183   185   ar
    54   229   228    1
    55   229   230    2
    56   228   231    1
    57   167   168    1
    58    89    87   ar
    59   168   169    1
    60   168   171    1
    61   180   182   ar
    62    66    65    1
    63   233   235   ar
    64   233   232   ar
    65   103   102    1
    66   103   104    2
    67   107   108    1
    68    63    62    1
    69    76    77    1
    70   102   105    1
    71   235   236   ar
    72   189   190    2
    73    78    77    1
    74   204   203    1
    75   105   106    1
    76   185   186    1
    77   185   184   ar
    78   231   232    1
    79   232   234   ar
    80   171   172    1
    81   182   184   ar
    82   172   173    1
    83    65    62    1
    84    62    61    1
    85   108   109    1
    86   108   111    1
    87   117   116    1
    88   117   118    2
    89   122   124   ar
    90   122   120   ar
    91   115   109   am
    92   115   116    1
    93   236   234   ar
    94   236   238   ar
    95   119   116    1
    96   119   120    1
    97   112   114    1
    98   112   111    1
    99   109   110    2
   100   203   202    1
   101   124   125   ar
   102   234   237   ar
   103   111   113    1
   104   120   121   ar
   105   201   202    1
   106   201   198    1
   107    59    58    2
   108   197   198    1
   109   238   240   ar
   110   173   174    1
   111   211   210    1
   112   125   123   ar
   113   198   199    1
   114   237   239   ar
   115   121   123   ar
   116    58    57    1
   117   240   239   ar
   118    57    60    1
   119    57    56    1
   120   210   209    1
   121   210   212    1
   122   205   199   am
   123   205   206    1
   124    51    50    2
   125   199   200    2
   126     8     6    1
   127   209   206    1
   128    56    50   am
   129    50    49    1
   130   206   207    1
   131    46    45    1
   132   165   163    1
   133   133   131    1
   134     6     5    1
   135   207   208    2
   136   152   150    1
   137   166   164    1
   138    47    45    1
   139    15    13    1
   140   151   149    1
   141    49    52    1
   142    49    48    1
   143     5     7    1
   144     5     2    1
   145    45    44    1
   146    52    53    1
   147    43    42    2
   148   163   164    1
   149   163   160    1
   150   131   132    1
   151   131   130    1
   152    14    13    1
   153    54    53    1
   154    54    55    1
   155   149   150    1
   156   149   146    1
   157    13    10    1
   158   225   223   ar
   159   225   226   ar
   160    42    41    1
   161     1     2    1
   162     2     3    1
   163   130   127    1
   164    44    41    1
   165     9     3   am
   166     9    10    1
   167   223   220   ar
   168    41    40    1
   169   160   161    1
   170   160   159    1
   171   161   162    2
   172     3     4    2
   173   128   129    2
   174   128   127    1
   175    10    11    1
   176   226   224   ar
   177   148   147    2
   178   146   147    1
   179   146   145    1
   180   213   214    1
   181    23    21    1
   182   127   126    1
   183   220   218   ar
   184   220   222   ar
   185    35    34    2
   186   158   157    1
   187    40    34   am
   188   145   136   am
   189   217   214    1
   190   217   218    1
   191   214   215    1
   192    11    12    2
   193   224   222   ar
   194    34    33    1
   195   218   219   ar
   196    21    20    1
   197   222   221   ar
   198   157   154    1
   199    22    20    1
   200    20    17    1
   201   136   137    2
   202   136   135    1
   203    38    36    1
   204   215   216    2
   205   134   135    1
   206    27    26    2
   207   219   221   ar
   208    33    36    1
   209    33    32    1
   210   153   154    1
   211   154   155    1
   212   135   138    1
   213    36    37    1
   214   138   139    1
   215   155   156    2
   216    16    17    1
   217    17    18    1
   218    26    25    1
   219    18    19    2
   220    28    25    1
   221    28    29    1
   222   139   140    1
   223    25    24    1
   224    37    39    1
   225    30    29    2
   226    29    31   am
   227   140   141    1
   228   144   142    1
   229   141   142    2
   230   142   143    1
