@<TRIPOS>MOLECULE
tmp/5q1aC01.pdb
 226 215 0 0 0
SMALL
GASTEIGER

@<TRIPOS>ATOM
      1  N         16.7360   45.7770   47.3080 N.3    27  ILE27      -0.1231
      2  CA        15.8670   46.9200   47.1050 C.3    27  ILE27       0.1692
      3  C         14.3840   46.5230   47.2670 C.2    27  ILE27       0.2592
      4  O         13.6640   47.1480   48.0440 O.2    27  ILE27      -0.2718
      5  CB        16.2050   47.4790   45.6860 C.3    27  ILE27       0.0266
      6  CG1       17.7510   47.6450   45.5430 C.3    27  ILE27       0.0019
      7  CG2       15.4710   48.7780   45.4180 C.3    27  ILE27       0.0020
      8  CD1       18.4040   47.1570   44.2830 C.3    27  ILE27       0.0001
      9  N         13.9400   45.4860   46.5240 N.am   28  THR28      -0.1953
     10  CA        12.5490   45.0360   46.5220 C.3    28  THR28       0.1897
     11  C         12.1360   44.4050   47.8580 C.2    28  THR28       0.2313
     12  O         11.0060   44.6410   48.2740 O.2    28  THR28      -0.2863
     13  CB        12.2220   44.1490   45.3130 C.3    28  THR28       0.1794
     14  OG1       13.1250   43.0500   45.2500 O.3    28  THR28      -0.2208
     15  CG2       12.2530   44.9220   43.9920 C.3    28  THR28       0.0378
     16  N         11.2950   47.4100   50.2360 N.3    31  ILE31      -0.1245
     17  CA        10.0410   48.0540   49.8430 C.3    31  ILE31       0.1561
     18  C          8.8250   47.1690   50.1730 C.2    31  ILE31       0.2260
     19  O          7.8420   47.6750   50.7140 O.2    31  ILE31      -0.2867
     20  CB        10.0530   48.5270   48.3540 C.3    31  ILE31       0.0252
     21  CG1       11.2760   49.4290   48.0390 C.3    31  ILE31       0.0019
     22  CG2        8.7460   49.2440   47.9790 C.3    31  ILE31       0.0019
     23  CD1       11.6140   49.5380   46.5590 C.3    31  ILE31       0.0001
     24  N         11.2530   57.2050   52.8910 N.3    41  ASN41      -0.1240
     25  CA        11.4280   56.8550   51.4800 C.3    41  ASN41       0.1653
     26  C         12.3710   57.8000   50.7470 C.2    41  ASN41       0.2266
     27  O         13.0820   57.3530   49.8450 O.2    41  ASN41      -0.2867
     28  CB        10.0900   56.7480   50.7660 C.3    41  ASN41       0.1155
     29  CG         9.3730   55.4500   51.0350 C.2    41  ASN41       0.2627
     30  OD1        9.9820   54.3860   51.2100 O.2    41  ASN41      -0.2716
     31  ND2        8.0590   55.4980   50.9980 N.am   41  ASN41      -0.0877
     32  N         15.7650   56.5410   51.7550 N.3    44  ILE44      -0.1231
     33  CA        16.0400   55.2760   51.0570 C.3    44  ILE44       0.1692
     34  C         16.4930   55.6150   49.6220 C.2    44  ILE44       0.2591
     35  O         17.5240   55.1090   49.1820 O.2    44  ILE44      -0.2718
     36  CB        14.8310   54.2820   51.1050 C.3    44  ILE44       0.0266
     37  CG1       14.5910   53.7660   52.5510 C.3    44  ILE44       0.0019
     38  CG2       15.0350   53.0900   50.1240 C.3    44  ILE44       0.0020
     39  CD1       13.1670   53.2820   52.8560 C.3    44  ILE44       0.0001
     40  N         15.7710   56.5310   48.9440 N.am   45  LEU45      -0.1980
     41  CA        16.0720   56.9900   47.5820 C.3    45  LEU45       0.1596
     42  C         17.5020   57.5470   47.4640 C.2    45  LEU45       0.2287
     43  O         18.2450   57.1630   46.5710 O.2    45  LEU45      -0.2864
     44  CB        15.0510   58.0690   47.1580 C.3    45  LEU45       0.0297
     45  CG        15.2970   58.7060   45.7790 C.3    45  LEU45       0.0022
     46  CD1       14.7780   57.8150   44.6470 C.3    45  LEU45       0.0001
     47  CD2       14.6750   60.0700   45.6950 C.3    45  LEU45       0.0001
     48  N         20.1900   54.8600   48.0380 N.3    48  MET48      -0.1230
     49  CA        20.1760   54.0050   46.8410 C.3    48  MET48       0.1702
     50  C         20.9280   54.6750   45.6930 C.2    48  MET48       0.2592
     51  O         21.7540   54.0370   45.0350 O.2    48  MET48      -0.2718
     52  CB        18.7370   53.6910   46.4060 C.3    48  MET48       0.0401
     53  CG        18.0830   52.5820   47.2160 C.3    48  MET48       0.0596
     54  SD        18.8120   50.9360   46.9640 S.3    48  MET48      -0.1393
     55  CE        18.6560   50.8040   45.2730 C.3    48  MET48       0.0692
     56  N         20.6480   55.9700   45.4800 N.am   49  ALA49      -0.1980
     57  CA        21.2620   56.7910   44.4490 C.3    49  ALA49       0.1597
     58  C         22.7430   57.0440   44.6930 C.2    49  ALA49       0.2287
     59  O         23.4950   57.1230   43.7200 O.2    49  ALA49      -0.2864
     60  CB        20.5210   58.0970   44.3270 C.3    49  ALA49       0.0319
     61  N         24.3780   53.7510   43.8690 N.3    52  HIS52      -0.1241
     62  CA        24.3190   53.6030   42.4170 C.3    52  HIS52       0.1621
     63  C         25.4350   54.3910   41.7040 C.2    52  HIS52       0.2264
     64  O         26.1350   53.8070   40.8840 O.2    52  HIS52      -0.2867
     65  CB        22.9270   53.9610   41.8570 C.3    52  HIS52       0.0745
     66  CG        22.8350   53.8010   40.3760 C.ar   52  HIS52       0.0817
     67  ND1       23.1090   54.8470   39.5290 N.ar   52  HIS52      -0.2268
     68  CD2       22.5670   52.7000   39.6400 C.ar   52  HIS52       0.1154
     69  CE1       23.0020   54.3600   38.3010 C.ar   52  HIS52       0.1986
     70  NE2       22.6610   53.0790   38.3150 N.ar   52  HIS52      -0.2212
     71  N         20.4470   55.3440   36.2940 N.3    86  MET86      -0.1230
     72  CA        19.6510   55.0970   37.4950 C.3    86  MET86       0.1702
     73  C         18.2350   54.6740   37.1040 C.2    86  MET86       0.2592
     74  O         17.7540   53.6640   37.6160 O.2    86  MET86      -0.2718
     75  CB        19.6680   56.3320   38.4030 C.3    86  MET86       0.0401
     76  CG        18.7540   56.2300   39.5940 C.3    86  MET86       0.0596
     77  SD        18.6120   57.8040   40.4740 S.3    86  MET86      -0.1393
     78  CE        17.7040   58.7670   39.2890 C.3    86  MET86       0.0692
     79  N         17.6000   55.4000   36.1550 N.am   87  PHE87      -0.1976
     80  CA        16.2600   55.0660   35.6670 C.3    87  PHE87       0.1639
     81  C         16.2270   53.7450   34.8740 C.2    87  PHE87       0.2290
     82  O         15.2340   53.0160   34.9440 O.2    87  PHE87      -0.2864
     83  CB        15.6310   56.2310   34.8800 C.3    87  PHE87       0.0560
     84  CG        14.9880   57.2490   35.7940 C.ar   87  PHE87      -0.0200
     85  CD1       13.7660   56.9910   36.3950 C.ar   87  PHE87      -0.0042
     86  CD2       15.6150   58.4580   36.0660 C.ar   87  PHE87      -0.0042
     87  CE1       13.1630   57.9400   37.2230 C.ar   87  PHE87      -0.0003
     88  CE2       15.0200   59.3970   36.9200 C.ar   87  PHE87      -0.0003
     89  CZ        13.8040   59.1270   37.4970 C.ar   87  PHE87      -0.0000
     90  N         18.3420   51.1670   35.4910 N.3    89  ARG89      -0.1231
     91  CA        18.4840   50.1750   36.5630 C.3    89  ARG89       0.1694
     92  C         17.1580   49.9870   37.3310 C.2    89  ARG89       0.2592
     93  O         16.8050   48.8410   37.6380 O.2    89  ARG89      -0.2718
     94  CB        19.6470   50.5400   37.5150 C.3    89  ARG89       0.0321
     95  CG        19.9790   49.5070   38.5960 C.3    89  ARG89       0.0489
     96  CD        20.2950   48.1240   38.0430 C.3    89  ARG89       0.2205
     97  NE        20.7100   47.2080   39.1090 N.pl3  89  ARG89      -0.0865
     98  CZ        20.9250   45.9090   38.9380 C.cat  89  ARG89       0.5346
     99  NH1       20.7560   45.3520   37.7450 N.pl3  89  ARG89       0.1354
    100  NH2       21.3070   45.1540   39.9600 N.pl3  89  ARG89       0.1354
    101  N         16.4170   51.0950   37.6200 N.am   90  SER90      -0.1952
    102  CA        15.1300   51.0030   38.3200 C.3    90  SER90       0.1924
    103  C         14.1130   50.2630   37.4630 C.2    90  SER90       0.2314
    104  O         13.3480   49.4730   37.9870 O.2    90  SER90      -0.2863
    105  CB        14.6100   52.3890   38.6970 C.3    90  SER90       0.2116
    106  OG        15.5450   53.0770   39.5080 O.3    90  SER90      -0.2180
    107  N         15.0160   46.4890   37.6720 N.3    93  ILE93      -0.1231
    108  CA        14.5950   45.9780   38.9800 C.3    93  ILE93       0.1692
    109  C         13.0720   45.8390   39.0440 C.2    93  ILE93       0.2592
    110  O         12.5890   44.7880   39.4450 O.2    93  ILE93      -0.2718
    111  CB        15.2050   46.8310   40.1260 C.3    93  ILE93       0.0266
    112  CG1       16.7330   46.5710   40.1860 C.3    93  ILE93       0.0019
    113  CG2       14.5390   46.5200   41.4850 C.3    93  ILE93       0.0020
    114  CD1       17.5340   47.6300   40.8220 C.3    93  ILE93       0.0001
    115  N         12.3300   46.8630   38.5800 N.am   94  PHE94      -0.1976
    116  CA        10.8690   46.8550   38.5360 C.3    94  PHE94       0.1639
    117  C         10.3140   45.6440   37.7550 C.2    94  PHE94       0.2290
    118  O          9.2750   45.0940   38.1310 O.2    94  PHE94      -0.2864
    119  CB        10.3560   48.1700   37.9060 C.3    94  PHE94       0.0560
    120  CG         8.8680   48.3720   37.9820 C.ar   94  PHE94      -0.0200
    121  CD1        8.2800   48.9010   39.1280 C.ar   94  PHE94      -0.0042
    122  CD2        8.0470   48.0340   36.9070 C.ar   94  PHE94      -0.0042
    123  CE1        6.8960   49.0700   39.2080 C.ar   94  PHE94      -0.0003
    124  CE2        6.6640   48.2150   36.9780 C.ar   94  PHE94      -0.0003
    125  CZ         6.0980   48.7330   38.1270 C.ar   94  PHE94      -0.0000
    126  N          4.6470   46.1500   45.0540 N.3   106  LEU106     -0.1245
    127  CA         5.8310   46.9540   44.7870 C.3   106  LEU106      0.1561
    128  C          5.4290   48.2400   44.0490 C.2   106  LEU106      0.2260
    129  O          5.8210   49.3210   44.4750 O.2   106  LEU106     -0.2867
    130  CB         6.8720   46.1450   43.9860 C.3   106  LEU106      0.0270
    131  CG         8.1820   46.8600   43.6340 C.3   106  LEU106      0.0019
    132  CD1        9.0640   47.0390   44.8670 C.3   106  LEU106      0.0001
    133  CD2        8.9240   46.1330   42.5030 C.3   106  LEU106      0.0001
    134  N          3.4210   50.5440   46.3550 N.3   109  ARG109     -0.1231
    135  CA         4.3180   51.1150   47.3680 C.3   109  ARG109      0.1694
    136  C          5.2170   52.2220   46.7810 C.2   109  ARG109      0.2591
    137  O          5.4880   53.2100   47.4630 O.2   109  ARG109     -0.2718
    138  CB         5.1430   50.0190   48.0870 C.3   109  ARG109      0.0321
    139  CG         4.3230   49.1220   49.0160 C.3   109  ARG109      0.0489
    140  CD         4.5100   49.4600   50.4770 C.3   109  ARG109      0.2205
    141  NE         3.7060   48.6080   51.3620 N.pl3 109  ARG109     -0.0865
    142  CZ         4.1040   47.4290   51.8350 C.cat 109  ARG109      0.5346
    143  NH1        5.2850   46.9380   51.5050 N.pl3 109  ARG109      0.1354
    144  NH2        3.3180   46.7350   52.6460 N.pl3 109  ARG109      0.1354
    145  N          5.6280   52.0730   45.5140 N.am  110  ILE110     -0.1980
    146  CA         6.4220   53.0760   44.7950 C.3   110  ILE110      0.1595
    147  C          5.5080   54.2820   44.4940 C.2   110  ILE110      0.2287
    148  O          5.9470   55.4250   44.6030 O.2   110  ILE110     -0.2864
    149  CB         7.0990   52.4830   43.5320 C.3   110  ILE110      0.0276
    150  CG1        8.2050   51.4730   43.9250 C.3   110  ILE110      0.0022
    151  CG2        7.6750   53.5840   42.6220 C.3   110  ILE110      0.0022
    152  CD1        8.5600   50.5010   42.8360 C.3   110  ILE110      0.0001
    153  N          5.3010   56.4420   47.5840 N.3   113  SER113     -0.1217
    154  CA         6.6300   56.7720   48.1060 C.3   113  SER113      0.1889
    155  C          6.8560   58.2290   48.5350 C.2   113  SER113      0.2288
    156  O          7.6910   58.4690   49.4060 O.2   113  SER113     -0.2866
    157  CB         7.7130   56.3540   47.1230 C.3   113  SER113      0.2089
    158  OG         7.6320   57.0800   45.9090 O.3   113  SER113     -0.2183
    159  N          6.7340   60.8780   45.8730 N.3   115  ILE115     -0.1245
    160  CA         6.8810   61.5800   44.5970 C.3   115  ILE115      0.1561
    161  C          5.4850   61.9650   44.0800 C.2   115  ILE115      0.2260
    162  O          4.5170   61.2420   44.3330 O.2   115  ILE115     -0.2867
    163  CB         7.6850   60.7050   43.5860 C.3   115  ILE115      0.0252
    164  CG1        7.9830   61.4660   42.2630 C.3   115  ILE115      0.0019
    165  CG2        7.0080   59.3390   43.3390 C.3   115  ILE115      0.0019
    166  CD1        9.0900   60.8930   41.4110 C.3   115  ILE115      0.0001
    167  N          6.7820   57.3430   34.5260 N.3   123  MET123     -0.1245
    168  CA         7.7940   56.3880   34.9980 C.3   123  MET123      0.1570
    169  C          7.3450   54.9530   34.7990 C.2   123  MET123      0.2261
    170  O          8.1060   54.1450   34.2730 O.2   123  MET123     -0.2867
    171  CB         8.0970   56.6240   36.4760 C.3   123  MET123      0.0387
    172  CG         9.2980   57.4720   36.7050 C.3   123  MET123      0.0595
    173  SD         9.5730   57.8100   38.4550 S.3   123  MET123     -0.1393
    174  CE         9.6770   56.1810   39.0820 C.3   123  MET123      0.0692
    175  N          8.6800   52.0210   32.5260 N.3   127  TYR127     -0.1241
    176  CA         8.9980   50.7410   33.1770 C.3   127  TYR127      0.1605
    177  C          8.3150   49.5680   32.5030 C.2   127  TYR127      0.2264
    178  O          8.9690   48.5660   32.2410 O.2   127  TYR127     -0.2867
    179  CB         8.6200   50.7440   34.6750 C.3   127  TYR127      0.0534
    180  CG         9.4630   51.6180   35.5730 C.ar  127  TYR127     -0.0201
    181  CD1       10.6650   52.1660   35.1230 C.ar  127  TYR127     -0.0009
    182  CD2        9.0710   51.8910   36.8800 C.ar  127  TYR127     -0.0009
    183  CE1       11.4510   52.9580   35.9520 C.ar  127  TYR127      0.0417
    184  CE2        9.8440   52.6980   37.7130 C.ar  127  TYR127      0.0417
    185  CZ        11.0270   53.2350   37.2390 C.ar  127  TYR127      0.1957
    186  OH        11.7820   54.0440   38.0320 O.3   127  TYR127     -0.2866
    187  N         14.3630   65.5850   36.4200 N.3   205  HIS205     -0.1241
    188  CA        14.8300   64.8910   37.6140 C.3   205  HIS205      0.1621
    189  C         14.8670   65.7710   38.8570 C.2   205  HIS205      0.2264
    190  O         14.3560   65.3520   39.8930 O.2   205  HIS205     -0.2867
    191  CB        16.1880   64.2090   37.3780 C.3   205  HIS205      0.0745
    192  CG        16.6570   63.4150   38.5510 C.ar  205  HIS205      0.0817
    193  ND1       15.8880   62.4010   39.0850 N.ar  205  HIS205     -0.2268
    194  CD2       17.7990   63.5240   39.2670 C.ar  205  HIS205      0.1154
    195  CE1       16.5760   61.9280   40.1060 C.ar  205  HIS205      0.1986
    196  NE2       17.7440   62.5580   40.2410 N.ar  205  HIS205     -0.2212
    197  N         11.3350   66.4170   39.9870 N.3   208  MET208     -0.1230
    198  CA        10.6620   65.2990   40.6500 C.3   208  MET208      0.1702
    199  C         11.2290   65.0500   42.0620 C.2   208  MET208      0.2592
    200  O         10.4460   64.6760   42.9400 O.2   208  MET208     -0.2718
    201  CB        10.5300   64.0030   39.8040 C.3   208  MET208      0.0401
    202  CG        11.7850   63.3360   39.3470 C.3   208  MET208      0.0596
    203  SD        11.3690   61.9280   38.2490 S.3   208  MET208     -0.1393
    204  CE        11.8230   62.5860   36.7100 C.3   208  MET208      0.0692
    205  N         12.5240   65.3980   42.3080 N.am  209  LEU209     -0.1980
    206  CA        13.1700   65.2980   43.6200 C.3   209  LEU209      0.1596
    207  C         12.6290   66.3630   44.5580 C.2   209  LEU209      0.2287
    208  O         12.3110   66.0500   45.7040 O.2   209  LEU209     -0.2864
    209  CB        14.6930   65.4790   43.5300 C.3   209  LEU209      0.0297
    210  CG        15.5170   64.3780   42.9030 C.3   209  LEU209      0.0022
    211  CD1       16.8840   64.8860   42.5910 C.3   209  LEU209      0.0001
    212  CD2       15.6020   63.1600   43.7960 C.3   209  LEU209      0.0001
    213  N          9.0240   66.0060   46.0060 N.3   212  TRP212     -0.1241
    214  CA         8.8480   64.9400   47.0010 C.3   212  TRP212      0.1605
    215  C          8.1780   65.5090   48.2430 C.2   212  TRP212      0.2264
    216  O          8.5510   66.6020   48.6980 O.2   212  TRP212     -0.2867
    217  CB        10.1860   64.2890   47.3700 C.3   212  TRP212      0.0550
    218  CG        10.0630   62.8680   47.8330 C.ar  212  TRP212      0.0003
    219  CD1        9.7240   62.4370   49.0800 C.ar  212  TRP212      0.0946
    220  CD2       10.3050   61.6940   47.0510 C.ar  212  TRP212      0.0152
    221  NE1        9.7210   61.0620   49.1210 N.ar  212  TRP212     -0.2442
    222  CE2       10.0710   60.5780   47.8880 C.ar  212  TRP212      0.0810
    223  CE3       10.6600   61.4700   45.7060 C.ar  212  TRP212      0.0012
    224  CZ2       10.2100   59.2540   47.4340 C.ar  212  TRP212      0.0191
    225  CZ3       10.8220   60.1610   45.2660 C.ar  212  TRP212      0.0001
    226  CH2       10.5670   59.0710   46.1170 C.ar  212  TRP212      0.0015
@<TRIPOS>BOND
     1   178   177    2
     2   177   176    1
     3   175   176    1
     4   176   179    1
     5   170   169    2
     6   167   168    1
     7   179   180    1
     8   169   168    1
     9    81    82    2
    10    81    80    1
    11    83    80    1
    12    83    84    1
    13   168   171    1
    14   181   180   ar
    15   181   183   ar
    16    90    91    1
    17   180   182   ar
    18    80    79    1
    19    84    86   ar
    20    84    85   ar
    21   183   185   ar
    22    86    88   ar
    23    79    73   am
    24    71    72    1
    25    85    87   ar
    26   187   188    1
    27   171   172    1
    28    91    92    1
    29    91    94    1
    30   172   173    1
    31   204   203    1
    32   182   184   ar
    33   122   124   ar
    34   122   120   ar
    35    88    89   ar
    36   124   125   ar
    37    73    72    1
    38    73    74    2
    39    87    89   ar
    40   185   184   ar
    41   185   186    1
    42    92   101   am
    43    92    93    2
    44   191   188    1
    45   191   192    1
    46   103   104    2
    47   103   102    1
    48    72    75    1
    49    94    95    1
    50   188   189    1
    51   101   102    1
    52   107   108    1
    53    99    98    1
    54   117   118    2
    55   117   116    1
    56   119   120    1
    57   119   116    1
    58   120   121   ar
    59    96    95    1
    60    96    97    1
    61   125   123   ar
    62   203   202    1
    63    69    70   ar
    64    69    67   ar
    65    70    68   ar
    66   102   105    1
    67    75    76    1
    68   173   174    1
    69   116   115    1
    70   192   193   ar
    71   192   194   ar
    72   115   109   am
    73   105   106    1
    74   189   190    2
    75    98    97    2
    76    98   100    1
    77   108   109    1
    78   108   111    1
    79   109   110    2
    80   193   195   ar
    81   121   123   ar
    82   194   196   ar
    83    78    77    1
    84   202   201    1
    85    67    66   ar
    86    76    77    1
    87    68    66   ar
    88   201   198    1
    89   197   198    1
    90   195   196   ar
    91   111   112    1
    92   111   113    1
    93   112   114    1
    94    66    65    1
    95   198   199    1
    96    64    63    2
    97   166   164    1
    98    63    62    1
    99    65    62    1
   100   199   205   am
   101   199   200    2
   102   164   163    1
   103   205   206    1
   104    62    61    1
   105   133   131    1
   106   211   210    1
   107   151   149    1
   108   152   150    1
   109   210   209    1
   110   210   212    1
   111   165   163    1
   112   209   206    1
   113   149   150    1
   114   149   146    1
   115   163   160    1
   116   206   207    1
   117   131   130    1
   118   131   132    1
   119    59    58    2
   120   130   127    1
   121    15    13    1
   122   128   129    2
   123   128   127    1
   124   161   162    2
   125   161   160    1
   126     8     6    1
   127    60    57    1
   128    57    58    1
   129    57    56    1
   130   147   148    2
   131   147   146    1
   132   207   208    2
   133   160   159    1
   134    46    45    1
   135   127   126    1
   136   146   145    1
   137    51    50    2
   138    14    13    1
   139   225   223   ar
   140   225   226   ar
   141    55    54    1
   142    13    10    1
   143     7     5    1
   144    56    50   am
   145   145   136   am
   146     6     5    1
   147     5     2    1
   148    50    49    1
   149    47    45    1
   150   223   220   ar
   151    45    44    1
   152   158   157    1
   153   213   214    1
   154   226   224   ar
   155   134   135    1
   156    52    49    1
   157    52    53    1
   158    10     9    1
   159    10    11    1
   160     9     3   am
   161    23    21    1
   162    43    42    2
   163   136   135    1
   164   136   137    2
   165    49    48    1
   166    54    53    1
   167   214   217    1
   168   214   215    1
   169   220   218   ar
   170   220   222   ar
   171     2     3    1
   172     2     1    1
   173   157   154    1
   174    44    41    1
   175     3     4    2
   176   135   138    1
   177   217   218    1
   178   224   222   ar
   179    42    41    1
   180    41    40    1
   181   153   154    1
   182   218   219   ar
   183    11    12    2
   184   222   221   ar
   185    22    20    1
   186    21    20    1
   187   138   139    1
   188   154   155    1
   189   215   216    2
   190    20    17    1
   191   155   156    2
   192    40    34   am
   193   139   140    1
   194   219   221   ar
   195    35    34    2
   196    34    33    1
   197    17    18    1
   198    17    16    1
   199    27    26    2
   200    38    36    1
   201    18    19    2
   202   140   141    1
   203    26    25    1
   204    28    29    1
   205    28    25    1
   206    31    29   am
   207    29    30    2
   208    33    36    1
   209    33    32    1
   210    36    37    1
   211   141   142    2
   212    25    24    1
   213   143   142    1
   214   142   144    1
   215    37    39    1
