@<TRIPOS>MOLECULE
tmp/5q1eA01.pdb
 260 251 0 0 0
SMALL
GASTEIGER

@<TRIPOS>ATOM
      1  N         30.6590   21.9540   -4.8900 N.3    21  GLN21      -0.1231
      2  CA        31.9840   21.6650   -4.3230 C.3    21  GLN21       0.1698
      3  C         33.1060   22.1600   -5.2190 C.2    21  GLN21       0.2592
      4  O         33.1280   21.8980   -6.4250 O.2    21  GLN21      -0.2718
      5  CB        32.1570   20.1590   -4.0260 C.3    21  GLN21       0.0381
      6  CG        33.4120   19.7790   -3.1940 C.3    21  GLN21       0.0905
      7  CD        34.7140   19.6170   -3.9670 C.2    21  GLN21       0.2608
      8  OE1       35.7910   19.9980   -3.5010 O.2    21  GLN21      -0.2717
      9  NE2       34.6620   19.0570   -5.1610 N.am   21  GLN21      -0.0878
     10  N         34.0560   22.8560   -4.6000 N.am   22  ARG22      -0.1966
     11  CA        35.2340   23.4180   -5.2420 C.3    22  ARG22       0.1729
     12  C         36.2790   23.5820   -4.1510 C.2    22  ARG22       0.2616
     13  O         36.0080   24.2230   -3.1300 O.2    22  ARG22      -0.2715
     14  CB        34.8940   24.7770   -5.8830 C.3    22  ARG22       0.0348
     15  CG        35.9290   25.2910   -6.8810 C.3    22  ARG22       0.0492
     16  CD        35.3500   26.3960   -7.7510 C.3    22  ARG22       0.2205
     17  NE        34.6700   25.8660   -8.9380 N.pl3  22  ARG22      -0.0865
     18  CZ        33.3600   25.6500   -9.0350 C.cat  22  ARG22       0.5346
     19  NH1       32.5560   25.9230   -8.0130 N.pl3  22  ARG22       0.1354
     20  NH2       32.8430   25.1670  -10.1550 N.pl3  22  ARG22       0.1354
     21  N         37.4540   22.9650   -4.3450 N.am   23  MET23      -0.1964
     22  CA        38.5540   23.0420   -3.3880 C.3    23  MET23       0.1722
     23  C         39.0360   24.4950   -3.2840 C.2    23  MET23       0.2458
     24  O         39.3000   25.1160   -4.3180 O.2    23  MET23      -0.2730
     25  CB        39.6970   22.1050   -3.8020 C.3    23  MET23       0.0427
     26  CG        39.3960   20.6410   -3.5300 C.3    23  MET23       0.0599
     27  SD        40.6550   19.8150   -2.5340 S.3    23  MET23      -0.1393
     28  CE        40.3110   20.5120   -1.0090 C.3    23  MET23       0.0692
     29  N         39.0640   25.0950   -2.0710 N.am   24  PRO24      -0.2727
     30  CA        39.5120   26.4920   -1.9700 C.3    24  PRO24       0.1402
     31  C         41.0020   26.6120   -2.2660 C.2    24  PRO24       0.2269
     32  O         41.7580   25.6630   -2.0400 O.2    24  PRO24      -0.2865
     33  CB        39.1580   26.8910   -0.5370 C.3    24  PRO24       0.0296
     34  CG        39.1430   25.6170    0.2230 C.3    24  PRO24       0.0237
     35  CD        38.7630   24.5240   -0.7410 C.3    24  PRO24       0.0939
     36  N         43.9070   25.7730    0.5200 N.3    27  ILE27      -0.1245
     37  CA        44.2360   24.3630    0.7280 C.3    27  ILE27       0.1561
     38  C         45.1610   23.8380   -0.3770 C.2    27  ILE27       0.2260
     39  O         46.1540   23.1690   -0.0740 O.2    27  ILE27      -0.2867
     40  CB        42.9520   23.5060    0.9200 C.3    27  ILE27       0.0252
     41  CG1       42.6540   23.2990    2.4190 C.3    27  ILE27       0.0019
     42  CG2       43.0140   22.1670    0.1700 C.3    27  ILE27       0.0019
     43  CD1       43.6100   22.3220    3.1590 C.3    27  ILE27       0.0001
     44  N         50.2620   15.9900    7.9800 N.3    42  PHE42      -0.1241
     45  CA        49.0820   15.5990    8.7530 C.3    42  PHE42       0.1605
     46  C         48.1080   16.7530    8.9260 C.2    42  PHE42       0.2264
     47  O         46.9050   16.5430    8.7790 O.2    42  PHE42      -0.2867
     48  CB        49.4640   14.9640   10.1020 C.3    42  PHE42       0.0534
     49  CG        48.2880   14.2670   10.7350 C.ar   42  PHE42      -0.0203
     50  CD1       47.8170   13.0600   10.2270 C.ar   42  PHE42      -0.0042
     51  CD2       47.6220   14.8360   11.8110 C.ar   42  PHE42      -0.0042
     52  CE1       46.7020   12.4340   10.7890 C.ar   42  PHE42      -0.0003
     53  CE2       46.5140   14.2030   12.3790 C.ar   42  PHE42      -0.0003
     54  CZ        46.0570   13.0120   11.8590 C.ar   42  PHE42      -0.0000
     55  N         46.0550   17.2760    5.7930 N.3    45  LEU45      -0.1231
     56  CA        45.0250   16.2280    5.7300 C.3    45  LEU45       0.1693
     57  C         43.8380   16.4980    6.6620 C.2    45  LEU45       0.2592
     58  O         42.6840   16.3300    6.2480 O.2    45  LEU45      -0.2718
     59  CB        45.6390   14.8360    5.9760 C.3    45  LEU45       0.0284
     60  CG        46.7590   14.4280    4.9910 C.3    45  LEU45       0.0019
     61  CD1       47.3290   13.0650    5.3430 C.3    45  LEU45       0.0001
     62  CD2       46.2870   14.4790    3.5490 C.3    45  LEU45       0.0001
     63  N         44.1240   16.9400    7.9000 N.am   46  THR46      -0.1953
     64  CA        43.1340   17.3040    8.9300 C.3    46  THR46       0.1897
     65  C         42.2300   18.4380    8.4180 C.2    46  THR46       0.2313
     66  O         41.0080   18.3790    8.5760 O.2    46  THR46      -0.2863
     67  CB        43.8910   17.7350   10.2120 C.3    46  THR46       0.1794
     68  OG1       44.6550   16.6390   10.6910 O.3    46  THR46      -0.2208
     69  CG2       42.9730   18.2460   11.3120 C.3    46  THR46       0.0378
     70  N         41.7240   19.2870    5.2820 N.3    48  MET48      -0.1230
     71  CA        40.9340   18.7470    4.1740 C.3    48  MET48       0.1702
     72  C         39.7270   17.9570    4.7190 C.2    48  MET48       0.2592
     73  O         38.5920   18.2000    4.2910 O.2    48  MET48      -0.2718
     74  CB        41.8070   17.8750    3.2450 C.3    48  MET48       0.0401
     75  CG        42.7880   18.6790    2.4180 C.3    48  MET48       0.0596
     76  SD        43.7560   17.6140    1.3320 S.3    48  MET48      -0.1393
     77  CE        42.5530   17.3240    0.0230 C.3    48  MET48       0.0692
     78  N         39.9610   17.0740    5.7100 N.am   49  ALA49      -0.1980
     79  CA        38.9150   16.2630    6.3470 C.3    49  ALA49       0.1597
     80  C         37.8510   17.1530    7.0150 C.2    49  ALA49       0.2287
     81  O         36.6510   16.8740    6.8990 O.2    49  ALA49      -0.2864
     82  CB        39.5380   15.3150    7.3660 C.3    49  ALA49       0.0319
     83  N         37.1670   20.4770    6.2870 N.3    51  ASN51      -0.1225
     84  CA        36.4690   21.1490    5.1980 C.3    51  ASN51       0.1785
     85  C         35.4480   20.2130    4.5080 C.2    51  ASN51       0.2597
     86  O         34.3530   20.6600    4.1700 O.2    51  ASN51      -0.2718
     87  CB        37.4680   21.6570    4.2030 C.3    51  ASN51       0.1169
     88  CG        37.9520   23.0480    4.5310 C.2    51  ASN51       0.2627
     89  OD1       38.7850   23.2570    5.4250 O.2    51  ASN51      -0.2716
     90  ND2       37.3930   24.0370    3.8470 N.am   51  ASN51      -0.0877
     91  N         35.7810   18.9080    4.3590 N.am   52  HIS52      -0.1975
     92  CA        34.8350   17.9600    3.7650 C.3    52  HIS52       0.1656
     93  C         33.5330   17.8230    4.5880 C.2    52  HIS52       0.2291
     94  O         32.4650   17.6500    4.0010 O.2    52  HIS52      -0.2864
     95  CB        35.4470   16.5780    3.4810 C.3    52  HIS52       0.0771
     96  CG        34.4490   15.7040    2.7860 C.ar   52  HIS52       0.0820
     97  ND1       33.6360   14.8390    3.4950 N.ar   52  HIS52      -0.2267
     98  CD2       34.0160   15.7580    1.5000 C.ar   52  HIS52       0.1154
     99  CE1       32.7990   14.3250    2.6050 C.ar   52  HIS52       0.1986
    100  NE2       32.9980   14.8410    1.3880 N.ar   52  HIS52      -0.2212
    101  N         31.3770   20.6130    3.5490 N.3    55  VAL55      -0.1245
    102  CA        30.9870   20.3330    2.1650 C.3    55  VAL55       0.1561
    103  C         29.8370   19.2810    2.1350 C.2    55  VAL55       0.2260
    104  O         28.8350   19.4670    1.4300 O.2    55  VAL55      -0.2867
    105  CB        32.2330   19.9010    1.3380 C.3    55  VAL55       0.0252
    106  CG1       31.8360   19.1450    0.0660 C.3    55  VAL55       0.0019
    107  CG2       33.1040   21.1170    0.9930 C.3    55  VAL55       0.0019
    108  N         33.4000   10.9530    2.5840 N.3    86  MET86      -0.1230
    109  CA        34.7530   11.5100    2.5150 C.3    86  MET86       0.1702
    110  C         35.6130   10.7550    1.5220 C.2    86  MET86       0.2592
    111  O         36.1870   11.3860    0.6370 O.2    86  MET86      -0.2718
    112  CB        35.4230   11.5480    3.8980 C.3    86  MET86       0.0401
    113  CG        36.8710   12.0370    3.8520 C.3    86  MET86       0.0596
    114  SD        37.5830   12.2560    5.4940 S.3    86  MET86      -0.1393
    115  CE        37.8030   10.5520    6.0030 C.3    86  MET86       0.0692
    116  N         35.6830    9.4180    1.6370 N.am   87  PHE87      -0.1976
    117  CA        36.5050    8.6180    0.7390 C.3    87  PHE87       0.1639
    118  C         36.0100    8.6350   -0.6850 C.2    87  PHE87       0.2290
    119  O         36.8290    8.6320   -1.6040 O.2    87  PHE87      -0.2864
    120  CB        36.6990    7.1760    1.2600 C.3    87  PHE87       0.0560
    121  CG        37.7120    7.1250    2.3750 C.ar   87  PHE87      -0.0200
    122  CD1       39.0740    7.2080    2.1030 C.ar   87  PHE87      -0.0042
    123  CD2       37.3050    7.0960    3.7030 C.ar   87  PHE87      -0.0042
    124  CE1       40.0130    7.2160    3.1420 C.ar   87  PHE87      -0.0003
    125  CE2       38.2460    7.0800    4.7420 C.ar   87  PHE87      -0.0003
    126  CZ        39.5920    7.1480    4.4550 C.ar   87  PHE87      -0.0000
    127  N         34.3920   11.2000   -2.2180 N.3    89  ARG89      -0.1231
    128  CA        34.7650   12.5150   -2.7490 C.3    89  ARG89       0.1694
    129  C         36.2680   12.5450   -3.0110 C.2    89  ARG89       0.2592
    130  O         36.6830   13.0900   -4.0330 O.2    89  ARG89      -0.2718
    131  CB        34.3200   13.6370   -1.7970 C.3    89  ARG89       0.0321
    132  CG        34.3960   15.0470   -2.4180 C.3    89  ARG89       0.0489
    133  CD        33.1860   15.3790   -3.2940 C.3    89  ARG89       0.2205
    134  NE        31.9810   15.7090   -2.5190 N.pl3  89  ARG89      -0.0865
    135  CZ        30.9960   16.4880   -2.9610 C.cat  89  ARG89       0.5346
    136  NH1       31.0560   17.0250   -4.1740 N.pl3  89  ARG89       0.1354
    137  NH2       29.9370   16.7280   -2.1980 N.pl3  89  ARG89       0.1354
    138  N         37.0710   11.9290   -2.0950 N.am   90  SER90      -0.1952
    139  CA        38.5320   11.8080   -2.2090 C.3    90  SER90       0.1924
    140  C         38.9510   11.1080   -3.4930 C.2    90  SER90       0.2314
    141  O         39.8750   11.5650   -4.1770 O.2    90  SER90      -0.2863
    142  CB        39.1020   11.0520   -1.0150 C.3    90  SER90       0.2116
    143  OG        38.7980   11.7360    0.1860 O.3    90  SER90      -0.2180
    144  N         38.3660   13.5660   -6.4240 N.3    93  ILE93      -0.1231
    145  CA        39.3620   14.6540   -6.4110 C.3    93  ILE93       0.1692
    146  C         40.7630   14.1470   -6.8090 C.2    93  ILE93       0.2592
    147  O         41.4440   14.7880   -7.6210 O.2    93  ILE93      -0.2718
    148  CB        39.3230   15.3850   -5.0410 C.3    93  ILE93       0.0266
    149  CG1       37.9880   16.1600   -4.9020 C.3    93  ILE93       0.0019
    150  CG2       40.5520   16.2950   -4.8110 C.3    93  ILE93       0.0020
    151  CD1       37.7090   16.6980   -3.5870 C.3    93  ILE93       0.0001
    152  N         41.1670   12.9870   -6.2740 N.am   94  PHE94      -0.1976
    153  CA        42.4610   12.3840   -6.5990 C.3    94  PHE94       0.1639
    154  C         42.5570   11.9800   -8.0780 C.2    94  PHE94       0.2290
    155  O         43.5910   12.2200   -8.6960 O.2    94  PHE94      -0.2864
    156  CB        42.7700   11.1920   -5.6680 C.3    94  PHE94       0.0560
    157  CG        44.1310   10.5730   -5.8810 C.ar   94  PHE94      -0.0200
    158  CD1       45.2760   11.1840   -5.3870 C.ar   94  PHE94      -0.0042
    159  CD2       44.2680    9.3820   -6.5800 C.ar   94  PHE94      -0.0042
    160  CE1       46.5390   10.6140   -5.5960 C.ar   94  PHE94      -0.0003
    161  CE2       45.5280    8.8090   -6.7810 C.ar   94  PHE94      -0.0003
    162  CZ        46.6520    9.4330   -6.2920 C.ar   94  PHE94      -0.0000
    163  N         50.1220   15.4220   -3.2380 N.3   106  LEU106     -0.1245
    164  CA        49.1760   15.0700   -2.1720 C.3   106  LEU106      0.1561
    165  C         49.3750   13.6150   -1.7390 C.2   106  LEU106      0.2260
    166  O         49.4100   13.3570   -0.5420 O.2   106  LEU106     -0.2867
    167  CB        47.7190   15.3900   -2.5290 C.3   106  LEU106      0.0270
    168  CG        46.6780   15.1840   -1.3940 C.3   106  LEU106      0.0019
    169  CD1       47.0820   15.8960   -0.1000 C.3   106  LEU106      0.0001
    170  CD2       45.3470   15.6980   -1.8100 C.3   106  LEU106      0.0001
    171  N         50.2820   12.2710    1.9000 N.3   110  ILE110     -0.1245
    172  CA        49.4770   11.2190    2.5440 C.3   110  ILE110      0.1561
    173  C         50.4010   10.0720    3.0090 C.2   110  ILE110      0.2260
    174  O         50.2940    9.6350    4.1600 O.2   110  ILE110     -0.2867
    175  CB        48.3450   10.7250    1.5970 C.3   110  ILE110      0.0252
    176  CG1       47.2500   11.7990    1.4180 C.3   110  ILE110      0.0019
    177  CG2       47.7290    9.4060    2.0960 C.3   110  ILE110      0.0019
    178  CD1       46.3770   11.6250    0.2040 C.3   110  ILE110      0.0001
    179  N         50.6950    8.1940    9.1200 N.3   115  ILE115     -0.1245
    180  CA        49.5910    7.2320    9.0680 C.3   115  ILE115      0.1561
    181  C         50.1240    5.8890    8.5550 C.2   115  ILE115      0.2260
    182  O         50.8710    5.8590    7.5780 O.2   115  ILE115     -0.2867
    183  CB        48.3680    7.7530    8.2680 C.3   115  ILE115      0.0252
    184  CG1       47.8690    9.1010    8.8420 C.3   115  ILE115      0.0019
    185  CG2       47.2310    6.7110    8.2450 C.3   115  ILE115      0.0019
    186  CD1       46.8670    9.8840    7.9270 C.3   115  ILE115      0.0001
    187  N         43.1530    2.5470    0.9800 N.3   123  MET123     -0.1245
    188  CA        42.7610    3.8630    0.4680 C.3   123  MET123      0.1570
    189  C         43.1570    4.0140   -1.0110 C.2   123  MET123      0.2261
    190  O         42.2870    4.2720   -1.8500 O.2   123  MET123     -0.2867
    191  CB        43.3770    4.9750    1.3280 C.3   123  MET123      0.0387
    192  CG        42.9110    6.3610    0.9560 C.3   123  MET123      0.0595
    193  SD        43.9560    7.6850    1.6360 S.3   123  MET123     -0.1393
    194  CE        43.9580    7.2450    3.3730 C.3   123  MET123      0.0692
    195  N         40.9580    4.0810   -4.6900 N.3   127  TYR127     -0.1241
    196  CA        41.0600    5.1240   -5.7340 C.3   127  TYR127      0.1605
    197  C         41.2760    4.5120   -7.1090 C.2   127  TYR127      0.2264
    198  O         40.6080    4.9320   -8.0500 O.2   127  TYR127     -0.2867
    199  CB        42.1610    6.1640   -5.4390 C.3   127  TYR127      0.0534
    200  CG        42.0140    6.9390   -4.1390 C.ar  127  TYR127     -0.0201
    201  CD1       40.8010    6.9770   -3.4550 C.ar  127  TYR127     -0.0009
    202  CD2       43.0830    7.6530   -3.6090 C.ar  127  TYR127     -0.0009
    203  CE1       40.6680    7.6810   -2.2560 C.ar  127  TYR127      0.0417
    204  CE2       42.9540    8.3850   -2.4280 C.ar  127  TYR127      0.0417
    205  CZ        41.7500    8.3860   -1.7480 C.ar  127  TYR127      0.1957
    206  OH        41.6500    9.0760   -0.5640 O.3   127  TYR127     -0.2866
    207  N         38.9560    3.5000    9.5390 N.3   205  HIS205     -0.1241
    208  CA        38.9460    4.8480   10.0810 C.3   205  HIS205      0.1621
    209  C         38.8130    4.8590   11.6030 C.2   205  HIS205      0.2264
    210  O         39.4950    5.6500   12.2620 O.2   205  HIS205     -0.2867
    211  CB        37.8370    5.6690    9.4470 C.3   205  HIS205      0.0745
    212  CG        38.0830    7.1220    9.5620 C.ar  205  HIS205      0.0817
    213  ND1       39.0430    7.7400    8.8030 N.ar  205  HIS205     -0.2268
    214  CD2       37.5250    8.0250   10.3950 C.ar  205  HIS205      0.1154
    215  CE1       39.0310    9.0040    9.1760 C.ar  205  HIS205      0.1986
    216  NE2       38.1270    9.2210   10.1250 N.ar  205  HIS205     -0.2212
    217  N         42.1590    3.6960   13.1730 N.3   208  MET208     -0.1245
    218  CA        43.1150    4.7930   12.9790 C.3   208  MET208      0.1570
    219  C         42.9480    5.8820   14.0570 C.2   208  MET208      0.2261
    220  O         43.9490    6.3550   14.5980 O.2   208  MET208     -0.2867
    221  CB        42.9590    5.3850   11.5680 C.3   208  MET208      0.0387
    222  CG        44.0210    6.3970   11.2010 C.3   208  MET208      0.0595
    223  SD        43.6770    7.1950    9.6120 S.3   208  MET208     -0.1393
    224  CE        42.5450    8.4660   10.1200 C.3   208  MET208      0.0692
    225  N         45.6000    7.1290   18.0910 N.3   212  TRP212     -0.1241
    226  CA        46.1780    8.4350   18.4100 C.3   212  TRP212      0.1605
    227  C         46.3000    8.6790   19.9080 C.2   212  TRP212      0.2264
    228  O         45.3810    8.3640   20.6670 O.2   212  TRP212     -0.2867
    229  CB        45.3900    9.5750   17.7400 C.3   212  TRP212      0.0550
    230  CG        45.3040    9.5090   16.2390 C.ar  212  TRP212      0.0003
    231  CD1       46.0400    8.7220   15.4000 C.ar  212  TRP212      0.0946
    232  CD2       44.4590   10.3060   15.4000 C.ar  212  TRP212      0.0152
    233  NE1       45.6750    8.9480   14.0950 N.ar  212  TRP212     -0.2442
    234  CE2       44.7160    9.9270   14.0640 C.ar  212  TRP212      0.0810
    235  CE3       43.4990   11.3030   15.6490 C.ar  212  TRP212      0.0012
    236  CZ2       44.0360   10.4970   12.9800 C.ar  212  TRP212      0.0191
    237  CZ3       42.8540   11.8910   14.5720 C.ar  212  TRP212      0.0001
    238  CH2       43.1160   11.4840   13.2560 C.ar  212  TRP212      0.0015
    239  N         37.4900   16.4190   14.9520 N.3   219  LEU219     -0.1245
    240  CA        37.1350   15.3070   14.0700 C.3   219  LEU219      0.1561
    241  C         36.6950   14.0540   14.8220 C.2   219  LEU219      0.2260
    242  O         35.7470   13.4000   14.3840 O.2   219  LEU219     -0.2867
    243  CB        38.2620   14.9970   13.0770 C.3   219  LEU219      0.0270
    244  CG        38.5490   16.0540   11.9970 C.3   219  LEU219      0.0019
    245  CD1       39.8280   15.7240   11.2570 C.3   219  LEU219      0.0001
    246  CD2       37.3840   16.2000   11.0170 C.3   219  LEU219      0.0001
    247  N         33.1940   11.7060   14.1070 N.3   223  TRP223     -0.1241
    248  CA        33.3490   10.2920   13.7600 C.3   223  TRP223      0.1605
    249  C         33.1550    9.3070   14.9250 C.2   223  TRP223      0.2264
    250  O         33.1260    8.0980   14.6800 O.2   223  TRP223     -0.2867
    251  CB        34.7110   10.0650   13.0960 C.3   223  TRP223      0.0550
    252  CG        34.9290   10.8330   11.8260 C.ar  223  TRP223      0.0003
    253  CD1       34.0200   11.0630   10.8350 C.ar  223  TRP223      0.0946
    254  CD2       36.1670   11.3940   11.3740 C.ar  223  TRP223      0.0152
    255  NE1       34.6060   11.7640    9.8090 N.ar  223  TRP223     -0.2442
    256  CE2       35.9290   11.9650   10.1050 C.ar  223  TRP223      0.0810
    257  CE3       37.4560   11.4840   11.9280 C.ar  223  TRP223      0.0012
    258  CZ2       36.9360   12.6020    9.3720 C.ar  223  TRP223      0.0191
    259  CZ3       38.4630   12.0790   11.1820 C.ar  223  TRP223      0.0001
    260  CH2       38.1920   12.6530    9.9330 C.ar  223  TRP223      0.0015
@<TRIPOS>BOND
     1    20    18    1
     2    18    17    2
     3    18    19    1
     4    17    16    1
     5   155   154    2
     6   154   153    1
     7   198   197    2
     8    16    15    1
     9   147   146    2
    10   197   196    1
    11    15    14    1
    12   146   145    1
    13   146   152   am
    14   161   159   ar
    15   161   162   ar
    16   153   152    1
    17   153   156    1
    18   159   157   ar
    19     4     3    2
    20   144   145    1
    21   145   148    1
    22   162   160   ar
    23    14    11    1
    24   157   156    1
    25   157   158   ar
    26   196   199    1
    27   196   195    1
    28   160   158   ar
    29   199   200    1
    30    11    10    1
    31    11    12    1
    32     3    10   am
    33     3     2    1
    34     9     7   am
    35   148   149    1
    36   148   150    1
    37   149   151    1
    38     1     2    1
    39    21    12   am
    40    21    22    1
    41     2     5    1
    42    24    23    2
    43   141   140    2
    44   136   135    1
    45    12    13    2
    46   200   202   ar
    47   200   201   ar
    48   130   129    2
    49     5     6    1
    50     7     8    2
    51     7     6    1
    52    25    26    1
    53    25    22    1
    54   202   204   ar
    55    26    27    1
    56   140   139    1
    57   201   203   ar
    58    22    23    1
    59   133   134    1
    60   133   132    1
    61    23    29   am
    62   163   164    1
    63   129   128    1
    64   129   138   am
    65   135   134    2
    66   135   137    1
    67   128   127    1
    68   128   131    1
    69    27    28    1
    70   167   164    1
    71   167   168    1
    72   204   205   ar
    73   132   131    1
    74    31    32    2
    75    31    30    1
    76   203   205   ar
    77   139   138    1
    78   139   142    1
    79   164   165    1
    80    29    30    1
    81    29    35    1
    82    30    33    1
    83   190   189    2
    84   170   168    1
    85   205   206    1
    86   165   166    2
    87   119   118    2
    88   168   169    1
    89   142   143    1
    90   189   188    1
    91    35    34    1
    92   118   117    1
    93    33    34    1
    94    38    39    2
    95    38    37    1
    96    77    76    1
    97   106   105    1
    98    42    40    1
    99   178   176    1
   100   188   187    1
   101   188   191    1
   102    36    37    1
   103   111   110    2
   104    37    40    1
   105   117   120    1
   106   117   116    1
   107    40    41    1
   108   192   191    1
   109   192   193    1
   110   107   105    1
   111   120   121    1
   112    76    75    1
   113   105   102    1
   114   100    98   ar
   115   100    99   ar
   116   176   175    1
   117   104   103    2
   118    98    96   ar
   119   110   116   am
   120   110   109    1
   121   175   177    1
   122   175   172    1
   123   193   194    1
   124   171   172    1
   125   122   121   ar
   126   122   124   ar
   127   103   102    1
   128   102   101    1
   129   121   123   ar
   130    75    74    1
   131    41    43    1
   132   109   108    1
   133   109   112    1
   134   172   173    1
   135    99    97   ar
   136    96    95    1
   137    96    97   ar
   138   173   174    2
   139   124   126   ar
   140    74    71    1
   141    95    92    1
   142    62    60    1
   143   123   125   ar
   144    92    91    1
   145    92    93    1
   146    90    88   am
   147   113   112    1
   148   113   114    1
   149    94    93    2
   150    86    85    2
   151    71    72    1
   152    71    70    1
   153    87    88    1
   154    87    84    1
   155    73    72    2
   156    91    85   am
   157   126   125   ar
   158    85    84    1
   159    88    89    2
   160    72    78   am
   161    60    61    1
   162    60    59    1
   163    84    83    1
   164   114   115    1
   165    78    79    1
   166    56    55    1
   167    56    59    1
   168    56    57    1
   169    58    57    2
   170    79    80    1
   171    79    82    1
   172    57    63   am
   173    81    80    2
   174   182   181    2
   175    63    64    1
   176   186   184    1
   177    44    45    1
   178   185   183    1
   179   183   184    1
   180   183   180    1
   181    65    66    2
   182    65    64    1
   183   181   180    1
   184    45    46    1
   185    45    48    1
   186    47    46    2
   187   213   215   ar
   188   213   212   ar
   189    64    67    1
   190   180   179    1
   191   215   216   ar
   192   258   260   ar
   193   258   256   ar
   194   211   212    1
   195   211   208    1
   196   207   208    1
   197   212   214   ar
   198   223   224    1
   199   223   222    1
   200   255   256   ar
   201   255   253   ar
   202   260   259   ar
   203   208   209    1
   204    48    49    1
   205   256   254   ar
   206   216   214   ar
   207    67    68    1
   208    67    69    1
   209    50    49   ar
   210    50    52   ar
   211    49    51   ar
   212    52    54   ar
   213   253   252   ar
   214   246   244    1
   215   259   257   ar
   216   222   221    1
   217   245   244    1
   218   254   252   ar
   219   254   257   ar
   220   221   218    1
   221   209   210    2
   222    51    53   ar
   223   252   251    1
   224    54    53   ar
   225   244   243    1
   226   218   217    1
   227   218   219    1
   228   236   238   ar
   229   236   234   ar
   230   243   240    1
   231   251   248    1
   232   238   237   ar
   233   248   247    1
   234   248   249    1
   235   219   220    2
   236   234   233   ar
   237   234   232   ar
   238   240   241    1
   239   240   239    1
   240   233   231   ar
   241   242   241    2
   242   237   235   ar
   243   250   249    2
   244   232   235   ar
   245   232   230   ar
   246   231   230   ar
   247   230   229    1
   248   229   226    1
   249   225   226    1
   250   226   227    1
   251   227   228    2
