@<TRIPOS>MOLECULE
tmp/5q1gA01.pdb
 224 217 0 0 0
SMALL
GASTEIGER

@<TRIPOS>ATOM
      1  N         17.7270   68.9820    9.2280 N.3    22  ILE22      -0.1231
      2  CA        16.5710   69.3420   10.0340 C.3    22  ILE22       0.1692
      3  C         16.9150   69.8430   11.4350 C.2    22  ILE22       0.2592
      4  O         16.1810   70.6800   11.9650 O.2    22  ILE22      -0.2718
      5  CB        15.5800   68.1480   10.1260 C.3    22  ILE22       0.0266
      6  CG1       15.9570   66.9210    9.1950 C.3    22  ILE22       0.0019
      7  CG2       14.1870   68.6340    9.8970 C.3    22  ILE22       0.0020
      8  CD1       15.4030   66.8630    7.7340 C.3    22  ILE22       0.0001
      9  N         18.0060   69.3120   12.0390 N.am   23  THR23      -0.1953
     10  CA        18.4670   69.6390   13.3960 C.3    23  THR23       0.1897
     11  C         19.5800   70.7050   13.3980 C.2    23  THR23       0.2313
     12  O         20.7250   70.4290   13.0320 O.2    23  THR23      -0.2863
     13  CB        18.8520   68.3580   14.1730 C.3    23  THR23       0.1794
     14  OG1       19.5370   67.4540   13.3000 O.3    23  THR23      -0.2208
     15  CG2       17.6430   67.6490   14.7620 C.3    23  THR23       0.0378
     16  N          9.7860   71.3860   17.6450 N.3    40  LEU40      -0.1231
     17  CA         9.1570   70.3490   16.8440 C.3    40  LEU40       0.1693
     18  C          8.6270   70.9140   15.5270 C.2    40  LEU40       0.2592
     19  O          8.9230   70.3610   14.4580 O.2    40  LEU40      -0.2718
     20  CB         8.0030   69.7040   17.6350 C.3    40  LEU40       0.0284
     21  CG         7.3990   68.4870   16.9350 C.3    40  LEU40       0.0019
     22  CD1        8.4780   67.4120   16.7120 C.3    40  LEU40       0.0001
     23  CD2        6.1440   67.9730   17.6670 C.3    40  LEU40       0.0001
     24  N          7.8640   72.0200   15.5990 N.am   41  THR41      -0.1953
     25  CA         7.3530   72.6460   14.3910 C.3    41  THR41       0.1897
     26  C          8.4640   73.2490   13.5360 C.2    41  THR41       0.2313
     27  O          8.3480   73.2390   12.3240 O.2    41  THR41      -0.2863
     28  CB         6.2450   73.6330   14.6580 C.3    41  THR41       0.1794
     29  OG1        6.7410   74.7410   15.3980 O.3    41  THR41      -0.2208
     30  CG2        5.0670   72.9990   15.2990 C.3    41  THR41       0.0378
     31  N         11.6090   72.0490   13.2930 N.3    43  MET43      -0.1230
     32  CA        12.2210   70.8980   12.6060 C.3    43  MET43       0.1702
     33  C         11.2970   70.3390   11.5280 C.2    43  MET43       0.2592
     34  O         11.7810   69.9380   10.4940 O.2    43  MET43      -0.2718
     35  CB        12.5780   69.7770   13.5810 C.3    43  MET43       0.0401
     36  CG        13.6030   70.1660   14.6020 C.3    43  MET43       0.0596
     37  SD        14.1090   68.7260   15.5620 S.3    43  MET43      -0.1393
     38  CE        12.6600   68.4650   16.5620 C.3    43  MET43       0.0692
     39  N          9.9720   70.2940   11.7500 N.am   44  ALA44      -0.1980
     40  CA         9.0810   69.7780   10.7160 C.3    44  ALA44       0.1597
     41  C          9.0720   70.7420    9.5000 C.2    44  ALA44       0.2287
     42  O          8.8850   70.2830    8.3850 O.2    44  ALA44      -0.2864
     43  CB         7.6590   69.6150   11.2730 C.3    44  ALA44       0.0319
     44  N         12.1450   70.1020    7.5450 N.3    47  HIS47      -0.1241
     45  CA        11.9850   68.8610    6.8000 C.3    47  HIS47       0.1621
     46  C         11.1430   69.0730    5.5290 C.2    47  HIS47       0.2264
     47  O         11.5140   68.5750    4.4550 O.2    47  HIS47      -0.2867
     48  CB        11.4060   67.7330    7.6560 C.3    47  HIS47       0.0745
     49  CG        11.0210   66.5380    6.8440 C.ar   47  HIS47       0.0817
     50  ND1       11.9860   65.7040    6.2800 N.ar   47  HIS47      -0.2268
     51  CD2        9.7940   66.1030    6.4760 C.ar   47  HIS47       0.1154
     52  CE1       11.3120   64.8000    5.5900 C.ar   47  HIS47       0.1986
     53  NE2        9.9930   64.9840    5.6950 N.ar   47  HIS47      -0.2212
     54  N          7.8860   62.4580    6.5630 N.3    81  MET81      -0.1230
     55  CA         8.3150   63.0070    7.8520 C.3    81  MET81       0.1702
     56  C          8.4490   61.8950    8.9090 C.2    81  MET81       0.2592
     57  O          9.3870   61.9260    9.7020 O.2    81  MET81      -0.2718
     58  CB         7.3350   64.0890    8.3120 C.3    81  MET81       0.0401
     59  CG         7.8260   64.8590    9.5100 C.3    81  MET81       0.0596
     60  SD         6.4950   65.7420   10.3370 S.3    81  MET81      -0.1393
     61  CE         5.5490   64.3040   11.0160 C.3    81  MET81       0.0692
     62  N          7.5340   60.9080    8.9250 N.am   82  PHE82      -0.1976
     63  CA         7.6710   59.8140    9.8950 C.3    82  PHE82       0.1639
     64  C          8.8340   58.8850    9.5410 C.2    82  PHE82       0.2290
     65  O          9.5330   58.4050   10.4410 O.2    82  PHE82      -0.2864
     66  CB         6.3640   59.0630   10.1250 C.3    82  PHE82       0.0560
     67  CG         5.5000   59.8250   11.1000 C.ar   82  PHE82      -0.0200
     68  CD1        5.8590   59.9240   12.4440 C.ar   82  PHE82      -0.0042
     69  CD2        4.3820   60.5170   10.6640 C.ar   82  PHE82      -0.0042
     70  CE1        5.1150   60.7040   13.3280 C.ar   82  PHE82      -0.0003
     71  CE2        3.6010   61.2520   11.5650 C.ar   82  PHE82      -0.0003
     72  CZ         3.9880   61.3590   12.8830 C.ar   82  PHE82      -0.0000
     73  N         11.6450   59.8270    7.8650 N.3    84  ARG84      -0.1231
     74  CA        12.8420   60.5780    8.2180 C.3    84  ARG84       0.1694
     75  C         13.0520   60.5530    9.7640 C.2    84  ARG84       0.2592
     76  O         14.1940   60.4680   10.2270 O.2    84  ARG84      -0.2718
     77  CB        12.7460   62.0190    7.6870 C.3    84  ARG84       0.0321
     78  CG        13.8820   62.9380    8.1350 C.3    84  ARG84       0.0489
     79  CD        14.9160   63.1960    7.0620 C.3    84  ARG84       0.2205
     80  NE        16.0270   62.2560    7.0900 N.pl3  84  ARG84      -0.0865
     81  CZ        17.3000   62.5910    7.2920 C.cat  84  ARG84       0.5346
     82  NH1       18.2450   61.6650    7.2720 N.pl3  84  ARG84       0.1354
     83  NH2       17.6360   63.8550    7.5150 N.pl3  84  ARG84       0.1354
     84  N         11.9610   60.6390   10.5420 N.am   85  SER85      -0.1952
     85  CA        12.0100   60.6010   12.0090 C.3    85  SER85       0.1924
     86  C         12.5270   59.2470   12.4690 C.2    85  SER85       0.2314
     87  O         13.3750   59.1980   13.3510 O.2    85  SER85      -0.2863
     88  CB        10.6380   60.8890   12.6060 C.3    85  SER85       0.2116
     89  OG        10.2150   62.2030   12.2800 O.3    85  SER85      -0.2180
     90  N         16.2230   59.0820   11.9000 N.3    88  ILE88      -0.1231
     91  CA        16.9120   59.8550   12.9460 C.3    88  ILE88       0.1692
     92  C         16.8770   59.0960   14.2780 C.2    88  ILE88       0.2592
     93  O         17.9170   58.9970   14.9250 O.2    88  ILE88      -0.2718
     94  CB        16.3970   61.3360   13.0390 C.3    88  ILE88       0.0266
     95  CG1       16.7240   62.1150   11.7330 C.3    88  ILE88       0.0019
     96  CG2       16.9630   62.0650   14.2620 C.3    88  ILE88       0.0020
     97  CD1       15.8450   63.3740   11.4710 C.3    88  ILE88       0.0001
     98  N         15.7110   58.4920   14.6500 N.am   89  PHE89      -0.1976
     99  CA        15.5660   57.6870   15.8770 C.3    89  PHE89       0.1639
    100  C         16.5880   56.5620   15.9100 C.2    89  PHE89       0.2290
    101  O         17.0680   56.2080   16.9840 O.2    89  PHE89      -0.2864
    102  CB        14.1410   57.1200   16.0280 C.3    89  PHE89       0.0560
    103  CG        13.8940   56.2960   17.2770 C.ar   89  PHE89      -0.0200
    104  CD1       13.4310   56.8920   18.4420 C.ar   89  PHE89      -0.0042
    105  CD2       14.1150   54.9220   17.2800 C.ar   89  PHE89      -0.0042
    106  CE1       13.1820   56.1310   19.5850 C.ar   89  PHE89      -0.0003
    107  CE2       13.8680   54.1600   18.4250 C.ar   89  PHE89      -0.0003
    108  CZ        13.4080   54.7700   19.5720 C.ar   89  PHE89      -0.0000
    109  N         19.8970   62.2690   21.0950 N.3    98  SER98      -0.1217
    110  CA        18.7310   61.4410   20.8000 C.3    98  SER98       0.1889
    111  C         17.7710   61.4910   21.9920 C.2    98  SER98       0.2288
    112  O         16.5700   61.6540   21.8050 O.2    98  SER98      -0.2866
    113  CB        19.1540   60.0030   20.5160 C.3    98  SER98       0.2089
    114  OG        19.9980   59.9190   19.3770 O.3    98  SER98      -0.2183
    115  N         15.9830   64.9300   22.1280 N.3   101  LEU101     -0.1231
    116  CA        14.9970   64.9360   21.0620 C.3   101  LEU101      0.1693
    117  C         13.7890   64.1240   21.5060 C.2   101  LEU101      0.2591
    118  O         12.6760   64.6400   21.4910 O.2   101  LEU101     -0.2718
    119  CB        15.5840   64.3350   19.7810 C.3   101  LEU101      0.0284
    120  CG        16.2720   65.2910   18.8190 C.3   101  LEU101      0.0019
    121  CD1       16.9550   64.5110   17.6990 C.3   101  LEU101      0.0001
    122  CD2       15.2830   66.2850   18.2190 C.3   101  LEU101      0.0001
    123  N         14.0340   62.8800   21.9580 N.am  102  GLU102     -0.1979
    124  CA        13.0270   61.9610   22.4700 C.3   102  GLU102      0.1602
    125  C         12.2500   62.6050   23.6400 C.2   102  GLU102      0.2287
    126  O         11.0180   62.5840   23.6340 O.2   102  GLU102     -0.2864
    127  CB        13.6980   60.6390   22.8830 C.3   102  GLU102      0.0415
    128  CG        12.7410   59.5790   23.3900 C.3   102  GLU102      0.1163
    129  CD        13.3070   58.1840   23.5820 C.2   102  GLU102      0.3649
    130  OE1       14.1160   57.7350   22.7360 O.co2 102  GLU102     -0.2457
    131  OE2       12.8980   57.5180   24.5610 O.co2 102  GLU102     -0.2457
    132  N          9.8610   65.4760   22.2890 N.3   105  ILE105     -0.1245
    133  CA         8.6570   64.9680   21.6130 C.3   105  ILE105      0.1561
    134  C          7.6400   64.4150   22.6260 C.2   105  ILE105      0.2260
    135  O          6.4370   64.5250   22.3830 O.2   105  ILE105     -0.2867
    136  CB         8.9500   63.9720   20.4490 C.3   105  ILE105      0.0252
    137  CG1        7.6860   63.6550   19.6300 C.3   105  ILE105      0.0019
    138  CG2        9.5720   62.6880   20.9050 C.3   105  ILE105      0.0019
    139  CD1        7.4360   64.5850   18.5660 C.3   105  ILE105      0.0001
    140  N          1.7010   65.9530   22.6620 N.3   110  ILE110     -0.1245
    141  CA         1.3020   64.7210   21.9630 C.3   110  ILE110      0.1561
    142  C          0.9200   63.6720   22.9930 C.2   110  ILE110      0.2260
    143  O          1.7200   63.3850   23.8700 O.2   110  ILE110     -0.2867
    144  CB         2.3880   64.1760   20.9880 C.3   110  ILE110      0.0252
    145  CG1        2.7960   65.2430   19.9730 C.3   110  ILE110      0.0019
    146  CG2        1.9190   62.8740   20.2940 C.3   110  ILE110      0.0019
    147  CD1        3.9400   64.8700   19.0470 C.3   110  ILE110      0.0001
    148  N          4.2580   55.5150   17.4190 N.3   118  MET118     -0.1230
    149  CA         5.3710   56.2240   16.7970 C.3   118  MET118      0.1702
    150  C          6.6840   55.5280   17.0730 C.2   118  MET118      0.2592
    151  O          7.3080   55.0040   16.1460 O.2   118  MET118     -0.2718
    152  CB         5.4470   57.6640   17.3060 C.3   118  MET118      0.0401
    153  CG         4.6080   58.6260   16.5400 C.3   118  MET118      0.0596
    154  SD         4.5820   60.3000   17.2570 S.3   118  MET118     -0.1393
    155  CE         6.3320   60.5910   17.5390 C.3   118  MET118      0.0692
    156  N          7.0670   55.4630   18.3560 N.am  119  PHE119     -0.1976
    157  CA         8.3230   54.8740   18.8140 C.3   119  PHE119      0.1639
    158  C          8.4120   53.3580   18.6060 C.2   119  PHE119      0.2290
    159  O          9.5190   52.8370   18.5020 O.2   119  PHE119     -0.2864
    160  CB         8.5910   55.2630   20.2730 C.3   119  PHE119      0.0560
    161  CG         8.9960   56.7080   20.4770 C.ar  119  PHE119     -0.0200
    162  CD1        9.8080   57.0710   21.5340 C.ar  119  PHE119     -0.0042
    163  CD2        8.5550   57.7030   19.6180 C.ar  119  PHE119     -0.0042
    164  CE1       10.1460   58.4030   21.7410 C.ar  119  PHE119     -0.0003
    165  CE2        8.9170   59.0320   19.8160 C.ar  119  PHE119     -0.0003
    166  CZ         9.7170   59.3700   20.8690 C.ar  119  PHE119     -0.0000
    167  N          9.3520   53.2450   14.9980 N.3   122  TYR122     -0.1241
    168  CA        10.7500   53.6500   14.8980 C.3   122  TYR122      0.1605
    169  C         11.6760   52.4870   15.2730 C.2   122  TYR122      0.2264
    170  O         12.6440   52.2370   14.5640 O.2   122  TYR122     -0.2867
    171  CB        11.0390   54.8710   15.7930 C.3   122  TYR122      0.0534
    172  CG        10.2870   56.1520   15.4990 C.ar  122  TYR122     -0.0201
    173  CD1        9.6010   56.3270   14.2950 C.ar  122  TYR122     -0.0009
    174  CD2       10.3140   57.2160   16.3940 C.ar  122  TYR122     -0.0009
    175  CE1        8.9170   57.5100   14.0130 C.ar  122  TYR122      0.0417
    176  CE2        9.6380   58.4080   16.1210 C.ar  122  TYR122      0.0417
    177  CZ         8.9370   58.5470   14.9290 C.ar  122  TYR122      0.1957
    178  OH         8.2380   59.6960   14.6600 O.3   122  TYR122     -0.2866
    179  N         -1.5330   61.4700   12.7400 N.3   200  HIS200     -0.1241
    180  CA        -1.0740   62.8510   12.5800 C.3   200  HIS200      0.1621
    181  C         -2.2560   63.7900   12.5690 C.2   200  HIS200      0.2264
    182  O         -2.1950   64.8420   13.1900 O.2   200  HIS200     -0.2867
    183  CB        -0.2900   63.0170   11.2840 C.3   200  HIS200      0.0745
    184  CG         0.2320   64.4040   11.0690 C.ar  200  HIS200      0.0817
    185  ND1        1.3720   64.8710   11.7320 N.ar  200  HIS200     -0.2268
    186  CD2       -0.2660   65.3990   10.3100 C.ar  200  HIS200      0.1154
    187  CE1        1.5410   66.1170   11.3220 C.ar  200  HIS200      0.1986
    188  NE2        0.5910   66.4710   10.4540 N.ar  200  HIS200     -0.2212
    189  N         -3.3850   64.1230   16.1280 N.3   203  MET203     -0.1245
    190  CA        -2.4420   64.9700   16.8680 C.3   203  MET203      0.1570
    191  C         -2.7060   66.4230   16.4970 C.2   203  MET203      0.2261
    192  O         -2.6870   67.2800   17.3700 O.2   203  MET203     -0.2867
    193  CB        -0.9790   64.6610   16.4750 C.3   203  MET203      0.0387
    194  CG        -0.5030   63.2680   16.9090 C.3   203  MET203      0.0595
    195  SD         1.1630   63.0330   16.2540 S.3   203  MET203     -0.1393
    196  CE         1.0570   61.3550   15.7190 C.3   203  MET203      0.0692
    197  N         -3.7260   69.4770   19.0660 N.3   207  TRP207     -0.1241
    198  CA        -2.9390   70.7000   19.1760 C.3   207  TRP207      0.1605
    199  C         -3.7700   71.9520   18.9270 C.2   207  TRP207      0.2264
    200  O         -3.5720   72.9520   19.6150 O.2   207  TRP207     -0.2867
    201  CB        -1.7730   70.6710   18.1940 C.3   207  TRP207      0.0550
    202  CG        -0.5570   69.9530   18.7000 C.ar  207  TRP207      0.0003
    203  CD1       -0.0250   70.0040   19.9610 C.ar  207  TRP207      0.0946
    204  CD2        0.3610   69.1910   17.9050 C.ar  207  TRP207      0.0152
    205  NE1        1.1610   69.2940   20.0010 N.ar  207  TRP207     -0.2442
    206  CE2        1.4080   68.7710   18.7570 C.ar  207  TRP207      0.0810
    207  CE3        0.3820   68.7940   16.5510 C.ar  207  TRP207      0.0012
    208  CZ2        2.4990   68.0440   18.2860 C.ar  207  TRP207      0.0191
    209  CZ3        1.4490   68.0280   16.0920 C.ar  207  TRP207      0.0001
    210  CH2        2.4710   67.6370   16.9610 C.ar  207  TRP207      0.0015
    211  N          0.0390   70.7050    5.4750 N.3   222  TRP222     -0.1241
    212  CA        -0.8110   69.8380    6.3000 C.3   222  TRP222      0.1605
    213  C         -2.2820   70.2580    6.2900 C.2   222  TRP222      0.2264
    214  O         -3.0810   69.5930    6.9490 O.2   222  TRP222     -0.2867
    215  CB        -0.3040   69.8050    7.7740 C.3   222  TRP222      0.0550
    216  CG         1.0440   69.1740    8.0010 C.ar  222  TRP222      0.0003
    217  CD1        1.7340   68.3640    7.1440 C.ar  222  TRP222      0.0946
    218  CD2        1.7960   69.1960    9.2250 C.ar  222  TRP222      0.0152
    219  NE1        2.9270   67.9780    7.7220 N.ar  222  TRP222     -0.2442
    220  CE2        2.9690   68.4410    9.0110 C.ar  222  TRP222      0.0810
    221  CE3        1.6070   69.8140   10.4760 C.ar  222  TRP222      0.0012
    222  CZ2        3.9420   68.2740   10.0030 C.ar  222  TRP222      0.0191
    223  CZ3        2.5680   69.6430   11.4590 C.ar  222  TRP222      0.0001
    224  CH2        3.7300   68.9030   11.2140 C.ar  222  TRP222      0.0015
@<TRIPOS>BOND
     1    47    46    2
     2   211   212    1
     3    46    45    1
     4    52    53   ar
     5    52    50   ar
     6    53    51   ar
     7    50    49   ar
     8   213   212    1
     9   213   214    2
    10   212   215    1
    11    51    49   ar
    12    54    55    1
    13    45    44    1
    14    45    48    1
    15    49    48    1
    16    79    80    1
    17    79    78    1
    18    80    81    2
    19   217   219   ar
    20   217   216   ar
    21    82    81    1
    22    81    83    1
    23    77    78    1
    24    77    74    1
    25   219   220   ar
    26     8     6    1
    27   215   216    1
    28    55    58    1
    29    55    56    1
    30    73    74    1
    31   216   218   ar
    32    74    75    1
    33    58    59    1
    34    42    41    2
    35    56    62   am
    36    56    57    2
    37    62    63    1
    38   220   218   ar
    39   220   222   ar
    40     6     5    1
    41   218   221   ar
    42     1     2    1
    43    41    40    1
    44    59    60    1
    45    64    63    1
    46    64    65    2
    47    75    76    2
    48    75    84   am
    49    63    66    1
    50     7     5    1
    51   222   224   ar
    52     2     5    1
    53     2     3    1
    54    66    67    1
    55   186   188   ar
    56   186   184   ar
    57    60    61    1
    58   188   187   ar
    59   221   223   ar
    60    34    33    2
    61    84    85    1
    62    69    67   ar
    63    69    71   ar
    64    40    43    1
    65    40    39    1
    66   184   183    1
    67   184   185   ar
    68    67    68   ar
    69   224   223   ar
    70   183   180    1
    71   187   185   ar
    72     3     4    2
    73     3     9   am
    74    97    95    1
    75    33    39   am
    76    33    32    1
    77    71    72   ar
    78    95    94    1
    79    90    91    1
    80    85    86    1
    81    85    88    1
    82     9    10    1
    83    89    88    1
    84    27    26    2
    85    68    70   ar
    86    86    87    2
    87   181   180    1
    88   181   182    2
    89   180   179    1
    90    32    31    1
    91    32    35    1
    92    72    70   ar
    93    91    94    1
    94    91    92    1
    95    12    11    2
    96    94    96    1
    97    14    13    1
    98    10    11    1
    99    10    13    1
   100    26    25    1
   101    35    36    1
   102   175   173   ar
   103   175   177   ar
   104    13    15    1
   105    92    98   am
   106    92    93    2
   107   173   172   ar
   108    25    28    1
   109    25    24    1
   110    19    18    2
   111   170   169    2
   112    36    37    1
   113    98    99    1
   114    28    30    1
   115    28    29    1
   116   178   177    1
   117   168   167    1
   118   168   169    1
   119   168   171    1
   120   177   176   ar
   121   172   171    1
   122   172   174   ar
   123    18    24   am
   124    18    17    1
   125    37    38    1
   126   196   195    1
   127    99   100    1
   128    99   102    1
   129   100   101    2
   130   102   103    1
   131   209   207   ar
   132   209   210   ar
   133   176   174   ar
   134   189   190    1
   135   151   150    2
   136   195   194    1
   137   193   190    1
   138   193   194    1
   139   191   190    1
   140   191   192    2
   141   153   154    1
   142   153   152    1
   143   207   204   ar
   144    22    21    1
   145   149   150    1
   146   149   152    1
   147   149   148    1
   148    17    20    1
   149    17    16    1
   150    21    20    1
   151    21    23    1
   152   210   208   ar
   153   150   156   am
   154   154   155    1
   155   103   105   ar
   156   103   104   ar
   157   105   107   ar
   158   121   120    1
   159   204   202   ar
   160   204   206   ar
   161   201   202    1
   162   201   198    1
   163   122   120    1
   164   208   206   ar
   165   156   157    1
   166   107   108   ar
   167   104   106   ar
   168   159   158    2
   169   139   137    1
   170   158   157    1
   171   202   203   ar
   172   206   205   ar
   173   157   160    1
   174   120   119    1
   175   199   198    1
   176   199   200    2
   177   147   145    1
   178   197   198    1
   179   114   113    1
   180   108   106   ar
   181   163   165   ar
   182   163   161   ar
   183   137   136    1
   184   119   116    1
   185   165   166   ar
   186   203   205   ar
   187   145   144    1
   188   160   161    1
   189   146   144    1
   190   136   138    1
   191   136   133    1
   192   161   162   ar
   193   113   110    1
   194   110   109    1
   195   110   111    1
   196   166   164   ar
   197   144   141    1
   198   116   117    1
   199   116   115    1
   200   118   117    2
   201   117   123   am
   202   162   164   ar
   203   133   132    1
   204   133   134    1
   205   112   111    2
   206   123   124    1
   207   141   140    1
   208   141   142    1
   209   135   134    2
   210   124   127    1
   211   124   125    1
   212   130   129   ar
   213   127   128    1
   214   142   143    2
   215   128   129    1
   216   129   131   ar
   217   126   125    2
