@<TRIPOS>MOLECULE
tmp/5q1hE01.pdb
 240 230 0 0 0
SMALL
GASTEIGER

@<TRIPOS>ATOM
      1  N          5.5440    6.9460   37.6110 N.3    27  ILE27      -0.1231
      2  CA         5.1540    6.9380   36.2090 C.3    27  ILE27       0.1692
      3  C          6.2350    6.3090   35.3220 C.2    27  ILE27       0.2592
      4  O          5.9060    5.4630   34.4920 O.2    27  ILE27      -0.2718
      5  CB         4.8300    8.4160   35.8070 C.3    27  ILE27       0.0266
      6  CG1        3.7930    9.0360   36.8120 C.3    27  ILE27       0.0019
      7  CG2        4.3780    8.5130   34.3360 C.3    27  ILE27       0.0020
      8  CD1        3.7990   10.5290   37.0390 C.3    27  ILE27       0.0001
      9  N          7.5070    6.7250   35.4730 N.am   28  THR28      -0.1953
     10  CA         8.6000    6.1740   34.6500 C.3    28  THR28       0.1897
     11  C          8.9940    4.7470   35.0270 C.2    28  THR28       0.2313
     12  O          9.4320    4.0110   34.1440 O.2    28  THR28      -0.2863
     13  CB         9.8090    7.0850   34.5950 C.3    28  THR28       0.1794
     14  OG1       10.2420    7.3110   35.9190 O.3    28  THR28      -0.2208
     15  CG2        9.4950    8.4180   33.9180 C.3    28  THR28       0.0378
     16  N          6.4770    2.4040   33.0500 N.3    31  ILE31      -0.1245
     17  CA         6.8140    2.4430   31.6240 C.3    31  ILE31       0.1561
     18  C          8.1470    1.7320   31.3320 C.2    31  ILE31       0.2260
     19  O          8.2200    0.9880   30.3580 O.2    31  ILE31      -0.2867
     20  CB         6.7660    3.9090   31.0800 C.3    31  ILE31       0.0252
     21  CG1        5.3690    4.5200   31.2590 C.3    31  ILE31       0.0019
     22  CG2        7.1840    3.9710   29.6130 C.3    31  ILE31       0.0019
     23  CD1        5.3680    6.0780   31.1910 C.3    31  ILE31       0.0001
     24  N         -1.4810    0.5990   27.0610 N.3    41  ASN41      -0.1240
     25  CA        -0.9760    1.9810   27.1480 C.3    41  ASN41       0.1653
     26  C         -2.0870    3.0160   27.1530 C.2    41  ASN41       0.2266
     27  O         -1.9600    4.0240   27.8330 O.2    41  ASN41      -0.2867
     28  CB         0.0420    2.2790   26.0300 C.3    41  ASN41       0.1155
     29  CG         1.3710    1.5530   26.2020 C.2    41  ASN41       0.2627
     30  OD1        1.8480    1.3570   27.3090 O.2    41  ASN41      -0.2716
     31  ND2        1.9690    1.0820   25.1130 N.am   41  ASN41      -0.0877
     32  N         -3.5330    3.0300   30.6310 N.3    44  ILE44      -0.1231
     33  CA        -2.5560    3.6880   31.5190 C.3    44  ILE44       0.1692
     34  C         -2.6790    5.1920   31.3600 C.2    44  ILE44       0.2591
     35  O         -2.8360    5.8810   32.3590 O.2    44  ILE44      -0.2718
     36  CB        -1.1000    3.1550   31.3460 C.3    44  ILE44       0.0266
     37  CG1       -0.9980    1.6890   31.8480 C.3    44  ILE44       0.0019
     38  CG2       -0.0620    4.0420   32.0810 C.3    44  ILE44       0.0020
     39  CD1        0.1980    0.8100   31.2010 C.3    44  ILE44       0.0001
     40  N         -2.7310    5.6850   30.1060 N.am   45  LEU45      -0.1980
     41  CA        -2.9060    7.1170   29.8210 C.3    45  LEU45       0.1596
     42  C         -4.1710    7.6730   30.4720 C.2    45  LEU45       0.2287
     43  O         -4.0880    8.6580   31.1940 O.2    45  LEU45      -0.2864
     44  CB        -2.9130    7.4010   28.2940 C.3    45  LEU45       0.0297
     45  CG        -3.2400    8.8470   27.8650 C.3    45  LEU45       0.0022
     46  CD1       -2.1660    9.8440   28.3250 C.3    45  LEU45       0.0001
     47  CD2       -3.3890    8.9460   26.3830 C.3    45  LEU45       0.0001
     48  N         -3.8420    7.7270   34.2600 N.3    48  MET48      -0.1230
     49  CA        -2.8790    8.7870   34.6270 C.3    48  MET48       0.1702
     50  C         -3.4890   10.1730   34.4890 C.2    48  MET48       0.2592
     51  O         -3.2980   11.0230   35.3540 O.2    48  MET48      -0.2718
     52  CB        -1.6210    8.7350   33.7560 C.3    48  MET48       0.0401
     53  CG        -0.7440    7.5250   33.9890 C.3    48  MET48       0.0596
     54  SD         0.1280    7.4640   35.5780 S.3    48  MET48      -0.1393
     55  CE         0.7300    9.0830   35.6840 C.3    48  MET48       0.0692
     56  N         -4.2170   10.4080   33.3970 N.am   49  ALA49      -0.1980
     57  CA        -4.8410   11.7000   33.1270 C.3    49  ALA49       0.1597
     58  C         -6.0100   12.0120   34.0460 C.2    49  ALA49       0.2287
     59  O         -6.2450   13.1860   34.3480 O.2    49  ALA49      -0.2864
     60  CB        -5.2720   11.7980   31.6550 C.3    49  ALA49       0.0319
     61  N         -4.3990   13.0740   37.1830 N.3    52  HIS52      -0.1241
     62  CA        -3.7760   14.3600   36.9420 C.3    52  HIS52       0.1621
     63  C         -4.7980   15.4920   37.0380 C.2    52  HIS52       0.2264
     64  O         -4.4940   16.5130   37.6500 O.2    52  HIS52      -0.2867
     65  CB        -3.0590   14.3780   35.5810 C.3    52  HIS52       0.0745
     66  CG        -2.5200   15.7230   35.2430 C.ar   52  HIS52       0.0817
     67  ND1       -3.2160   16.5940   34.3960 N.ar   52  HIS52      -0.2268
     68  CD2       -1.4490   16.3750   35.7650 C.ar   52  HIS52       0.1154
     69  CE1       -2.5180   17.7180   34.3910 C.ar   52  HIS52       0.1986
     70  NE2       -1.4320   17.6290   35.1830 N.ar   52  HIS52      -0.2212
     71  N         -1.4010   18.9850   31.3600 N.3    86  MET86      -0.1230
     72  CA        -1.0070   17.5660   31.2870 C.3    86  MET86       0.1702
     73  C          0.2890   17.4140   30.4600 C.2    86  MET86       0.2592
     74  O          1.1680   16.6100   30.8260 O.2    86  MET86      -0.2718
     75  CB        -2.1560   16.6950   30.7360 C.3    86  MET86       0.0401
     76  CG        -1.6640   15.3600   30.1840 C.3    86  MET86       0.0596
     77  SD        -2.8890   14.3230   29.4200 S.3    86  MET86      -0.1393
     78  CE        -3.2520   15.2630   27.9060 C.3    86  MET86       0.0692
     79  N          0.3850   18.1570   29.3350 N.am   87  PHE87      -0.1976
     80  CA         1.5820   18.1120   28.4970 C.3    87  PHE87       0.1639
     81  C          2.7950   18.7510   29.1770 C.2    87  PHE87       0.2290
     82  O          3.9070   18.2740   28.9840 O.2    87  PHE87      -0.2864
     83  CB         1.3500   18.6950   27.0760 C.3    87  PHE87       0.0560
     84  CG         0.6710   17.6880   26.1950 C.ar   87  PHE87      -0.0200
     85  CD1        1.3310   16.5310   25.7980 C.ar   87  PHE87      -0.0042
     86  CD2       -0.6510   17.8680   25.7970 C.ar   87  PHE87      -0.0042
     87  CE1        0.6950   15.5890   24.9900 C.ar   87  PHE87      -0.0003
     88  CE2       -1.2930   16.9200   24.9980 C.ar   87  PHE87      -0.0003
     89  CZ        -0.6160   15.7860   24.5980 C.ar   87  PHE87      -0.0000
     90  N          3.3240   18.8060   32.4830 N.3    89  ARG89      -0.1231
     91  CA         3.7470   17.8260   33.4900 C.3    89  ARG89       0.1694
     92  C          4.4490   16.6180   32.8220 C.2    89  ARG89       0.2592
     93  O          5.4700   16.1580   33.3100 O.2    89  ARG89      -0.2718
     94  CB         2.5540   17.3860   34.3340 C.3    89  ARG89       0.0321
     95  CG         2.8860   16.3020   35.3620 C.3    89  ARG89       0.0489
     96  CD         3.8930   16.8150   36.3860 C.3    89  ARG89       0.2205
     97  NE         4.0870   15.8570   37.4720 N.pl3  89  ARG89      -0.0865
     98  CZ         4.8720   16.0710   38.5230 C.cat  89  ARG89       0.5346
     99  NH1        5.5890   17.1830   38.6100 N.pl3  89  ARG89       0.1354
    100  NH2        4.9460   15.1760   39.4930 N.pl3  89  ARG89       0.1354
    101  N          3.9240   16.1370   31.6820 N.am   90  SER90      -0.1952
    102  CA         4.5910   15.0630   30.9270 C.3    90  SER90       0.1924
    103  C          6.0200   15.5050   30.4880 C.2    90  SER90       0.2314
    104  O          6.9660   14.7050   30.5440 O.2    90  SER90      -0.2863
    105  CB         3.7680   14.6990   29.7000 C.3    90  SER90       0.2116
    106  OG         2.4850   14.2800   30.1280 O.3    90  SER90      -0.2180
    107  N          8.2880   15.3490   33.4780 N.3    93  ILE93      -0.1231
    108  CA         8.6730   13.9530   33.7350 C.3    93  ILE93       0.1692
    109  C          9.6800   13.4570   32.7150 C.2    93  ILE93       0.2592
    110  O         10.6750   12.8900   33.0980 O.2    93  ILE93      -0.2718
    111  CB         7.4470   13.0110   33.8620 C.3    93  ILE93       0.0266
    112  CG1        6.5070   13.5060   34.9920 C.3    93  ILE93       0.0019
    113  CG2        7.8960   11.5560   34.1370 C.3    93  ILE93       0.0020
    114  CD1        5.1080   12.9520   34.8680 C.3    93  ILE93       0.0001
    115  N          9.4270   13.6630   31.4210 N.am   94  PHE94      -0.1976
    116  CA        10.3370   13.2030   30.3790 C.3    94  PHE94       0.1639
    117  C         11.7600   13.6980   30.5890 C.2    94  PHE94       0.2290
    118  O         12.6890   12.9520   30.3440 O.2    94  PHE94      -0.2864
    119  CB         9.8330   13.6540   28.9940 C.3    94  PHE94       0.0560
    120  CG        10.6400   13.1180   27.8430 C.ar   94  PHE94      -0.0200
    121  CD1       10.3980   11.8450   27.3360 C.ar   94  PHE94      -0.0042
    122  CD2       11.6470   13.8850   27.2600 C.ar   94  PHE94      -0.0042
    123  CE1       11.1410   11.3540   26.2710 C.ar   94  PHE94      -0.0003
    124  CE2       12.3940   13.3920   26.1960 C.ar   94  PHE94      -0.0003
    125  CZ        12.1370   12.1310   25.7070 C.ar   94  PHE94      -0.0000
    126  N         12.9210    5.3140   27.6810 N.3   106  LEU106     -0.1245
    127  CA        11.6690    6.0290   27.9320 C.3   106  LEU106      0.1561
    128  C         11.1180    6.6020   26.6250 C.2   106  LEU106      0.2260
    129  O          9.9400    6.4090   26.3340 O.2   106  LEU106     -0.2867
    130  CB        11.8190    7.1070   29.0140 C.3   106  LEU106      0.0270
    131  CG        10.5380    7.8740   29.4030 C.3   106  LEU106      0.0019
    132  CD1        9.4680    6.9340   29.9950 C.3   106  LEU106      0.0001
    133  CD2       10.8590    9.0470   30.3640 C.3   106  LEU106      0.0001
    134  N          9.9120    3.6150   24.4470 N.3   109  ARG109     -0.1231
    135  CA         8.6350    3.1670   25.0060 C.3   109  ARG109      0.1694
    136  C          7.4660    4.0710   24.6070 C.2   109  ARG109      0.2591
    137  O          6.4630    3.5580   24.1060 O.2   109  ARG109     -0.2718
    138  CB         8.7330    2.9880   26.5240 C.3   109  ARG109      0.0321
    139  CG         9.5740    1.7660   26.9210 C.3   109  ARG109      0.0489
    140  CD         8.7210    0.5470   27.1450 C.3   109  ARG109      0.2205
    141  NE         9.3880   -0.6710   26.6860 N.pl3 109  ARG109     -0.0865
    142  CZ        10.0520   -1.5120   27.4700 C.cat 109  ARG109      0.5346
    143  NH1       10.1530   -1.2760   28.7740 N.pl3 109  ARG109      0.1354
    144  NH2       10.6220   -2.5910   26.9590 N.pl3 109  ARG109      0.1354
    145  N          7.6250    5.4100   24.7480 N.am  110  ILE110     -0.1980
    146  CA         6.6130    6.4010   24.3590 C.3   110  ILE110      0.1595
    147  C          6.4040    6.4150   22.8370 C.2   110  ILE110      0.2287
    148  O          5.2630    6.4420   22.4020 O.2   110  ILE110     -0.2864
    149  CB         6.9280    7.8270   24.9130 C.3   110  ILE110      0.0276
    150  CG1        6.9240    7.8710   26.4570 C.3   110  ILE110      0.0022
    151  CG2        5.9190    8.8450   24.3910 C.3   110  ILE110      0.0022
    152  CD1        7.6930    9.0770   27.0380 C.3   110  ILE110      0.0001
    153  N          4.3000    3.4480   21.8870 N.3   113  SER113     -0.1217
    154  CA         3.1670    3.2300   22.7820 C.3   113  SER113      0.1889
    155  C          1.7910    3.0400   22.0830 C.2   113  SER113      0.2288
    156  O          0.9530    2.3340   22.6120 O.2   113  SER113     -0.2866
    157  CB         3.0890    4.3370   23.8220 C.3   113  SER113      0.2089
    158  OG         2.8320    5.5970   23.2270 O.3   113  SER113     -0.2183
    159  N          0.5400    6.0280   20.0850 N.3   115  ILE115     -0.1245
    160  CA         0.2950    7.3830   19.5870 C.3   115  ILE115      0.1561
    161  C          0.6030    7.3440   18.0900 C.2   115  ILE115      0.2260
    162  O          1.6150    6.7450   17.7060 O.2   115  ILE115     -0.2867
    163  CB         1.2360    8.4160   20.2950 C.3   115  ILE115      0.0252
    164  CG1        1.0310    8.4460   21.8270 C.3   115  ILE115      0.0019
    165  CG2        1.0800    9.8340   19.7040 C.3   115  ILE115      0.0019
    166  CD1        2.3230    8.9150   22.6730 C.3   115  ILE115      0.0001
    167  N          4.9920   16.4550   19.7970 N.3   123  MET123     -0.1245
    168  CA         5.1040   16.1060   21.2190 C.3   123  MET123      0.1570
    169  C          6.5630   16.0450   21.6620 C.2   123  MET123      0.2261
    170  O          6.9050   16.6210   22.6870 O.2   123  MET123     -0.2867
    171  CB         4.3950   14.7840   21.5090 C.3   123  MET123      0.0387
    172  CG         4.1360   14.5500   22.9620 C.3   123  MET123      0.0595
    173  SD         3.3600   12.9300   23.1670 S.3   123  MET123     -0.1393
    174  CE         4.7400   11.9880   23.5460 C.3   123  MET123      0.0692
    175  N          8.8270   18.4070   24.1880 N.3   127  TYR127     -0.1241
    176  CA         9.6070   17.8130   25.2980 C.3   127  TYR127      0.1605
    177  C         11.0660   18.1940   25.2320 C.2   127  TYR127      0.2264
    178  O         11.6380   18.5040   26.2640 O.2   127  TYR127     -0.2867
    179  CB         9.4970   16.2730   25.3460 C.3   127  TYR127      0.0534
    180  CG         8.1130   15.7400   25.6450 C.ar  127  TYR127     -0.0201
    181  CD1        7.0750   16.5960   26.0140 C.ar  127  TYR127     -0.0009
    182  CD2        7.8490   14.3720   25.6160 C.ar  127  TYR127     -0.0009
    183  CE1        5.8070   16.1150   26.2950 C.ar  127  TYR127      0.0417
    184  CE2        6.5900   13.8750   25.9540 C.ar  127  TYR127      0.0417
    185  CZ         5.5650   14.7510   26.2520 C.ar  127  TYR127      0.1957
    186  OH         4.3010   14.2840   26.5300 O.3   127  TYR127     -0.2866
    187  N         -6.1280   18.0900   20.2310 N.3   205  HIS205     -0.1241
    188  CA        -6.1850   17.0230   21.2260 C.3   205  HIS205      0.1621
    189  C         -7.1980   15.9090   20.9630 C.2   205  HIS205      0.2264
    190  O         -6.8390   14.7470   21.1100 O.2   205  HIS205     -0.2867
    191  CB        -6.4000   17.5830   22.6190 C.3   205  HIS205      0.0745
    192  CG        -6.1070   16.5680   23.6690 C.ar  205  HIS205      0.0817
    193  ND1       -7.0290   16.2550   24.6290 N.ar  205  HIS205     -0.2268
    194  CD2       -5.0410   15.7480   23.7970 C.ar  205  HIS205      0.1154
    195  CE1       -6.4660   15.3260   25.3710 C.ar  205  HIS205      0.1986
    196  NE2       -5.2750   14.9790   24.8990 N.ar  205  HIS205     -0.2212
    197  N         -5.7370   13.7500   18.3090 N.3   208  MET208     -0.1230
    198  CA        -4.6180   12.9620   18.8340 C.3   208  MET208      0.1702
    199  C         -5.1620   11.7440   19.5940 C.2   208  MET208      0.2592
    200  O         -4.6660   10.6480   19.3740 O.2   208  MET208     -0.2718
    201  CB        -3.7230   13.8050   19.7650 C.3   208  MET208      0.0401
    202  CG        -2.5500   13.0270   20.3640 C.3   208  MET208      0.0596
    203  SD        -1.3280   13.9950   21.3370 S.3   208  MET208     -0.1393
    204  CE        -1.8540   15.7480   20.8850 C.3   208  MET208      0.0692
    205  N         -6.1800   11.9360   20.4710 N.am  209  LEU209     -0.1980
    206  CA        -6.7810   10.8440   21.2420 C.3   209  LEU209      0.1596
    207  C         -7.3840    9.7620   20.3630 C.2   209  LEU209      0.2287
    208  O         -7.0520    8.5850   20.5170 O.2   209  LEU209     -0.2864
    209  CB        -7.8440   11.3640   22.2120 C.3   209  LEU209      0.0297
    210  CG        -7.3180   12.1670   23.4070 C.3   209  LEU209      0.0022
    211  CD1       -8.4360   12.9660   24.0230 C.3   209  LEU209      0.0001
    212  CD2       -6.6210   11.2650   24.4260 C.3   209  LEU209      0.0001
    213  N         -5.0440    7.2270   18.3160 N.3   212  TRP212     -0.1241
    214  CA        -4.2680    6.2090   19.0340 C.3   212  TRP212      0.1605
    215  C         -4.6240    4.8340   18.3990 C.2   212  TRP212      0.2264
    216  O         -5.7890    4.5990   18.0560 O.2   212  TRP212     -0.2867
    217  CB        -4.6620    6.1910   20.5120 C.3   212  TRP212      0.0550
    218  CG        -3.6980    6.8680   21.4430 C.ar  212  TRP212      0.0003
    219  CD1       -3.6090    8.2050   21.7080 C.ar  212  TRP212      0.0946
    220  CD2       -2.7800    6.2210   22.3330 C.ar  212  TRP212      0.0152
    221  NE1       -2.6690    8.4330   22.6850 N.ar  212  TRP212     -0.2442
    222  CE2       -2.1640    7.2330   23.1070 C.ar  212  TRP212      0.0810
    223  CE3       -2.4410    4.8750   22.5760 C.ar  212  TRP212      0.0012
    224  CZ2       -1.1910    6.9460   24.0750 C.ar  212  TRP212      0.0191
    225  CZ3       -1.4400    4.5980   23.4900 C.ar  212  TRP212      0.0001
    226  CH2       -0.8380    5.6200   24.2420 C.ar  212  TRP212      0.0015
    227  N        -12.1080   16.7660   28.1900 N.3   227  TRP227     -0.1241
    228  CA       -11.4950   16.5620   26.8730 C.3   227  TRP227      0.1605
    229  C        -12.4870   16.6830   25.6950 C.2   227  TRP227      0.2264
    230  O        -12.0440   16.6840   24.5420 O.2   227  TRP227     -0.2867
    231  CB       -10.8080   15.1840   26.8180 C.3   227  TRP227      0.0550
    232  CG        -9.5190   15.0430   27.5860 C.ar  227  TRP227      0.0003
    233  CD1       -8.7620   16.0450   28.1120 C.ar  227  TRP227      0.0946
    234  CD2       -8.7740   13.8380   27.7730 C.ar  227  TRP227      0.0152
    235  NE1       -7.6170   15.5340   28.6720 N.ar  227  TRP227     -0.2442
    236  CE2       -7.5900   14.1800   28.4670 C.ar  227  TRP227      0.0810
    237  CE3       -8.9720   12.5010   27.3890 C.ar  227  TRP227      0.0012
    238  CZ2       -6.6010   13.2350   28.7740 C.ar  227  TRP227      0.0191
    239  CZ3       -8.0030   11.5560   27.7240 C.ar  227  TRP227      0.0001
    240  CH2       -6.8420   11.9250   28.4190 C.ar  227  TRP227      0.0015
@<TRIPOS>BOND
     1   162   161    2
     2   216   215    2
     3   161   160    1
     4   197   198    1
     5   213   214    1
     6   215   214    1
     7   198   199    1
     8   198   201    1
     9   214   217    1
    10   200   199    2
    11   160   159    1
    12   160   163    1
    13   199   205   am
    14   165   163    1
    15   201   202    1
    16   167   168    1
    17   187   188    1
    18   163   164    1
    19   207   208    2
    20   207   206    1
    21   202   203    1
    22   205   206    1
    23   217   218    1
    24   204   203    1
    25   189   190    2
    26   189   188    1
    27   168   171    1
    28   168   169    1
    29   188   191    1
    30   206   209    1
    31   218   219   ar
    32   218   220   ar
    33   171   172    1
    34   169   170    2
    35   219   221   ar
    36   164   166    1
    37   153   154    1
    38   155   156    2
    39   155   154    1
    40   209   210    1
    41   220   223   ar
    42   220   222   ar
    43   148   147    2
    44   223   225   ar
    45   191   192    1
    46   221   222   ar
    47   154   157    1
    48   147   146    1
    49   172   173    1
    50   222   224   ar
    51   173   174    1
    52   158   157    1
    53   210   211    1
    54   210   212    1
    55   225   226   ar
    56   192   194   ar
    57   192   193   ar
    58   194   196   ar
    59   224   226   ar
    60   137   136    2
    61   175   176    1
    62   146   145    1
    63   146   149    1
    64   151   149    1
    65   134   135    1
    66   230   229    2
    67    89    87   ar
    68    89    88   ar
    69   136   145   am
    70   136   135    1
    71   193   195   ar
    72   196   195   ar
    73   149   150    1
    74    87    85   ar
    75    88    86   ar
    76   135   138    1
    77    31    29   am
    78   177   176    1
    79   177   178    2
    80   176   179    1
    81   179   180    1
    82   182   180   ar
    83   182   184   ar
    84   180   181   ar
    85   229   228    1
    86   125   124   ar
    87   125   123   ar
    88    86    84   ar
    89    85    84   ar
    90   184   185   ar
    91   181   183   ar
    92    28    29    1
    93    28    25    1
    94    84    83    1
    95   124   122   ar
    96    29    30    2
    97   185   183   ar
    98   185   186    1
    99   123   121   ar
   100   129   128    2
   101    47    45    1
   102   150   152    1
   103   138   139    1
   104   128   127    1
   105   141   140    1
   106   141   142    2
   107   231   228    1
   108   231   232    1
   109   228   227    1
   110   139   140    1
   111   144   142    1
   112    24    25    1
   113    83    80    1
   114    25    26    1
   115    26    27    2
   116   122   120   ar
   117   121   120   ar
   118   237   239   ar
   119   237   234   ar
   120   142   143    1
   121   232   234   ar
   122   232   233   ar
   123   126   127    1
   124   239   240   ar
   125   234   236   ar
   126   120   119    1
   127    45    44    1
   128    45    46    1
   129    78    77    1
   130   127   130    1
   131   233   235   ar
   132    44    41    1
   133   240   238   ar
   134   236   235   ar
   135   236   238   ar
   136    80    81    1
   137    80    79    1
   138    82    81    2
   139   119   116    1
   140   130   131    1
   141    79    73   am
   142   131   132    1
   143   131   133    1
   144    77    76    1
   145    22    20    1
   146   105   106    1
   147   105   102    1
   148    41    40    1
   149    41    42    1
   150    40    34   am
   151    76    75    1
   152   118   117    2
   153    19    18    2
   154   116   117    1
   155   116   115    1
   156    73    74    2
   157    73    72    1
   158    42    43    2
   159   103   104    2
   160   103   102    1
   161    32    33    1
   162    75    72    1
   163   102   101    1
   164    20    21    1
   165    20    17    1
   166    23    21    1
   167    39    37    1
   168    72    71    1
   169    18    17    1
   170    36    33    1
   171    36    37    1
   172    36    38    1
   173    34    33    1
   174    34    35    2
   175   115   109   am
   176    17    16    1
   177    60    57    1
   178   101    92   am
   179    90    91    1
   180   109   110    2
   181   109   108    1
   182    92    93    2
   183    92    91    1
   184    57    56    1
   185    57    58    1
   186    56    50   am
   187   107   108    1
   188    91    94    1
   189   108   111    1
   190    52    53    1
   191    52    49    1
   192   111   113    1
   193   111   112    1
   194    15    13    1
   195    53    54    1
   196    58    59    2
   197    12    11    2
   198    48    49    1
   199    94    95    1
   200     7     5    1
   201    69    67   ar
   202    69    70   ar
   203    67    66   ar
   204    50    49    1
   205    50    51    2
   206     4     3    2
   207    13    10    1
   208    13    14    1
   209    10    11    1
   210    10     9    1
   211   114   112    1
   212    70    68   ar
   213    66    65    1
   214    66    68   ar
   215     3     9   am
   216     3     2    1
   217    95    96    1
   218    54    55    1
   219    65    62    1
   220     5     2    1
   221     5     6    1
   222     2     1    1
   223    96    97    1
   224     6     8    1
   225    62    63    1
   226    62    61    1
   227    63    64    2
   228    97    98    2
   229    98    99    1
   230    98   100    1
