@<TRIPOS>MOLECULE
tmp/5q1iA00.pdb
 236 228 0 0 0
SMALL
GASTEIGER

@<TRIPOS>ATOM
      1  N         50.1590   16.2320    7.1850 N.3    42  PHE42      -0.1241
      2  CA        48.9580   15.8220    7.9240 C.3    42  PHE42       0.1605
      3  C         48.0120   16.9850    8.1890 C.2    42  PHE42       0.2264
      4  O         46.7980   16.7990    8.1290 O.2    42  PHE42      -0.2867
      5  CB        49.3230   15.0860    9.2240 C.3    42  PHE42       0.0534
      6  CG        48.1040   14.4480    9.8390 C.ar   42  PHE42      -0.0203
      7  CD1       47.6440   13.2120    9.3900 C.ar   42  PHE42      -0.0042
      8  CD2       47.3720   15.1110   10.8200 C.ar   42  PHE42      -0.0042
      9  CE1       46.4900   12.6400    9.9330 C.ar   42  PHE42      -0.0003
     10  CE2       46.2100   14.5490   11.3470 C.ar   42  PHE42      -0.0003
     11  CZ        45.7830   13.3130   10.9070 C.ar   42  PHE42      -0.0000
     12  N         45.9980   17.5870    5.1620 N.3    45  LEU45      -0.1231
     13  CA        44.9610   16.5440    5.1220 C.3    45  LEU45       0.1693
     14  C         43.7860   16.9120    6.0330 C.2    45  LEU45       0.2592
     15  O         42.6250   16.7630    5.6340 O.2    45  LEU45      -0.2718
     16  CB        45.5140   15.1660    5.5390 C.3    45  LEU45       0.0284
     17  CG        46.5880   14.5210    4.6590 C.3    45  LEU45       0.0019
     18  CD1       46.7840   13.0760    5.0480 C.3    45  LEU45       0.0001
     19  CD2       46.2180   14.6040    3.2080 C.3    45  LEU45       0.0001
     20  N         44.1010   17.3820    7.2550 N.am   46  THR46      -0.1953
     21  CA        43.1360   17.8210    8.2800 C.3    46  THR46       0.1897
     22  C         42.2590   18.9520    7.7200 C.2    46  THR46       0.2313
     23  O         41.0410   18.8750    7.8150 O.2    46  THR46      -0.2863
     24  CB        43.8950   18.2640    9.5560 C.3    46  THR46       0.1794
     25  OG1       44.5620   17.1290   10.0920 O.3    46  THR46      -0.2208
     26  CG2       42.9630   18.8520   10.6290 C.3    46  THR46       0.0378
     27  N         41.7120   19.6880    4.5750 N.3    48  MET48      -0.1230
     28  CA        40.9070   19.1280    3.4910 C.3    48  MET48       0.1702
     29  C         39.6770   18.3810    4.0340 C.2    48  MET48       0.2592
     30  O         38.5790   18.5370    3.4950 O.2    48  MET48      -0.2718
     31  CB        41.7710   18.2520    2.5920 C.3    48  MET48       0.0401
     32  CG        42.7630   19.0700    1.8040 C.3    48  MET48       0.0596
     33  SD        43.7150   18.0480    0.7030 S.3    48  MET48      -0.1393
     34  CE        42.4640   17.8060   -0.6270 C.3    48  MET48       0.0692
     35  N         39.8600   17.6090    5.1230 N.am   49  ALA49      -0.1980
     36  CA        38.7890   16.8820    5.8180 C.3    49  ALA49       0.1597
     37  C         37.7470   17.8390    6.4240 C.2    49  ALA49       0.2287
     38  O         36.5570   17.5670    6.3000 O.2    49  ALA49      -0.2864
     39  CB        39.3750   15.9920    6.9040 C.3    49  ALA49       0.0319
     40  N         35.7950   19.3150    3.4590 N.3    52  HIS52      -0.1241
     41  CA        34.8850   18.3020    2.9200 C.3    52  HIS52       0.1621
     42  C         33.6110   18.1170    3.7550 C.2    52  HIS52       0.2264
     43  O         32.5370   18.0080    3.1730 O.2    52  HIS52      -0.2867
     44  CB        35.5690   16.9480    2.6620 C.3    52  HIS52       0.0745
     45  CG        34.6200   15.9460    2.0600 C.ar   52  HIS52       0.0817
     46  ND1       34.0550   14.9510    2.8270 N.ar   52  HIS52      -0.2268
     47  CD2       34.0440   15.9310    0.8340 C.ar   52  HIS52       0.1154
     48  CE1       33.2000   14.3220    2.0370 C.ar   52  HIS52       0.1986
     49  NE2       33.1700   14.8630    0.8220 N.ar   52  HIS52      -0.2212
     50  N         33.6540   10.9220    2.0430 N.3    86  MET86      -0.1230
     51  CA        34.9980   11.4820    1.8850 C.3    86  MET86       0.1702
     52  C         35.8700   10.6000    0.9740 C.2    86  MET86       0.2592
     53  O         36.5660   11.1280    0.1030 O.2    86  MET86      -0.2718
     54  CB        35.6580   11.7140    3.2530 C.3    86  MET86       0.0401
     55  CG        37.0650   12.2250    3.1470 C.3    86  MET86       0.0596
     56  SD        37.9580   12.3080    4.6960 S.3    86  MET86      -0.1393
     57  CE        38.0250   10.5650    5.1320 C.3    86  MET86       0.0692
     58  N         35.8140    9.2680    1.1600 N.am   87  PHE87      -0.1976
     59  CA        36.5710    8.3420    0.3090 C.3    87  PHE87       0.1639
     60  C         36.0470    8.3480   -1.1180 C.2    87  PHE87       0.2290
     61  O         36.8310    8.1750   -2.0490 O.2    87  PHE87      -0.2864
     62  CB        36.5390    6.9080    0.8720 C.3    87  PHE87       0.0560
     63  CG        37.5550    6.6770    1.9610 C.ar   87  PHE87      -0.0200
     64  CD1       38.8540    6.2860    1.6500 C.ar   87  PHE87      -0.0042
     65  CD2       37.2240    6.8720    3.2960 C.ar   87  PHE87      -0.0042
     66  CE1       39.8090    6.1170    2.6570 C.ar   87  PHE87      -0.0003
     67  CE2       38.1750    6.6820    4.3050 C.ar   87  PHE87      -0.0003
     68  CZ        39.4600    6.3080    3.9800 C.ar   87  PHE87      -0.0000
     69  N         34.6200   10.9670   -2.7010 N.3    89  ARG89      -0.1231
     70  CA        35.0620   12.2440   -3.2650 C.3    89  ARG89       0.1694
     71  C         36.5670   12.1780   -3.5640 C.2    89  ARG89       0.2592
     72  O         36.9920   12.6730   -4.5960 O.2    89  ARG89      -0.2718
     73  CB        34.7160   13.4080   -2.3060 C.3    89  ARG89       0.0321
     74  CG        35.2510   14.8010   -2.7030 C.3    89  ARG89       0.0489
     75  CD        34.7310   15.3180   -4.0350 C.3    89  ARG89       0.2205
     76  NE        35.3160   16.6270   -4.3370 N.pl3  89  ARG89      -0.0865
     77  CZ        35.5640   17.0950   -5.5580 C.cat  89  ARG89       0.5346
     78  NH1       35.2790   16.3650   -6.6290 N.pl3  89  ARG89       0.1354
     79  NH2       36.1030   18.2970   -5.7160 N.pl3  89  ARG89       0.1354
     80  N         37.3520   11.5480   -2.6680 N.am   90  SER90      -0.1952
     81  CA        38.7960   11.3300   -2.8330 C.3    90  SER90       0.1924
     82  C         39.0750   10.4820   -4.0640 C.2    90  SER90       0.2314
     83  O         40.0110   10.7910   -4.8040 O.2    90  SER90      -0.2863
     84  CB        39.3810   10.6610   -1.5970 C.3    90  SER90       0.2116
     85  OG        39.2220   11.5000   -0.4640 O.3    90  SER90      -0.2180
     86  N         38.5590   12.8980   -7.0450 N.3    93  ILE93      -0.1231
     87  CA        39.7250   13.8000   -7.1260 C.3    93  ILE93       0.1692
     88  C         40.9430   13.0720   -7.7550 C.2    93  ILE93       0.2592
     89  O         41.5950   13.6410   -8.6310 O.2    93  ILE93      -0.2718
     90  CB        40.0590   14.4200   -5.7410 C.3    93  ILE93       0.0266
     91  CG1       38.9890   15.4380   -5.2910 C.3    93  ILE93       0.0019
     92  CG2       41.4740   15.0480   -5.7050 C.3    93  ILE93       0.0020
     93  CD1       39.0270   15.7550   -3.7750 C.3    93  ILE93       0.0001
     94  N         41.2200   11.8170   -7.3280 N.am   94  PHE94      -0.1976
     95  CA        42.3340   11.0160   -7.8400 C.3    94  PHE94       0.1639
     96  C         42.2130   10.7110   -9.3280 C.2    94  PHE94       0.2290
     97  O         43.2080   10.7720  -10.0460 O.2    94  PHE94      -0.2864
     98  CB        42.4760    9.6970   -7.0490 C.3    94  PHE94       0.0560
     99  CG        43.6070    8.7960   -7.5040 C.ar   94  PHE94      -0.0200
    100  CD1       44.9040    8.9880   -7.0330 C.ar   94  PHE94      -0.0042
    101  CD2       43.3800    7.7730   -8.4160 C.ar   94  PHE94      -0.0042
    102  CE1       45.9520    8.1710   -7.4680 C.ar   94  PHE94      -0.0003
    103  CE2       44.4290    6.9410   -8.8390 C.ar   94  PHE94      -0.0003
    104  CZ        45.7070    7.1520   -8.3680 C.ar   94  PHE94      -0.0000
    105  N         42.8410   16.1760   -9.4890 N.3    98  LEU98      -0.1245
    106  CA        42.6990   17.5030   -8.8770 C.3    98  LEU98       0.1561
    107  C         43.7160   17.6600   -7.7120 C.2    98  LEU98       0.2260
    108  O         44.1310   16.6340   -7.1660 O.2    98  LEU98      -0.2867
    109  CB        41.2550   17.7330   -8.3880 C.3    98  LEU98       0.0270
    110  CG        40.1370   17.6380   -9.4360 C.3    98  LEU98       0.0019
    111  CD1       38.7790   17.5960   -8.7690 C.3    98  LEU98       0.0001
    112  CD2       40.2000   18.7940  -10.4360 C.3    98  LEU98       0.0001
    113  N         48.0820   17.3240   -8.4360 N.3   102  SER102     -0.1217
    114  CA        47.6360   15.9970   -7.9930 C.3   102  SER102      0.1889
    115  C         48.7650   15.0890   -7.5210 C.2   102  SER102      0.2288
    116  O         48.5970   14.3920   -6.5270 O.2   102  SER102     -0.2866
    117  CB        46.8140   15.3100   -9.0780 C.3   102  SER102      0.2089
    118  OG        47.5620   15.1070  -10.2640 O.3   102  SER102     -0.2183
    119  N         49.9620   16.3970   -4.1200 N.3   105  LEU105     -0.1231
    120  CA        48.9860   16.0160   -3.0940 C.3   105  LEU105      0.1693
    121  C         49.1260   14.5340   -2.7320 C.2   105  LEU105      0.2591
    122  O         49.1850   14.2150   -1.5470 O.2   105  LEU105     -0.2718
    123  CB        47.5470   16.3870   -3.5080 C.3   105  LEU105      0.0284
    124  CG        46.3850   15.9890   -2.5720 C.3   105  LEU105      0.0019
    125  CD1       46.5670   16.5250   -1.1360 C.3   105  LEU105      0.0001
    126  CD2       45.0570   16.4660   -3.1400 C.3   105  LEU105      0.0001
    127  N         49.2620   13.6480   -3.7360 N.am  106  GLU106     -0.1979
    128  CA        49.4700   12.2200   -3.5040 C.3   106  GLU106      0.1602
    129  C         50.7500   11.9840   -2.6990 C.2   106  GLU106      0.2287
    130  O         50.7460   11.1630   -1.7900 O.2   106  GLU106     -0.2864
    131  CB        49.5050   11.4290   -4.8210 C.3   106  GLU106      0.0415
    132  CG        49.8560    9.9640   -4.5890 C.3   106  GLU106      0.1163
    133  CD        49.6750    8.9860   -5.7300 C.2   106  GLU106      0.3649
    134  OE1       49.1470    9.3870   -6.7900 O.co2 106  GLU106     -0.2457
    135  OE2       50.0230    7.7980   -5.5400 O.co2 106  GLU106     -0.2457
    136  N         50.0410   12.8760    1.0180 N.3   109  ILE109     -0.1245
    137  CA        49.2420   11.8210    1.6850 C.3   109  ILE109      0.1561
    138  C         50.1030   10.6110    2.0550 C.2   109  ILE109      0.2260
    139  O         49.9520   10.0640    3.1470 O.2   109  ILE109     -0.2867
    140  CB        47.9900   11.4390    0.8430 C.3   109  ILE109      0.0252
    141  CG1       47.0610   12.6390    0.7330 C.3   109  ILE109      0.0019
    142  CG2       47.2270   10.2530    1.4490 C.3   109  ILE109      0.0019
    143  CD1       46.3750   12.7520   -0.4690 C.3   109  ILE109      0.0001
    144  N         50.7300    8.5040    8.1990 N.3   114  ILE114     -0.1245
    145  CA        49.7120    7.4570    8.1870 C.3   114  ILE114      0.1561
    146  C         50.3380    6.1550    7.6790 C.2   114  ILE114      0.2260
    147  O         51.0260    6.1690    6.6610 O.2   114  ILE114     -0.2867
    148  CB        48.4570    7.8510    7.3770 C.3   114  ILE114      0.0252
    149  CG1       47.8440    9.1680    7.8940 C.3   114  ILE114      0.0019
    150  CG2       47.4240    6.7040    7.3600 C.3   114  ILE114      0.0019
    151  CD1       46.8440    9.7760    6.9530 C.3   114  ILE114      0.0001
    152  N         43.4580    2.3200    0.3050 N.3   122  MET122     -0.1230
    153  CA        42.9620    3.6380   -0.0870 C.3   122  MET122      0.1702
    154  C         43.2040    3.8390   -1.6070 C.2   122  MET122      0.2592
    155  O         42.2390    3.9580   -2.3570 O.2   122  MET122     -0.2718
    156  CB        43.6970    4.6940    0.7530 C.3   122  MET122      0.0401
    157  CG        43.0370    6.0260    0.8360 C.3   122  MET122      0.0596
    158  SD        44.0580    7.2180    1.7650 S.3   122  MET122     -0.1393
    159  CE        43.9920    6.5040    3.4050 C.3   122  MET122      0.0692
    160  N         44.4750    3.7850   -2.0650 N.am  123  PHE123     -0.1976
    161  CA        44.8190    3.9490   -3.4910 C.3   123  PHE123      0.1639
    162  C         44.3370    2.7910   -4.3520 C.2   123  PHE123      0.2290
    163  O         43.9800    3.0120   -5.5070 O.2   123  PHE123     -0.2864
    164  CB        46.3170    4.2390   -3.6950 C.3   123  PHE123      0.0560
    165  CG        46.6310    5.6560   -3.2870 C.ar  123  PHE123     -0.0200
    166  CD1       47.0190    5.9520   -1.9830 C.ar  123  PHE123     -0.0042
    167  CD2       46.4480    6.7100   -4.1760 C.ar  123  PHE123     -0.0042
    168  CE1       47.2510    7.2720   -1.5890 C.ar  123  PHE123     -0.0003
    169  CE2       46.6680    8.0310   -3.7740 C.ar  123  PHE123     -0.0003
    170  CZ        47.0720    8.3010   -2.4870 C.ar  123  PHE123     -0.0000
    171  N         40.8410    3.7510   -5.1910 N.3   126  TYR126     -0.1241
    172  CA        40.8050    4.8310   -6.1770 C.3   126  TYR126      0.1605
    173  C         41.0450    4.2810   -7.5790 C.2   126  TYR126      0.2264
    174  O         40.3840    4.7120   -8.5240 O.2   126  TYR126     -0.2867
    175  CB        41.8510    5.9110   -5.8670 C.3   126  TYR126      0.0534
    176  CG        41.7440    6.5860   -4.5150 C.ar  126  TYR126     -0.0201
    177  CD1       40.5620    6.5380   -3.7760 C.ar  126  TYR126     -0.0009
    178  CD2       42.8230    7.2690   -3.9730 C.ar  126  TYR126     -0.0009
    179  CE1       40.4680    7.1450   -2.5240 C.ar  126  TYR126      0.0417
    180  CE2       42.7480    7.8610   -2.7150 C.ar  126  TYR126      0.0417
    181  CZ        41.5680    7.7980   -1.9940 C.ar  126  TYR126      0.1957
    182  OH        41.5080    8.3940   -0.7580 O.3   126  TYR126     -0.2866
    183  N         39.1040    3.1000    8.7890 N.3   204  HIS204     -0.1241
    184  CA        39.2770    4.5010    9.1800 C.3   204  HIS204      0.1621
    185  C         39.1080    4.7160   10.6970 C.2   204  HIS204      0.2264
    186  O         39.8710    5.4860   11.2870 O.2   204  HIS204     -0.2867
    187  CB        38.2890    5.3800    8.4130 C.3   204  HIS204      0.0745
    188  CG        38.6570    6.8210    8.3930 C.ar  204  HIS204      0.0817
    189  ND1       39.5720    7.3140    7.4860 N.ar  204  HIS204     -0.2268
    190  CD2       38.2140    7.8330    9.1690 C.ar  204  HIS204      0.1154
    191  CE1       39.6630    8.6070    7.7400 C.ar  204  HIS204      0.1986
    192  NE2       38.8630    8.9620    8.7480 N.ar  204  HIS204     -0.2212
    193  N         42.1060    3.2780   12.4850 N.3   207  MET207     -0.1245
    194  CA        43.2290    4.2010   12.2500 C.3   207  MET207      0.1570
    195  C         43.1850    5.3730   13.2480 C.2   207  MET207      0.2261
    196  O         44.2070    5.7460   13.8190 O.2   207  MET207     -0.2867
    197  CB        43.1810    4.7250   10.7950 C.3   207  MET207      0.0387
    198  CG        44.2870    5.7090   10.4490 C.3   207  MET207      0.0595
    199  SD        44.0800    6.5300    8.8400 S.3   207  MET207     -0.1393
    200  CE        42.7300    7.6230    9.1880 C.3   207  MET207      0.0692
    201  N         45.7990    6.5950   17.1120 N.3   211  TRP211     -0.1241
    202  CA        46.5700    7.8240   17.3290 C.3   211  TRP211      0.1605
    203  C         46.5830    8.2480   18.7920 C.2   211  TRP211      0.2264
    204  O         45.5290    8.5280   19.3730 O.2   211  TRP211     -0.2867
    205  CB        46.1030    8.9740   16.4150 C.3   211  TRP211      0.0550
    206  CG        46.0890    8.6670   14.9390 C.ar  211  TRP211      0.0003
    207  CD1       46.7780    7.6810   14.2910 C.ar  211  TRP211      0.0946
    208  CD2       45.3690    9.3830   13.9260 C.ar  211  TRP211      0.0152
    209  NE1       46.4880    7.7040   12.9470 N.ar  211  TRP211     -0.2442
    210  CE2       45.6360    8.7470   12.6920 C.ar  211  TRP211      0.0810
    211  CE3       44.4920   10.4830   13.9450 C.ar  211  TRP211      0.0012
    212  CZ2       45.0840    9.1920   11.4830 C.ar  211  TRP211      0.0191
    213  CZ3       43.9210   10.9040   12.7510 C.ar  211  TRP211      0.0001
    214  CH2       44.2210   10.2660   11.5370 C.ar  211  TRP211      0.0015
    215  N         38.5650   16.0800   14.3330 N.3   222  LEU222     -0.1245
    216  CA        38.4050   14.9400   13.4230 C.3   222  LEU222      0.1561
    217  C         37.6440   13.7970   14.0970 C.2   222  LEU222      0.2260
    218  O         36.7540   13.2200   13.4750 O.2   222  LEU222     -0.2867
    219  CB        39.7570   14.4360   12.8740 C.3   222  LEU222      0.0270
    220  CG        40.5000   15.3540   11.8830 C.3   222  LEU222      0.0019
    221  CD1       41.7870   14.6880   11.3790 C.3   222  LEU222      0.0001
    222  CD2       39.6080   15.7860   10.7120 C.3   222  LEU222      0.0001
    223  N         34.0440   11.9640   12.6720 N.3   226  TRP226     -0.1241
    224  CA        34.2170   10.5740   12.2560 C.3   226  TRP226      0.1605
    225  C         33.9110    9.4770   13.2860 C.2   226  TRP226      0.2264
    226  O         33.5250    8.3860   12.8700 O.2   226  TRP226     -0.2867
    227  CB        35.6390   10.3740   11.7410 C.3   226  TRP226      0.0550
    228  CG        36.0200   11.2010   10.5490 C.ar  226  TRP226      0.0003
    229  CD1       35.1950   11.6710    9.5690 C.ar  226  TRP226      0.0946
    230  CD2       37.3500   11.5520   10.1560 C.ar  226  TRP226      0.0152
    231  NE1       35.9260   12.3460    8.6210 N.ar  226  TRP226     -0.2442
    232  CE2       37.2540   12.2710    8.9460 C.ar  226  TRP226      0.0810
    233  CE3       38.6180   11.3490   10.7250 C.ar  226  TRP226      0.0012
    234  CZ2       38.3770   12.7630    8.2810 C.ar  226  TRP226      0.0191
    235  CZ3       39.7340   11.8240   10.0590 C.ar  226  TRP226      0.0001
    236  CH2       39.6070   12.5320    8.8580 C.ar  226  TRP226      0.0015
@<TRIPOS>BOND
     1   112   110    1
     2   118   117    1
     3    97    96    2
     4   105   106    1
     5   110   111    1
     6   110   109    1
     7    96    95    1
     8   117   114    1
     9   106   109    1
    10   106   107    1
    11   103   101   ar
    12   103   104   ar
    13    89    88    2
    14   174   173    2
    15   113   114    1
    16   101    99   ar
    17   104   102   ar
    18   114   115    1
    19    95    94    1
    20    95    98    1
    21    88    94   am
    22    88    87    1
    23   107   108    2
    24   173   172    1
    25   115   116    2
    26    99    98    1
    27    99   100   ar
    28   102   100   ar
    29    87    86    1
    30    87    90    1
    31   134   133   ar
    32    78    77    1
    33   172   175    1
    34   172   171    1
    35   175   176    1
    36    90    92    1
    37    90    91    1
    38   133   135   ar
    39   133   132    1
    40    79    77    1
    41    77    76    2
    42   163   162    2
    43    91    93    1
    44   131   132    1
    45   131   128    1
    46    83    82    2
    47    72    71    2
    48   176   178   ar
    49   176   177   ar
    50   162   161    1
    51    76    75    1
    52   167   169   ar
    53   167   165   ar
    54   119   120    1
    55    82    81    1
    56    75    74    1
    57   178   180   ar
    58   177   179   ar
    59   169   170   ar
    60   127   128    1
    61   127   121   am
    62   164   161    1
    63   164   165    1
    64    71    70    1
    65    71    80   am
    66   123   120    1
    67   123   124    1
    68   128   129    1
    69   161   160    1
    70   165   166   ar
    71    70    69    1
    72    70    73    1
    73   126   124    1
    74   120   121    1
    75    81    80    1
    76    81    84    1
    77   121   122    2
    78   180   181   ar
    79    74    73    1
    80   129   130    2
    81   124   125    1
    82   179   181   ar
    83   170   168   ar
    84   155   154    2
    85   160   154   am
    86    61    60    2
    87   181   182    1
    88   166   168   ar
    89   154   153    1
    90    84    85    1
    91    60    59    1
    92    34    33    1
    93   143   141    1
    94   153   152    1
    95   153   156    1
    96    53    52    2
    97    59    62    1
    98    59    58    1
    99    33    32    1
   100   141   140    1
   101   156   157    1
   102    49    47   ar
   103    49    48   ar
   104    47    45   ar
   105   157   158    1
   106   140   142    1
   107   140   137    1
   108    62    63    1
   109    52    58   am
   110    52    51    1
   111   136   137    1
   112    64    63   ar
   113    64    66   ar
   114   137   138    1
   115   158   159    1
   116    32    31    1
   117    51    50    1
   118    51    54    1
   119    63    65   ar
   120    48    46   ar
   121   138   139    2
   122    45    44    1
   123    45    46   ar
   124    31    28    1
   125    66    68   ar
   126    44    41    1
   127    41    40    1
   128    41    42    1
   129    55    54    1
   130    55    56    1
   131    43    42    2
   132    19    17    1
   133    65    67   ar
   134    28    29    1
   135    28    27    1
   136    30    29    2
   137    68    67   ar
   138    29    35   am
   139    17    18    1
   140    17    16    1
   141    56    57    1
   142    13    12    1
   143    13    16    1
   144    13    14    1
   145    35    36    1
   146    15    14    2
   147    36    37    1
   148    36    39    1
   149    14    20   am
   150    38    37    2
   151   147   146    2
   152   151   149    1
   153     1     2    1
   154    20    21    1
   155   150   148    1
   156   148   149    1
   157   148   145    1
   158   189   191   ar
   159   189   188   ar
   160   146   145    1
   161    22    23    2
   162    22    21    1
   163   191   192   ar
   164     2     3    1
   165     2     5    1
   166     4     3    2
   167   145   144    1
   168    21    24    1
   169   234   236   ar
   170   234   232   ar
   171   188   187    1
   172   188   190   ar
   173   187   184    1
   174   231   232   ar
   175   231   229   ar
   176   192   190   ar
   177   183   184    1
   178   199   200    1
   179   199   198    1
   180   236   235   ar
   181   232   230   ar
   182   184   185    1
   183     5     6    1
   184     7     6   ar
   185     7     9   ar
   186    24    25    1
   187    24    26    1
   188   229   228   ar
   189     6     8   ar
   190     9    11   ar
   191   235   233   ar
   192   230   228   ar
   193   230   233   ar
   194   198   197    1
   195   228   227    1
   196   185   186    2
   197   222   220    1
   198   197   194    1
   199     8    10   ar
   200    11    10   ar
   201   221   220    1
   202   212   214   ar
   203   212   210   ar
   204   214   213   ar
   205   227   224    1
   206   220   219    1
   207   194   193    1
   208   194   195    1
   209   224   223    1
   210   224   225    1
   211   210   209   ar
   212   210   208   ar
   213   213   211   ar
   214   226   225    2
   215   219   216    1
   216   209   207   ar
   217   195   196    2
   218   216   217    1
   219   216   215    1
   220   218   217    2
   221   208   211   ar
   222   208   206   ar
   223   207   206   ar
   224   206   205    1
   225   205   202    1
   226   201   202    1
   227   202   203    1
   228   203   204    2
