@<TRIPOS>MOLECULE
tmp/5q1jA01.pdb
 115 115 0 0 0
SMALL
GASTEIGER

@<TRIPOS>ATOM
      1  N         -7.2730    3.9730   32.7850 N.3   305  VAL305     -0.1231
      2  CA        -8.0930    4.5090   33.8650 C.3   305  VAL305      0.1692
      3  C         -9.3610    3.6710   34.0690 C.2   305  VAL305      0.2591
      4  O         -9.7440    3.4280   35.2230 O.2   305  VAL305     -0.2718
      5  CB        -8.4080    6.0070   33.6300 C.3   305  VAL305      0.0266
      6  CG1       -9.4160    6.5390   34.6700 C.3   305  VAL305      0.0020
      7  CG2       -7.1040    6.8270   33.6520 C.3   305  VAL305      0.0020
      8  N        -10.0030    3.2370   32.9760 N.am  306  GLN306     -0.1979
      9  CA       -11.2040    2.3730   33.0840 C.3   306  GLN306      0.1601
     10  C        -10.8820    0.9980   33.6800 C.2   306  GLN306      0.2287
     11  O        -11.7420    0.4010   34.3400 O.2   306  GLN306     -0.2864
     12  CB       -11.9400    2.2300   31.7460 C.3   306  GLN306      0.0394
     13  CG       -12.6690    3.4950   31.2880 C.3   306  GLN306      0.0908
     14  CD       -13.4510    3.3170   29.9800 C.2   306  GLN306      0.2608
     15  OE1      -12.9220    2.7880   29.0030 O.2   306  GLN306     -0.2717
     16  NE2      -14.7050    3.7980   29.9490 N.am  306  GLN306     -0.0878
     17  N         -9.9250    1.9270   37.7280 N.3   309  LYS309     -0.1231
     18  CA       -11.1470    2.3160   38.4520 C.3   309  LYS309      0.1678
     19  C        -10.8660    3.1180   39.7430 C.2   309  LYS309      0.2434
     20  O        -11.3710    2.7720   40.8220 O.2   309  LYS309     -0.2733
     21  CB       -12.0300    1.0750   38.7270 C.3   309  LYS309      0.0284
     22  CG       -12.4410    0.3040   37.4660 C.3   309  LYS309      0.0035
     23  CD       -13.1630   -1.0030   37.7790 C.3   309  LYS309      0.0206
     24  CE       -13.9590   -1.5340   36.5900 C.3   309  LYS309      0.1093
     25  NZ       -13.1370   -1.8770   35.3930 N.3   309  LYS309     -0.1314
     26  N        -10.0690    4.2020   39.6380 N.am  310  PRO310     -0.2718
     27  CA        -9.7720    5.0210   40.8180 C.3   310  PRO310      0.1535
     28  C        -11.0000    5.7620   41.3620 C.2   310  PRO310      0.2598
     29  O        -11.8980    6.1120   40.5880 O.2   310  PRO310     -0.2715
     30  CB        -8.7020    5.9930   40.2950 C.3   310  PRO310      0.0310
     31  CG        -9.0850    6.1820   38.8700 C.3   310  PRO310      0.0237
     32  CD        -9.5210    4.8160   38.4100 C.3   310  PRO310      0.0939
     33  N        -11.0470    5.9770   42.6840 N.am  311  GLN311     -0.1964
     34  CA       -12.1570    6.7340   43.2720 C.3   311  GLN311      0.1733
     35  C        -12.0750    8.2360   42.9590 C.2   311  GLN311      0.2616
     36  O        -13.1140    8.8830   42.8030 O.2   311  GLN311     -0.2715
     37  CB       -12.2700    6.4950   44.7800 C.3   311  GLN311      0.0408
     38  CG       -12.7320    5.0900   45.1370 C.3   311  GLN311      0.0908
     39  CD       -12.8410    4.8640   46.6320 C.2   311  GLN311      0.2608
     40  OE1      -12.4130    5.6920   47.4380 O.2   311  GLN311     -0.2717
     41  NE2      -13.4160    3.7370   47.0090 N.am  311  GLN311     -0.0878
     42  N        -10.8480    8.7750   42.8650 N.am  312  LYS312     -0.1963
     43  CA       -10.6050   10.1770   42.5590 C.3   312  LYS312      0.1728
     44  C         -9.4100   10.2910   41.6140 C.2   312  LYS312      0.2616
     45  O         -8.4300    9.5560   41.7850 O.2   312  LYS312     -0.2715
     46  CB       -10.2960   10.9680   43.8400 C.3   312  LYS312      0.0311
     47  CG       -10.2520   12.4800   43.6290 C.3   312  LYS312      0.0038
     48  CD        -9.8780   13.2110   44.9200 C.3   312  LYS312      0.0206
     49  CE        -9.4720   14.6950   44.6720 C.3   312  LYS312      0.1093
     50  NZ       -10.5620   15.5980   44.1440 N.3   312  LYS312     -0.1314
     51  N         -9.4830   11.2490   40.6770 N.am  313  ILE313     -0.1977
     52  CA        -8.3840   11.5610   39.7460 C.3   313  ILE313      0.1596
     53  C         -7.9540   13.0230   39.9500 C.2   313  ILE313      0.2287
     54  O         -8.8150   13.9290   39.9930 O.2   313  ILE313     -0.2864
     55  CB        -8.7930   11.3260   38.2700 C.3   313  ILE313      0.0276
     56  CG1       -9.2440    9.8750   38.0670 C.3   313  ILE313      0.0022
     57  CG2       -7.6580   11.7110   37.3150 C.3   313  ILE313      0.0022
     58  CD1       -9.8810    9.5930   36.7360 C.3   313  ILE313      0.0001
     59  N        -13.4620   12.3450   32.3420 N.3   332  PHE332     -0.1227
     60  CA       -13.3820   11.3730   33.4500 C.3   332  PHE332      0.1736
     61  C        -14.7990   10.8680   33.8120 C.2   332  PHE332      0.2595
     62  O        -14.9880    9.6610   34.0870 O.2   332  PHE332     -0.2718
     63  CB       -12.7020   11.9240   34.7040 C.3   332  PHE332      0.0547
     64  CG       -11.3080   12.4780   34.4920 C.ar  332  PHE332     -0.0202
     65  CD1      -10.4230   11.9610   33.5330 C.ar  332  PHE332     -0.0042
     66  CD2      -10.8560   13.5050   35.3240 C.ar  332  PHE332     -0.0042
     67  CE1       -9.1420   12.5080   33.3850 C.ar  332  PHE332     -0.0003
     68  CE2       -9.5890   14.0610   35.1620 C.ar  332  PHE332     -0.0003
     69  CZ        -8.7300   13.5470   34.1910 C.ar  332  PHE332     -0.0000
     70  N        -15.7920   11.7680   33.8180 N.am  333  ARG333     -0.1980
     71  CA       -17.1900   11.3450   34.0960 C.3   333  ARG333      0.1597
     72  C        -17.7470   10.4230   33.0160 C.2   333  ARG333      0.2287
     73  O        -18.4440    9.4590   33.3460 O.2   333  ARG333     -0.2864
     74  CB       -18.1290   12.5450   34.3130 C.3   333  ARG333      0.0334
     75  CG       -19.5690   12.1600   34.6780 C.3   333  ARG333      0.0492
     76  CD       -19.7000   11.3440   35.9680 C.3   333  ARG333      0.2205
     77  NE       -19.2060   12.0890   37.1390 N.pl3 333  ARG333     -0.0865
     78  CZ       -19.3560   11.7250   38.4180 C.cat 333  ARG333      0.5346
     79  NH1      -18.8560   12.5030   39.3800 N.pl3 333  ARG333      0.1354
     80  NH2      -20.0080   10.6100   38.7570 N.pl3 333  ARG333      0.1354
     81  N        -15.9840    8.3700   31.1410 N.3   335  TRP335     -0.1227
     82  CA       -15.3100    7.0740   31.2940 C.3   335  TRP335      0.1737
     83  C        -15.9200    6.2590   32.4380 C.2   335  TRP335      0.2595
     84  O        -16.1350    5.0510   32.2980 O.2   335  TRP335     -0.2718
     85  CB       -13.8040    7.2430   31.5230 C.3   335  TRP335      0.0564
     86  CG       -13.0350    7.9730   30.4660 C.ar  335  TRP335      0.0003
     87  CD1      -13.4350    8.3110   29.2080 C.ar  335  TRP335      0.0946
     88  CD2      -11.6850    8.4260   30.5990 C.ar  335  TRP335      0.0152
     89  NE1      -12.4210    8.9730   28.5490 N.ar  335  TRP335     -0.2442
     90  CE2      -11.3350    9.0560   29.3870 C.ar  335  TRP335      0.0810
     91  CE3      -10.7400    8.3770   31.6510 C.ar  335  TRP335      0.0012
     92  CZ2      -10.0740    9.6320   29.1800 C.ar  335  TRP335      0.0191
     93  CZ3       -9.4660    8.9560   31.4380 C.ar  335  TRP335      0.0001
     94  CH2       -9.1700    9.5740   30.2080 C.ar  335  TRP335      0.0015
     95  N        -16.2460    6.9570   33.5260 N.am  336  LYS336     -0.1980
     96  CA       -16.9020    6.3820   34.7110 C.3   336  LYS336      0.1596
     97  C        -18.3060    5.8160   34.4140 C.2   336  LYS336      0.2287
     98  O        -18.7010    4.7980   35.0140 O.2   336  LYS336     -0.2864
     99  CB       -16.9610    7.4480   35.8180 C.3   336  LYS336      0.0298
    100  CG       -17.5320    7.0240   37.1690 C.3   336  LYS336      0.0038
    101  CD       -17.3700    8.1540   38.1820 C.3   336  LYS336      0.0206
    102  CE       -18.1910    7.9700   39.4540 C.3   336  LYS336      0.1093
    103  NZ       -17.5160    7.0940   40.4480 N.3   336  LYS336     -0.1314
    104  N        -17.9710    2.1850   37.3520 N.3   341  TYR341     -0.1241
    105  CA       -17.3160    2.3460   38.6640 C.3   341  TYR341      0.1605
    106  C        -17.6980    3.6800   39.3190 C.2   341  TYR341      0.2264
    107  O        -18.7350    4.2660   38.9810 O.2   341  TYR341     -0.2867
    108  CB       -15.7850    2.1660   38.5760 C.3   341  TYR341      0.0534
    109  CG       -15.0420    3.1170   37.6460 C.ar  341  TYR341     -0.0201
    110  CD1      -14.5570    4.3450   38.0960 C.ar  341  TYR341     -0.0009
    111  CD2      -14.7980    2.7670   36.3170 C.ar  341  TYR341     -0.0009
    112  CE1      -13.8680    5.2050   37.2470 C.ar  341  TYR341      0.0417
    113  CE2      -14.1070    3.6170   35.4650 C.ar  341  TYR341      0.0417
    114  CZ       -13.6430    4.8340   35.9360 C.ar  341  TYR341      0.1957
    115  OH       -12.9720    5.6750   35.0860 O.3   341  TYR341     -0.2866
@<TRIPOS>BOND
     1    89    87   ar
     2    89    90   ar
     3    15    14    2
     4    92    90   ar
     5    92    94   ar
     6    87    86   ar
     7    90    88   ar
     8    16    14   am
     9    14    13    1
    10    94    93   ar
    11    86    88   ar
    12    86    85    1
    13    88    91   ar
    14    81    82    1
    15    13    12    1
    16    82    85    1
    17    82    83    1
    18    93    91   ar
    19    12     9    1
    20    84    83    2
    21    59    60    1
    22    83    95   am
    23     1     2    1
    24     8     9    1
    25     8     3   am
    26    72    73    2
    27    72    71    1
    28     9    10    1
    29    67    65   ar
    30    67    69   ar
    31    60    61    1
    32    60    63    1
    33    95    96    1
    34    65    64   ar
    35     5     7    1
    36     5     2    1
    37     5     6    1
    38    10    11    2
    39    61    70   am
    40    61    62    2
    41    70    71    1
    42     2     3    1
    43     3     4    2
    44    71    74    1
    45    69    68   ar
    46    74    75    1
    47    97    96    1
    48    97    98    2
    49    64    63    1
    50    64    66   ar
    51    75    76    1
    52    96    99    1
    53   115   114    1
    54    68    66   ar
    55    25    24    1
    56   113   114   ar
    57   113   111   ar
    58    99   100    1
    59   114   112   ar
    60    76    77    1
    61   111   109   ar
    62    24    23    1
    63    58    56    1
    64    77    78    2
    65   100   101    1
    66   112   110   ar
    67    57    55    1
    68   104   105    1
    69    22    23    1
    70    22    21    1
    71   109   110   ar
    72   109   108    1
    73    17    18    1
    74    56    55    1
    75   101   102    1
    76    55    52    1
    77    32    31    1
    78    32    26    1
    79    78    80    1
    80    78    79    1
    81    18    21    1
    82    18    19    1
    83   108   105    1
    84   105   106    1
    85    31    30    1
    86   107   106    2
    87   102   103    1
    88    26    19   am
    89    26    27    1
    90    19    20    2
    91    52    53    1
    92    52    51    1
    93    53    54    2
    94    30    27    1
    95    29    28    2
    96    51    44   am
    97    27    28    1
    98    28    33   am
    99    44    45    2
   100    44    43    1
   101    43    42    1
   102    43    46    1
   103    33    34    1
   104    36    35    2
   105    42    35   am
   106    35    34    1
   107    34    37    1
   108    47    46    1
   109    47    48    1
   110    50    49    1
   111    49    48    1
   112    37    38    1
   113    38    39    1
   114    39    41   am
   115    39    40    2
