@<TRIPOS>MOLECULE
tmp/5q1kA01.pdb
 93 88 0 0 0
SMALL
GASTEIGER

@<TRIPOS>ATOM
      1  N         18.7280    4.8110   37.5830 N.3    55  ILE55      -0.1245
      2  CA        19.1130    5.6320   36.4210 C.3    55  ILE55       0.1561
      3  C         18.9620    7.1350   36.7020 C.2    55  ILE55       0.2260
      4  O         19.8690    7.9320   36.4010 O.2    55  ILE55      -0.2867
      5  CB        18.3460    5.2110   35.1420 C.3    55  ILE55       0.0252
      6  CG1       18.8580    3.8570   34.6340 C.3    55  ILE55       0.0019
      7  CG2       18.4400    6.2840   34.0550 C.3    55  ILE55       0.0019
      8  CD1       17.9340    3.1450   33.6580 C.3    55  ILE55       0.0001
      9  N         14.2060    6.7270   29.8550 N.3    96  PRO96      -0.2116
     10  CA        14.9900    5.8570   30.7580 C.3    96  PRO96       0.1372
     11  C         14.9520    6.3410   32.2230 C.2    96  PRO96       0.2244
     12  O         15.0710    7.5500   32.4860 O.2    96  PRO96      -0.2868
     13  CB        16.4020    5.9110   30.1510 C.3    96  PRO96       0.0268
     14  CG        16.1360    6.1260   28.6820 C.3    96  PRO96       0.0207
     15  CD        15.0050    7.1330   28.6730 C.3    96  PRO96       0.0892
     16  N         15.5350    7.3140   22.6260 N.3   185  GLU185     -0.1231
     17  CA        16.8280    6.7880   22.1780 C.3   185  GLU185      0.1699
     18  C         16.6760    5.7160   21.0810 C.2   185  GLU185      0.2592
     19  O         17.5710    5.5880   20.2180 O.2   185  GLU185     -0.2718
     20  CB        17.6150    6.2010   23.3530 C.3   185  GLU185      0.0402
     21  CG        18.2110    7.2140   24.3370 C.3   185  GLU185      0.1161
     22  CD        17.2230    7.8370   25.3340 C.2   185  GLU185      0.3649
     23  OE1       16.0660    7.3310   25.4990 O.co2 185  GLU185     -0.2457
     24  OE2       17.6170    8.8620   25.9890 O.co2 185  GLU185     -0.2457
     25  N         15.5630    4.9630   21.0920 N.am  186  LYS186     -0.1980
     26  CA        15.3430    3.9280   20.0660 C.3   186  LYS186      0.1596
     27  C         15.4100    4.4740   18.6380 C.2   186  LYS186      0.2287
     28  O         15.8410    3.7640   17.7160 O.2   186  LYS186     -0.2864
     29  CB        14.0140    3.1850   20.3080 C.3   186  LYS186      0.0298
     30  CG        13.7550    1.9590   19.4370 C.3   186  LYS186      0.0038
     31  CD        14.6930    0.8130   19.7890 C.3   186  LYS186      0.0206
     32  CE        14.3100   -0.4740   19.0720 C.3   186  LYS186      0.1093
     33  NZ        15.2150   -1.5670   19.5030 N.3   186  LYS186     -0.1314
     34  N         19.2340    4.8260   17.7940 N.3   189  LEU189     -0.1231
     35  CA        19.8880    3.5160   17.9430 C.3   189  LEU189      0.1693
     36  C         19.4550    2.4970   16.8670 C.2   189  LEU189      0.2591
     37  O         20.3020    1.7930   16.2970 O.2   189  LEU189     -0.2718
     38  CB        19.7050    2.9580   19.3510 C.3   189  LEU189      0.0284
     39  CG        20.3390    3.7730   20.4950 C.3   189  LEU189      0.0019
     40  CD1       19.8760    3.2020   21.8220 C.3   189  LEU189      0.0001
     41  CD2       21.8620    3.7800   20.4120 C.3   189  LEU189      0.0001
     42  N         18.1500    2.4590   16.5750 N.am  190  ALA190     -0.1980
     43  CA        17.6270    1.5420   15.5500 C.3   190  ALA190      0.1597
     44  C         18.1210    1.8870   14.1380 C.2   190  ALA190      0.2287
     45  O         18.4390    0.9820   13.3320 O.2   190  ALA190     -0.2864
     46  CB        16.1110    1.5300   15.5770 C.3   190  ALA190      0.0319
     47  N         21.9020    0.9490   13.9080 N.3   193  ASP193     -0.1239
     48  CA        22.0190   -0.5280   13.8450 C.3   193  ASP193      0.1674
     49  C         21.7850   -1.0720   12.4200 C.2   193  ASP193      0.2266
     50  O         22.5680   -1.9030   11.9490 O.2   193  ASP193     -0.2867
     51  CB        21.0380   -1.1370   14.8520 C.3   193  ASP193      0.1410
     52  CG        21.0040   -2.6420   14.8020 C.2   193  ASP193      0.3668
     53  OD1       20.0470   -3.1650   14.1930 O.co2 193  ASP193     -0.2456
     54  OD2       21.9340   -3.3010   15.3400 O.co2 193  ASP193     -0.2456
     55  N         22.5810    5.6750   31.4850 N.3   212  LEU212     -0.1231
     56  CA        21.2460    5.0900   31.2770 C.3   212  LEU212      0.1693
     57  C         21.1340    3.5440   31.3750 C.2   212  LEU212      0.2592
     58  O         20.0500    2.9950   31.1430 O.2   212  LEU212     -0.2718
     59  CB        20.6710    5.5920   29.9450 C.3   212  LEU212      0.0284
     60  CG        20.6520    7.1140   29.7560 C.3   212  LEU212      0.0019
     61  CD1       19.9710    7.4480   28.4390 C.3   212  LEU212      0.0001
     62  CD2       19.9850    7.8570   30.9140 C.3   212  LEU212      0.0001
     63  N         22.2210    2.8460   31.7340 N.am  213  ASN213     -0.1960
     64  CA        22.2120    1.3620   31.8260 C.3   213  ASN213      0.1819
     65  C         21.6360    0.6480   30.5850 C.2   213  ASN213      0.2621
     66  O         20.9500   -0.3680   30.6910 O.2   213  ASN213     -0.2715
     67  CB        21.4630    0.8880   33.0870 C.3   213  ASN213      0.1195
     68  CG        22.1290    1.3220   34.3740 C.2   213  ASN213      0.2630
     69  OD1       23.3080    1.7050   34.3980 O.2   213  ASN213     -0.2716
     70  ND2       21.3880    1.2410   35.4670 N.am  213  ASN213     -0.0877
     71  N         21.9180    1.1860   29.4050 N.am  214  ILE214     -0.1964
     72  CA        21.5670    0.5160   28.1600 C.3   214  ILE214      0.1712
     73  C         22.5970   -0.5870   27.9240 C.2   214  ILE214      0.2458
     74  O         23.7900   -0.2920   27.9120 O.2   214  ILE214     -0.2730
     75  CB        21.5530    1.5070   26.9820 C.3   214  ILE214      0.0289
     76  CG1       20.4310    2.5370   27.1820 C.3   214  ILE214      0.0022
     77  CG2       21.3550    0.7630   25.6650 C.3   214  ILE214      0.0023
     78  CD1       20.6230    3.8000   26.3780 C.3   214  ILE214      0.0001
     79  N         22.1490   -1.8540   27.7530 N.am  215  PRO215     -0.2727
     80  CA        23.0770   -2.9710   27.5090 C.3   215  PRO215      0.1402
     81  C         23.9630   -2.7660   26.2900 C.2   215  PRO215      0.2269
     82  O         23.4720   -2.3100   25.2550 O.2   215  PRO215     -0.2865
     83  CB        22.1480   -4.1610   27.2590 C.3   215  PRO215      0.0296
     84  CG        20.8780   -3.8110   27.9400 C.3   215  PRO215      0.0237
     85  CD        20.7520   -2.3260   27.8290 C.3   215  PRO215      0.0939
     86  N         27.7050    1.0040   20.6580 N.3   220  LEU220     -0.1245
     87  CA        26.6350    1.6970   19.9180 C.3   220  LEU220      0.1561
     88  C         26.7910    3.2240   19.7170 C.2   220  LEU220      0.2260
     89  O         26.1690    3.7820   18.8060 O.2   220  LEU220     -0.2867
     90  CB        25.2940    1.4140   20.6160 C.3   220  LEU220      0.0270
     91  CG        24.9620   -0.0310   21.0100 C.3   220  LEU220      0.0019
     92  CD1       23.6300   -0.0720   21.7460 C.3   220  LEU220      0.0001
     93  CD2       24.9600   -0.9670   19.8060 C.3   220  LEU220      0.0001
@<TRIPOS>BOND
     1    50    49    2
     2    49    48    1
     3    45    44    2
     4    48    47    1
     5    48    51    1
     6    44    43    1
     7    53    52   ar
     8    52    51    1
     9    52    54   ar
    10    43    46    1
    11    43    42    1
    12    37    36    2
    13    42    36   am
    14    36    35    1
    15    28    27    2
    16    34    35    1
    17    35    38    1
    18    27    26    1
    19    89    88    2
    20    32    33    1
    21    32    31    1
    22    38    39    1
    23    30    31    1
    24    30    29    1
    25    88    87    1
    26    93    91    1
    27    87    90    1
    28    87    86    1
    29    26    29    1
    30    26    25    1
    31    19    18    2
    32    41    39    1
    33    39    40    1
    34    90    91    1
    35    91    92    1
    36    18    25   am
    37    18    17    1
    38    17    16    1
    39    17    20    1
    40    20    21    1
    41    21    22    1
    42    82    81    2
    43    22    23   ar
    44    22    24   ar
    45    77    75    1
    46    81    80    1
    47    78    76    1
    48    75    76    1
    49    75    72    1
    50    83    80    1
    51    83    84    1
    52    80    79    1
    53    79    85    1
    54    79    73   am
    55    85    84    1
    56    74    73    2
    57    73    72    1
    58    72    71    1
    59    61    60    1
    60    15    14    1
    61    15     9    1
    62    14    13    1
    63    71    65   am
    64    60    59    1
    65    60    62    1
    66     9    10    1
    67    59    56    1
    68    13    10    1
    69    65    66    2
    70    65    64    1
    71    10    11    1
    72    58    57    2
    73    56    57    1
    74    56    55    1
    75    57    63   am
    76    63    64    1
    77    64    67    1
    78    11    12    2
    79    67    68    1
    80     8     6    1
    81     7     5    1
    82    68    69    2
    83    68    70   am
    84     6     5    1
    85     5     2    1
    86     4     3    2
    87     2     3    1
    88     2     1    1
