@<TRIPOS>MOLECULE
tmp/5q1mA01.pdb
 79 78 0 0 0
SMALL
GASTEIGER

@<TRIPOS>ATOM
      1  N          1.7750   17.2890   46.4560 N.3     7  LYS7       -0.1231
      2  CA         1.8670   16.8210   47.8310 C.3     7  LYS7        0.1693
      3  C          1.0670   15.5260   47.9940 C.2     7  LYS7        0.2592
      4  O         -0.0340   15.3950   47.4390 O.2     7  LYS7       -0.2718
      5  CB         1.3140   17.8780   48.7740 C.3     7  LYS7        0.0285
      6  CG         2.1220   19.1750   48.7740 C.3     7  LYS7        0.0035
      7  CD         1.5460   20.0990   49.8210 C.3     7  LYS7        0.0206
      8  CE         2.2600   21.4230   49.8400 C.3     7  LYS7        0.1093
      9  NZ         1.5040   22.3570   50.7130 N.3     7  LYS7       -0.1314
     10  N          1.6270   14.5850   48.7530 N.am    8  ILE8       -0.1966
     11  CA         0.9780   13.3020   49.0620 C.3     8  ILE8        0.1712
     12  C          0.4620   13.3410   50.5310 C.2     8  ILE8        0.2458
     13  O          1.2590   13.2870   51.4950 O.2     8  ILE8       -0.2730
     14  CB         1.9560   12.1180   48.8810 C.3     8  ILE8        0.0289
     15  CG1        2.6650   12.1400   47.5110 C.3     8  ILE8        0.0022
     16  CG2        1.2430   10.7780   49.0970 C.3     8  ILE8        0.0023
     17  CD1        1.7670   12.0390   46.2900 C.3     8  ILE8        0.0001
     18  N         -0.8690   13.4030   50.7140 N.am    9  PRO9       -0.2716
     19  CA        -1.3900   13.6770   52.0750 C.3     9  PRO9        0.1536
     20  C         -1.0680   12.6110   53.1370 C.2     9  PRO9        0.2599
     21  O         -1.1090   11.4130   52.8490 O.2     9  PRO9       -0.2715
     22  CB        -2.9000   13.7720   51.8640 C.3     9  PRO9        0.0310
     23  CG        -3.1780   12.9880   50.6310 C.3     9  PRO9        0.0237
     24  CD        -1.9660   13.1860   49.7470 C.3     9  PRO9        0.0939
     25  N         -0.8730   13.0610   54.3740 N.am   10  GLY10      -0.1941
     26  CA        -0.6510   12.1690   55.5080 C.3    10  GLY10       0.2014
     27  C          0.7440   11.5790   55.5410 C.2    10  GLY10       0.2639
     28  O          0.9660   10.5330   56.1570 O.2    10  GLY10      -0.2714
     29  N          1.6770   12.2500   54.8650 N.am   11  THR11      -0.1950
     30  CA         3.0830   11.8650   54.8320 C.3    11  THR11       0.1897
     31  C          3.9250   13.1320   54.7990 C.2    11  THR11       0.2313
     32  O          3.3840   14.2450   54.7200 O.2    11  THR11      -0.2863
     33  CB         3.4280   11.0330   53.5750 C.3    11  THR11       0.1794
     34  OG1        3.2790   11.8400   52.3960 O.3    11  THR11      -0.2208
     35  CG2        2.5420    9.7930   53.4570 C.3    11  THR11       0.0378
     36  N          5.9240   13.6160   52.1850 N.3    13  PHE13      -0.1227
     37  CA         6.4100   13.4080   50.8100 C.3    13  PHE13       0.1736
     38  C          5.8620   14.4370   49.8230 C.2    13  PHE13       0.2596
     39  O          4.7110   14.8590   49.9250 O.2    13  PHE13      -0.2718
     40  CB         6.0640   12.0050   50.2890 C.3    13  PHE13       0.0547
     41  CG         6.3540   10.8850   51.2550 C.ar   13  PHE13      -0.0202
     42  CD1        7.4740   10.9070   52.0860 C.ar   13  PHE13      -0.0042
     43  CD2        5.5180    9.7710   51.2990 C.ar   13  PHE13      -0.0042
     44  CE1        7.7310    9.8650   52.9640 C.ar   13  PHE13      -0.0003
     45  CE2        5.7750    8.7240   52.1740 C.ar   13  PHE13      -0.0003
     46  CZ         6.8830    8.7710   53.0070 C.ar   13  PHE13      -0.0000
     47  N          6.7240   14.8440   48.8910 N.am   14  THR14      -0.1953
     48  CA         6.3430   15.5750   47.6750 C.3    14  THR14       0.1897
     49  C          6.8600   14.8050   46.4470 C.2    14  THR14       0.2313
     50  O          7.7520   13.9610   46.5630 O.2    14  THR14      -0.2863
     51  CB         6.9110   16.9990   47.6120 C.3    14  THR14       0.1794
     52  OG1        8.3400   16.9480   47.6750 O.3    14  THR14      -0.2208
     53  CG2        6.3560   17.8490   48.7660 C.3    14  THR14       0.0378
     54  N         10.1040   22.9170   51.2560 N.3    23  VAL23      -0.1231
     55  CA         8.6450   22.7590   51.3620 C.3    23  VAL23       0.1692
     56  C          8.2900   22.4070   52.8070 C.2    23  VAL23       0.2592
     57  O          8.8170   21.4280   53.3350 O.2    23  VAL23      -0.2718
     58  CB         8.1440   21.6720   50.3800 C.3    23  VAL23       0.0266
     59  CG1        6.6470   21.4260   50.5430 C.3    23  VAL23       0.0020
     60  CG2        8.4650   22.0970   48.9500 C.3    23  VAL23       0.0020
     61  N          7.4130   23.2010   53.4380 N.am   24  GLU24      -0.1966
     62  CA         7.0400   22.9860   54.8480 C.3    24  GLU24       0.1733
     63  C          6.4120   21.6000   55.0250 C.2    24  GLU24       0.2617
     64  O          5.4070   21.2740   54.3790 O.2    24  GLU24      -0.2715
     65  CB         6.0720   24.0640   55.3650 C.3    24  GLU24       0.0429
     66  CG         6.6530   25.4570   55.5010 C.3    24  GLU24       0.1163
     67  CD         6.9630   26.1440   54.1960 C.2    24  GLU24       0.3649
     68  OE1        6.3310   25.8220   53.1580 O.co2  24  GLU24      -0.2457
     69  OE2        7.8340   27.0440   54.1340 O.co2  24  GLU24      -0.2457
     70  N          7.0370   20.7980   55.8810 N.am   25  GLY25      -0.1940
     71  CA         6.5580   19.4660   56.2310 C.3    25  GLY25       0.2014
     72  C          7.1240   18.3220   55.3960 C.2    25  GLY25       0.2639
     73  O          6.7900   17.1690   55.6580 O.2    25  GLY25      -0.2714
     74  N          7.9850   18.6150   54.4190 N.am   26  CYS26      -0.1967
     75  CA         8.5160   17.5700   53.5270 C.3    26  CYS26       0.1712
     76  C          9.7930   16.9410   54.0750 C.2    26  CYS26       0.2296
     77  O         10.8180   17.6090   54.1990 O.2    26  CYS26      -0.2864
     78  CB         8.7910   18.1260   52.1340 C.3    26  CYS26       0.0983
     79  SG         9.3060   16.8640   50.9590 S.3    26  CYS26      -0.0798
@<TRIPOS>BOND
     1    17    15    1
     2    49    50    2
     3    49    48    1
     4     1     2    1
     5     4     3    2
     6    15    14    1
     7    51    48    1
     8    51    52    1
     9    51    53    1
    10    48    47    1
    11     2     3    1
    12     2     5    1
    13     3    10   am
    14    10    11    1
    15     5     6    1
    16     6     7    1
    17    14    11    1
    18    14    16    1
    19    47    38   am
    20    60    58    1
    21    11    12    1
    22    24    23    1
    23    24    18    1
    24     7     8    1
    25    38    39    2
    26    38    37    1
    27     8     9    1
    28    40    37    1
    29    40    41    1
    30    58    59    1
    31    58    55    1
    32    12    18   am
    33    12    13    2
    34    23    22    1
    35    18    19    1
    36    37    36    1
    37    79    78    1
    38    41    43   ar
    39    41    42   ar
    40    54    55    1
    41    43    45   ar
    42    55    56    1
    43    22    19    1
    44    19    20    1
    45    42    44   ar
    46    78    75    1
    47    45    46   ar
    48    34    33    1
    49    56    57    2
    50    56    61   am
    51    21    20    2
    52    44    46   ar
    53    20    25   am
    54    68    67   ar
    55    61    62    1
    56    35    33    1
    57    75    76    1
    58    75    74    1
    59    33    30    1
    60    76    77    2
    61    69    67   ar
    62    67    66    1
    63    25    26    1
    64    64    63    2
    65    74    72   am
    66    32    31    2
    67    31    30    1
    68    30    29    1
    69    62    63    1
    70    62    65    1
    71    29    27   am
    72    63    70   am
    73    65    66    1
    74    72    73    2
    75    72    71    1
    76    26    27    1
    77    27    28    2
    78    70    71    1
