@<TRIPOS>MOLECULE
tmp/5q1oA01.pdb
 76 70 0 0 0
SMALL
GASTEIGER

@<TRIPOS>ATOM
      1  N         -1.3960   14.7310   29.6650 N.3   141  THR141     -0.1218
      2  CA        -0.8530   15.4900   28.5310 C.3   141  THR141      0.1862
      3  C         -1.7840   15.4870   27.3090 C.2   141  THR141      0.2287
      4  O         -2.1350   16.5760   26.7840 O.2   141  THR141     -0.2866
      5  CB         0.5730   14.9780   28.1400 C.3   141  THR141      0.1770
      6  OG1        1.4860   15.1900   29.2410 O.3   141  THR141     -0.2211
      7  CG2        1.1400   15.7000   26.9490 C.3   141  THR141      0.0375
      8  N         -5.0840   14.1580   27.0470 N.3   143  CYS143     -0.1221
      9  CA        -6.4510   13.7870   27.4570 C.3   143  CYS143      0.1808
     10  C         -7.5570   14.4690   26.6390 C.2   143  CYS143      0.2601
     11  O         -8.3650   15.2290   27.1940 O.2   143  CYS143     -0.2717
     12  CB        -6.6510   14.0200   28.9630 C.3   143  CYS143      0.0970
     13  SG        -8.1910   13.3510   29.6520 S.3   143  CYS143     -0.0800
     14  N         -7.5970   14.1800   25.3250 N.am  144  SER144     -0.1952
     15  CA        -8.6720   14.6290   24.4110 C.3   144  SER144      0.1924
     16  C         -8.6310   13.7180   23.1610 C.2   144  SER144      0.2314
     17  O         -7.5380   13.3310   22.7290 O.2   144  SER144     -0.2863
     18  CB        -8.5240   16.1160   24.0750 C.3   144  SER144      0.2116
     19  OG        -9.7000   16.6880   23.5260 O.3   144  SER144     -0.2180
     20  N         -6.1030   13.5260   20.0240 N.3   147  TYR147     -0.1241
     21  CA        -4.7140   13.1180   20.1380 C.3   147  TYR147      0.1605
     22  C         -4.5470   11.6320   19.8250 C.2   147  TYR147      0.2264
     23  O         -4.7240   10.7410   20.6800 O.2   147  TYR147     -0.2867
     24  CB        -4.1600   13.4570   21.5010 C.3   147  TYR147      0.0534
     25  CG        -4.1460   14.9350   21.8670 C.ar  147  TYR147     -0.0201
     26  CD1       -3.3640   15.8460   21.1340 C.ar  147  TYR147     -0.0009
     27  CD2       -4.8810   15.4310   22.9350 C.ar  147  TYR147     -0.0009
     28  CE1       -3.3010   17.2050   21.4650 C.ar  147  TYR147      0.0417
     29  CE2       -4.8390   16.8060   23.2820 C.ar  147  TYR147      0.0417
     30  CZ        -4.0510   17.6810   22.5660 C.ar  147  TYR147      0.1957
     31  OH        -4.0280   19.0370   22.9560 O.3   147  TYR147     -0.2866
     32  N         -1.9210   20.1530   32.0480 N.3   318  ASN318     -0.1240
     33  CA        -3.0460   20.9740   31.5420 C.3   318  ASN318      0.1653
     34  C         -3.9250   21.5240   32.7020 C.2   318  ASN318      0.2266
     35  O         -5.1470   21.6910   32.5540 O.2   318  ASN318     -0.2867
     36  CB        -3.8750   20.2410   30.4810 C.3   318  ASN318      0.1155
     37  CG        -3.0170   19.7200   29.3380 C.2   318  ASN318      0.2627
     38  OD1       -2.2240   20.4460   28.7460 O.2   318  ASN318     -0.2716
     39  ND2       -3.1440   18.4240   29.0570 N.am  318  ASN318     -0.0877
     40  N         -5.7520   26.1930   33.0400 N.3   321  THR321     -0.1218
     41  CA        -6.9110   26.9370   32.4950 C.3   321  THR321      0.1862
     42  C         -8.2150   26.2980   32.9100 C.2   321  THR321      0.2287
     43  O         -8.3130   25.0450   33.0490 O.2   321  THR321     -0.2866
     44  CB        -6.8780   27.0700   30.9410 C.3   321  THR321      0.1770
     45  OG1       -7.2450   25.8280   30.2860 O.3   321  THR321     -0.2211
     46  CG2       -5.4800   27.5510   30.4320 C.3   321  THR321      0.0375
     47  N        -10.8290   26.0030   30.9970 N.3   323  LYS323     -0.1231
     48  CA       -11.2870   25.2130   29.8480 C.3   323  LYS323      0.1693
     49  C        -10.6410   23.8140   29.8590 C.2   323  LYS323      0.2592
     50  O        -11.3480   22.8070   29.6930 O.2   323  LYS323     -0.2718
     51  CB       -11.0020   25.9350   28.5300 C.3   323  LYS323      0.0285
     52  CG       -11.4290   25.1510   27.2980 C.3   323  LYS323      0.0035
     53  CD       -11.2220   25.9400   26.0240 C.3   323  LYS323      0.0206
     54  CE       -11.6710   25.1560   24.8040 C.3   323  LYS323      0.1093
     55  NZ       -11.2440   25.8960   23.5920 N.3   323  LYS323     -0.1314
     56  N         -9.3180   23.7420   30.0440 N.am  324  SER324     -0.1952
     57  CA        -8.6390   22.4370   30.0390 C.3   324  SER324      0.1924
     58  C         -9.1010   21.6020   31.2340 C.2   324  SER324      0.2314
     59  O         -9.3340   20.3750   31.0810 O.2   324  SER324     -0.2863
     60  CB        -7.1040   22.5860   29.9750 C.3   324  SER324      0.2116
     61  OG        -6.5490   23.2720   31.0580 O.3   324  SER324     -0.2180
     62  N        -12.6540   20.2240   30.3970 N.3   327  THR327     -0.1203
     63  CA       -12.5320   19.1780   29.3700 C.3   327  THR327      0.1994
     64  C        -12.1220   17.8290   30.0250 C.2   327  THR327      0.2617
     65  O        -12.7240   16.7620   29.7600 O.2   327  THR327     -0.2717
     66  CB       -11.4810   19.5880   28.2880 C.3   327  THR327      0.1784
     67  OG1      -12.0060   20.6920   27.5600 O.3   327  THR327     -0.2211
     68  CG2      -11.1330   18.4470   27.3250 C.3   327  THR327      0.0376
     69  N        -11.0780   17.8620   30.8460 N.am  328  MET328     -0.1979
     70  CA       -10.5830   16.6190   31.4660 C.3   328  MET328      0.1605
     71  C        -11.6500   15.9960   32.3890 C.2   328  MET328      0.2287
     72  O        -11.9030   14.7860   32.3120 O.2   328  MET328     -0.2864
     73  CB        -9.2640   16.8870   32.2050 C.3   328  MET328      0.0413
     74  CG        -8.1040   17.2160   31.2640 C.3   328  MET328      0.0598
     75  SD        -6.4980   17.4170   32.0570 S.3   328  MET328     -0.1393
     76  CE        -6.7520   18.8550   33.0840 C.3   328  MET328      0.0692
@<TRIPOS>BOND
     1    22    21    1
     2    22    23    2
     3    20    21    1
     4    21    24    1
     5    26    28   ar
     6    26    25   ar
     7    28    30   ar
     8    24    25    1
     9    25    27   ar
    10    30    31    1
    11    30    29   ar
    12    17    16    2
    13    27    29   ar
    14    16    15    1
    15    19    18    1
    16    55    54    1
    17    18    15    1
    18    15    14    1
    19    54    53    1
    20    14    10   am
    21    53    52    1
    22    10    11    2
    23    10     9    1
    24     4     3    2
    25     7     5    1
    26     8     9    1
    27    52    51    1
    28     3     2    1
    29    68    66    1
    30     9    12    1
    31    67    66    1
    32     5     2    1
    33     5     6    1
    34    66    63    1
    35    51    48    1
    36     2     1    1
    37    38    37    2
    38    12    13    1
    39    39    37   am
    40    37    36    1
    41    63    64    1
    42    63    62    1
    43    50    49    2
    44    65    64    2
    45    48    49    1
    46    48    47    1
    47    49    56   am
    48    60    57    1
    49    60    61    1
    50    64    69   am
    51    57    56    1
    52    57    58    1
    53    45    44    1
    54    46    44    1
    55    36    33    1
    56    69    70    1
    57    44    41    1
    58    59    58    2
    59    74    75    1
    60    74    73    1
    61    70    73    1
    62    70    71    1
    63    33    32    1
    64    33    34    1
    65    75    76    1
    66    72    71    2
    67    41    42    1
    68    41    40    1
    69    35    34    2
    70    42    43    2
