@<TRIPOS>MOLECULE
tmp/5q1pA01.pdb
 122 121 0 0 0
SMALL
GASTEIGER

@<TRIPOS>ATOM
      1  N         -7.3600    3.9580   32.7420 N.3   305  VAL305     -0.1245
      2  CA        -8.2210    4.4680   33.8080 C.3   305  VAL305      0.1561
      3  C         -9.4600    3.5960   33.9800 C.2   305  VAL305      0.2260
      4  O         -9.8510    3.3170   35.1270 O.2   305  VAL305     -0.2867
      5  CB        -8.5650    5.9620   33.5870 C.3   305  VAL305      0.0252
      6  CG1       -9.5580    6.4890   34.6390 C.3   305  VAL305      0.0019
      7  CG2       -7.2750    6.7770   33.6520 C.3   305  VAL305      0.0019
      8  N        -10.0630    1.8190   37.6450 N.3   309  LYS309     -0.1231
      9  CA       -11.2780    2.2060   38.3850 C.3   309  LYS309      0.1678
     10  C        -10.9850    3.0060   39.6850 C.2   309  LYS309      0.2434
     11  O        -11.4800    2.6520   40.7670 O.2   309  LYS309     -0.2733
     12  CB       -12.1650    0.9810   38.6640 C.3   309  LYS309      0.0284
     13  CG       -12.5660    0.2100   37.4030 C.3   309  LYS309      0.0035
     14  CD       -13.3440   -1.0700   37.7210 C.3   309  LYS309      0.0206
     15  CE       -14.1000   -1.5820   36.5020 C.3   309  LYS309      0.1093
     16  NZ       -13.2070   -1.9590   35.3710 N.3   309  LYS309     -0.1314
     17  N        -10.2060    4.0970   39.5830 N.am  310  PRO310     -0.2718
     18  CA        -9.9230    4.9290   40.7830 C.3   310  PRO310      0.1535
     19  C        -11.1590    5.6460   41.3170 C.2   310  PRO310      0.2598
     20  O        -12.0630    5.9330   40.5480 O.2   310  PRO310     -0.2715
     21  CB        -8.8960    5.9350   40.2570 C.3   310  PRO310      0.0310
     22  CG        -9.3580    6.1450   38.8390 C.3   310  PRO310      0.0237
     23  CD        -9.7360    4.7690   38.3530 C.3   310  PRO310      0.0939
     24  N        -11.1950    5.9440   42.6220 N.am  311  GLN311     -0.1964
     25  CA       -12.2750    6.7340   43.1880 C.3   311  GLN311      0.1733
     26  C        -12.1780    8.2320   42.8730 C.2   311  GLN311      0.2616
     27  O        -13.2160    8.8810   42.7280 O.2   311  GLN311     -0.2715
     28  CB       -12.4200    6.5060   44.7100 C.3   311  GLN311      0.0408
     29  CG       -12.9820    5.1350   45.0690 C.3   311  GLN311      0.0908
     30  CD       -12.9670    4.8540   46.5700 C.2   311  GLN311      0.2608
     31  OE1      -12.5690    5.6950   47.3790 O.2   311  GLN311     -0.2717
     32  NE2      -13.4070    3.6690   46.9430 N.am  311  GLN311     -0.0878
     33  N        -10.9530    8.7590   42.7750 N.am  312  LYS312     -0.1963
     34  CA       -10.6950   10.1690   42.5020 C.3   312  LYS312      0.1728
     35  C         -9.5200   10.2900   41.5210 C.2   312  LYS312      0.2616
     36  O         -8.5280    9.5720   41.6610 O.2   312  LYS312     -0.2715
     37  CB       -10.3880   10.9090   43.8160 C.3   312  LYS312      0.0311
     38  CG       -10.1850   12.3950   43.6500 C.3   312  LYS312      0.0038
     39  CD        -9.8860   13.0480   44.9790 C.3   312  LYS312      0.0206
     40  CE        -9.4020   14.4750   44.7640 C.3   312  LYS312      0.1093
     41  NZ        -9.1400   15.1860   46.0500 N.3   312  LYS312     -0.1314
     42  N         -9.6560   11.1710   40.5100 N.am  313  ILE313     -0.1977
     43  CA        -8.5650   11.5130   39.5890 C.3   313  ILE313      0.1596
     44  C         -8.1410   12.9680   39.7630 C.2   313  ILE313      0.2287
     45  O         -8.9980   13.8720   39.7640 O.2   313  ILE313     -0.2864
     46  CB        -8.9840   11.2720   38.1310 C.3   313  ILE313      0.0276
     47  CG1       -9.4670    9.8210   37.9400 C.3   313  ILE313      0.0022
     48  CG2       -7.8260   11.5820   37.1890 C.3   313  ILE313      0.0022
     49  CD1      -10.0920    9.5570   36.5870 C.3   313  ILE313      0.0001
     50  N         -5.6970   15.4690   37.7480 N.2   315  PRO315     -0.2584
     51  CA        -4.7840   15.7030   36.6050 C.3   315  PRO315      0.1895
     52  C         -3.5210   16.4660   37.0030 C.2   315  PRO315      0.2359
     53  O         -3.5830   17.3380   37.8960 O.2   315  PRO315     -0.2858
     54  CB        -5.6320   16.5530   35.6370 C.2   315  PRO315      0.0071
     55  CG        -6.8850   16.8430   36.2700 C.2   315  PRO315      0.0180
     56  CD        -6.9560   16.2120   37.6210 C.2   315  PRO315      0.0937
     57  N        -12.4420   16.9010   32.9850 N.3   329  GLU329     -0.1245
     58  CA       -13.4820   16.4110   33.9120 C.3   329  GLU329      0.1567
     59  C        -14.6930   15.7870   33.2020 C.2   329  GLU329      0.2260
     60  O        -15.2360   14.7860   33.6800 O.2   329  GLU329     -0.2867
     61  CB       -13.9360   17.5030   34.8950 C.3   329  GLU329      0.0388
     62  CG       -12.8510   17.9590   35.8620 C.3   329  GLU329      0.1160
     63  CD       -13.3240   18.9830   36.8930 C.2   329  GLU329      0.3649
     64  OE1      -12.4790   19.7440   37.4160 O.co2 329  GLU329     -0.2457
     65  OE2      -14.5310   19.0320   37.1870 O.co2 329  GLU329     -0.2457
     66  N        -13.5220   12.2950   32.0900 N.3   332  PHE332     -0.1227
     67  CA       -13.4220   11.3460   33.2060 C.3   332  PHE332      0.1736
     68  C        -14.8220   10.8230   33.5810 C.2   332  PHE332      0.2595
     69  O        -14.9990    9.6060   33.9140 O.2   332  PHE332     -0.2718
     70  CB       -12.7920   11.9720   34.4500 C.3   332  PHE332      0.0547
     71  CG       -11.3910   12.5230   34.2730 C.ar  332  PHE332     -0.0202
     72  CD1      -10.4890   12.0050   33.3380 C.ar  332  PHE332     -0.0042
     73  CD2      -10.9780   13.6010   35.0590 C.ar  332  PHE332     -0.0042
     74  CE1       -9.2250   12.5490   33.1910 C.ar  332  PHE332     -0.0003
     75  CE2       -9.7010   14.1340   34.9230 C.ar  332  PHE332     -0.0003
     76  CZ        -8.8240   13.6100   33.9750 C.ar  332  PHE332     -0.0000
     77  N        -15.8120   11.7170   33.5770 N.am  333  ARG333     -0.1980
     78  CA       -17.2240   11.3200   33.8500 C.3   333  ARG333      0.1597
     79  C        -17.7500   10.3550   32.7790 C.2   333  ARG333      0.2287
     80  O        -18.3590    9.3250   33.1160 O.2   333  ARG333     -0.2864
     81  CB       -18.1480   12.5370   34.0580 C.3   333  ARG333      0.0334
     82  CG       -19.5470   12.1890   34.5850 C.3   333  ARG333      0.0492
     83  CD       -19.5530   11.4830   35.9640 C.3   333  ARG333      0.2205
     84  NE       -18.8700   12.2870   37.0020 N.pl3 333  ARG333     -0.0865
     85  CZ       -18.6420   11.9210   38.2730 C.cat 333  ARG333      0.5346
     86  NH1      -18.0060   12.7620   39.0900 N.pl3 333  ARG333      0.1354
     87  NH2      -19.0330   10.7350   38.7420 N.pl3 333  ARG333      0.1354
     88  N        -15.9890    8.2930   30.9990 N.3   335  TRP335     -0.1227
     89  CA       -15.2870    7.0100   31.1630 C.3   335  TRP335      0.1737
     90  C        -15.8920    6.1710   32.2970 C.2   335  TRP335      0.2595
     91  O        -16.0750    4.9230   32.1810 O.2   335  TRP335     -0.2718
     92  CB       -13.7940    7.2320   31.4170 C.3   335  TRP335      0.0564
     93  CG       -13.0310    7.9670   30.3660 C.ar  335  TRP335      0.0003
     94  CD1      -13.4360    8.2870   29.0860 C.ar  335  TRP335      0.0946
     95  CD2      -11.6780    8.4110   30.4760 C.ar  335  TRP335      0.0152
     96  NE1      -12.4260    8.9560   28.4300 N.ar  335  TRP335     -0.2442
     97  CE2      -11.3290    9.0320   29.2480 C.ar  335  TRP335      0.0810
     98  CE3      -10.7310    8.3860   31.5080 C.ar  335  TRP335      0.0012
     99  CZ2      -10.0560    9.6240   29.0380 C.ar  335  TRP335      0.0191
    100  CZ3       -9.4670    8.9550   31.2820 C.ar  335  TRP335      0.0001
    101  CH2       -9.1580    9.5760   30.0640 C.ar  335  TRP335      0.0015
    102  N        -16.2340    6.8480   33.3880 N.am  336  LYS336     -0.1980
    103  CA       -16.8400    6.2020   34.5600 C.3   336  LYS336      0.1596
    104  C        -18.2700    5.6980   34.2830 C.2   336  LYS336      0.2287
    105  O        -18.6360    4.5850   34.7350 O.2   336  LYS336     -0.2864
    106  CB       -16.8230    7.1670   35.7600 C.3   336  LYS336      0.0298
    107  CG       -17.4030    6.6190   37.0720 C.3   336  LYS336      0.0038
    108  CD       -17.4700    7.7050   38.1440 C.3   336  LYS336      0.0206
    109  CE       -18.4300    7.3850   39.2970 C.3   336  LYS336      0.1093
    110  NZ       -17.7210    6.9800   40.5370 N.3   336  LYS336     -0.1314
    111  N        -18.1570    1.9140   37.1190 N.3   341  TYR341     -0.1241
    112  CA       -17.6000    2.2060   38.4480 C.3   341  TYR341      0.1605
    113  C        -18.0710    3.5820   38.9250 C.2   341  TYR341      0.2264
    114  O        -19.1600    4.0320   38.5420 O.2   341  TYR341     -0.2867
    115  CB       -16.0570    2.0820   38.4920 C.3   341  TYR341      0.0534
    116  CG       -15.2690    2.9690   37.5540 C.ar  341  TYR341     -0.0201
    117  CD1      -14.7350    4.1850   37.9780 C.ar  341  TYR341     -0.0009
    118  CD2      -15.0250    2.5710   36.2370 C.ar  341  TYR341     -0.0009
    119  CE1      -13.9880    4.9880   37.1110 C.ar  341  TYR341      0.0417
    120  CE2      -14.2810    3.3670   35.3760 C.ar  341  TYR341      0.0417
    121  CZ       -13.7790    4.5750   35.8060 C.ar  341  TYR341      0.1957
    122  OH       -13.0390    5.3440   34.9240 O.3   341  TYR341     -0.2866
@<TRIPOS>BOND
     1    96    94   ar
     2    96    97   ar
     3    99    97   ar
     4    99   101   ar
     5    94    93   ar
     6    97    95   ar
     7   101   100   ar
     8    93    95   ar
     9    93    92    1
    10    95    98   ar
    11    88    89    1
    12    89    92    1
    13    89    90    1
    14   100    98   ar
    15    66    67    1
    16    91    90    2
    17    90   102   am
    18     1     2    1
    19    79    80    2
    20    79    78    1
    21    57    58    1
    22    74    72   ar
    23    74    76   ar
    24    59    60    2
    25    59    58    1
    26    67    68    1
    27    67    70    1
    28    72    71   ar
    29   102   103    1
    30    77    68   am
    31    77    78    1
    32    68    69    2
    33     5     7    1
    34     5     2    1
    35     5     6    1
    36     2     3    1
    37    78    81    1
    38    58    61    1
    39    76    75   ar
    40     3     4    2
    41    81    82    1
    42    71    70    1
    43    71    73   ar
    44   104   103    1
    45   104   105    2
    46   103   106    1
    47    82    83    1
    48    61    62    1
    49    75    73   ar
    50   122   121    1
    51    16    15    1
    52   120   121   ar
    53   120   118   ar
    54    54    55    2
    55    54    51    1
    56   106   107    1
    57   121   119   ar
    58    62    63    1
    59    83    84    1
    60   118   116   ar
    61    55    56    1
    62    15    14    1
    63    49    47    1
    64    51    52    1
    65    51    50    1
    66    63    65   ar
    67    63    64   ar
    68    84    85    2
    69    52    53    2
    70   107   108    1
    71   119   117   ar
    72   111   112    1
    73    48    46    1
    74    13    14    1
    75    13    12    1
    76   116   117   ar
    77   116   115    1
    78    56    50    2
    79     8     9    1
    80    47    46    1
    81    46    43    1
    82   108   109    1
    83    85    87    1
    84    85    86    1
    85    23    22    1
    86    23    17    1
    87     9    12    1
    88     9    10    1
    89   112   115    1
    90   112   113    1
    91   114   113    2
    92    22    21    1
    93   109   110    1
    94    17    10   am
    95    17    18    1
    96    43    44    1
    97    43    42    1
    98    10    11    2
    99    44    45    2
   100    21    18    1
   101    42    35   am
   102    20    19    2
   103    18    19    1
   104    19    24   am
   105    35    36    2
   106    35    34    1
   107    34    33    1
   108    34    37    1
   109    24    25    1
   110    27    26    2
   111    33    26   am
   112    26    25    1
   113    25    28    1
   114    38    37    1
   115    38    39    1
   116    28    29    1
   117    40    39    1
   118    40    41    1
   119    29    30    1
   120    30    32   am
   121    30    31    2
