@<TRIPOS>MOLECULE
tmp/5q1rA01.pdb
 79 73 0 0 0
SMALL
GASTEIGER

@<TRIPOS>ATOM
      1  N          9.6860   -2.6040   41.1670 N.3    77  ASP77      -0.1239
      2  CA         8.8310   -3.7610   41.4330 C.3    77  ASP77       0.1674
      3  C          9.0820   -4.4020   42.8040 C.2    77  ASP77       0.2266
      4  O          8.8590   -5.6130   42.9700 O.2    77  ASP77      -0.2867
      5  CB         8.9630   -4.8050   40.2980 C.3    77  ASP77       0.1410
      6  CG         8.5840   -4.2510   38.9300 C.2    77  ASP77       0.3668
      7  OD1        7.5850   -3.5170   38.8100 O.co2  77  ASP77      -0.2456
      8  OD2        9.2850   -4.5690   37.9510 O.co2  77  ASP77      -0.2456
      9  N          7.3650    1.6550   39.8000 N.3    90  LEU90      -0.1231
     10  CA         7.0070    0.8630   38.6020 C.3    90  LEU90       0.1693
     11  C          7.4950    1.5660   37.3320 C.2    90  LEU90       0.2592
     12  O          7.4570    2.8030   37.2550 O.2    90  LEU90      -0.2718
     13  CB         5.4800    0.7110   38.5240 C.3    90  LEU90       0.0284
     14  CG         4.7900    0.0310   39.7070 C.3    90  LEU90       0.0019
     15  CD1        3.2700    0.2010   39.6160 C.3    90  LEU90       0.0001
     16  CD2        5.1800   -1.4440   39.7320 C.3    90  LEU90       0.0001
     17  N          7.9420    0.8130   36.3230 N.am   91  ASP91      -0.1974
     18  CA         8.3370    1.4450   35.0510 C.3    91  ASP91       0.1709
     19  C          7.1510    2.2330   34.4170 C.2    91  ASP91       0.2293
     20  O          6.0260    1.7270   34.3190 O.2    91  ASP91      -0.2864
     21  CB         8.8810    0.4250   34.0520 C.3    91  ASP91       0.1436
     22  CG         9.6250    1.1070   32.8860 C.2    91  ASP91       0.3671
     23  OD1       10.8340    1.4050   32.9930 O.co2  91  ASP91      -0.2456
     24  OD2        9.0060    1.3490   31.8670 O.co2  91  ASP91      -0.2456
     25  N          7.1360    3.5420   31.2470 N.3    93  ASN93      -0.1240
     26  CA         7.1700    3.5280   29.7630 C.3    93  ASN93       0.1653
     27  C          7.2120    4.9710   29.2050 C.2    93  ASN93       0.2266
     28  O          6.4810    5.3030   28.2660 O.2    93  ASN93      -0.2867
     29  CB         5.9680    2.7590   29.1930 C.3    93  ASN93       0.1155
     30  CG         6.0570    2.5300   27.6910 C.2    93  ASN93       0.2627
     31  OD1        7.1380    2.2550   27.1390 O.2    93  ASN93      -0.2716
     32  ND2        4.9250    2.6380   27.0130 N.am   93  ASN93      -0.0877
     33  N          6.4790    5.3850   37.8560 N.3   100  MET100     -0.1245
     34  CA         5.2380    5.6680   38.6060 C.3   100  MET100      0.1570
     35  C          5.5060    5.2580   40.0590 C.2   100  MET100      0.2261
     36  O          6.3400    4.3620   40.3050 O.2   100  MET100     -0.2867
     37  CB         4.0530    4.8750   38.0210 C.3   100  MET100      0.0387
     38  CG         3.9680    4.9000   36.4870 C.3   100  MET100      0.0595
     39  SD         2.4390    4.2420   35.7730 S.3   100  MET100     -0.1393
     40  CE         2.6720    2.4950   36.0480 C.3   100  MET100      0.0692
     41  N          0.4520   -3.9300   29.1940 N.3   122  SER122     -0.1202
     42  CA         1.4010   -4.6590   30.0440 C.3   122  SER122      0.2020
     43  C          1.3570   -4.2180   31.5170 C.2   122  SER122      0.2618
     44  O          1.6060   -5.0180   32.4140 O.2   122  SER122     -0.2717
     45  CB         2.8240   -4.5610   29.4710 C.3   122  SER122      0.2103
     46  OG         3.3240   -3.2300   29.4900 O.3   122  SER122     -0.2182
     47  N          1.0040   -2.9490   31.7700 N.am  123  MET123     -0.1979
     48  CA         0.8340   -2.4310   33.1460 C.3   123  MET123      0.1605
     49  C         -0.3030   -3.1060   33.9440 C.2   123  MET123      0.2287
     50  O         -0.3010   -3.0850   35.1840 O.2   123  MET123     -0.2864
     51  CB         0.6070   -0.9030   33.1280 C.3   123  MET123      0.0413
     52  CG         1.7830   -0.1080   32.5650 C.3   123  MET123      0.0598
     53  SD         1.4020    1.6330   32.3140 S.3   123  MET123     -0.1393
     54  CE         3.0380    2.2030   31.8230 C.3   123  MET123      0.0692
     55  N         -0.6870   -6.2070   34.1970 N.3   125  ARG125     -0.1231
     56  CA        -0.0820   -7.4250   34.7800 C.3   125  ARG125      0.1694
     57  C          1.0800   -7.1080   35.7450 C.2   125  ARG125      0.2593
     58  O          1.7980   -8.0100   36.1620 O.2   125  ARG125     -0.2718
     59  CB         0.4180   -8.3540   33.6520 C.3   125  ARG125      0.0321
     60  CG        -0.6490   -8.9180   32.7150 C.3   125  ARG125      0.0489
     61  CD        -0.3500   -8.6440   31.2350 C.3   125  ARG125      0.2205
     62  NE        -1.6010   -8.3400   30.5440 N.pl3 125  ARG125     -0.0865
     63  CZ        -1.7160   -7.7740   29.3530 C.cat 125  ARG125      0.5346
     64  NH1       -0.6540   -7.4080   28.6510 N.pl3 125  ARG125      0.1354
     65  NH2       -2.9380   -7.5770   28.8560 N.pl3 125  ARG125      0.1354
     66  N          1.2960   -5.8380   36.0750 N.am  126  SER126     -0.1938
     67  CA         2.2460   -5.4520   37.1380 C.3   126  SER126      0.2055
     68  C          1.6370   -5.6770   38.5400 C.2   126  SER126      0.2642
     69  O          0.4950   -6.1520   38.6670 O.2   126  SER126     -0.2714
     70  CB         2.6030   -3.9700   36.9940 C.3   126  SER126      0.2130
     71  OG         1.4800   -3.1450   37.3190 O.3   126  SER126     -0.2179
     72  N          2.3640   -5.2520   39.5790 N.am  127  LEU127     -0.1977
     73  CA         1.8420   -5.1950   40.9750 C.3   127  LEU127      0.1596
     74  C          0.5550   -4.3540   41.1610 C.2   127  LEU127      0.2287
     75  O         -0.0790   -4.4410   42.2180 O.2   127  LEU127     -0.2864
     76  CB         2.9050   -4.6570   41.9590 C.3   127  LEU127      0.0297
     77  CG         4.3700   -5.1290   41.9770 C.3   127  LEU127      0.0022
     78  CD1        5.0010   -4.8720   43.3380 C.3   127  LEU127      0.0001
     79  CD2        4.5590   -6.5930   41.5940 C.3   127  LEU127      0.0001
@<TRIPOS>BOND
     1    32    30   am
     2    31    30    2
     3    30    29    1
     4    28    27    2
     5    64    63    1
     6    65    63    1
     7    29    26    1
     8    41    42    1
     9    27    26    1
    10    63    62    2
    11    45    46    1
    12    45    42    1
    13    26    25    1
    14    42    43    1
    15    62    61    1
    16    61    60    1
    17    43    47   am
    18    43    44    2
    19    47    48    1
    20    54    53    1
    21    24    22   ar
    22    53    52    1
    23    52    51    1
    24    60    59    1
    25    22    23   ar
    26    22    21    1
    27    51    48    1
    28    48    49    1
    29    59    56    1
    30    49    50    2
    31    21    18    1
    32    55    56    1
    33    20    19    2
    34    19    18    1
    35    56    57    1
    36    18    17    1
    37    57    66   am
    38    57    58    2
    39    39    40    1
    40    39    38    1
    41    66    67    1
    42    17    11   am
    43    38    37    1
    44    70    67    1
    45    70    71    1
    46    67    68    1
    47    12    11    2
    48    11    10    1
    49    33    34    1
    50     8     6   ar
    51    37    34    1
    52    13    10    1
    53    13    14    1
    54    68    69    2
    55    68    72   am
    56    10     9    1
    57    34    35    1
    58     7     6   ar
    59     6     5    1
    60    72    73    1
    61    15    14    1
    62    14    16    1
    63    35    36    2
    64     5     2    1
    65    73    74    1
    66    73    76    1
    67    74    75    2
    68     1     2    1
    69     2     3    1
    70    79    77    1
    71    76    77    1
    72    77    78    1
    73     3     4    2
