@<TRIPOS>MOLECULE
tmp/5q1sA01.pdb
 121 120 0 0 0
SMALL
GASTEIGER

@<TRIPOS>ATOM
      1  N         -6.4080   -1.9220   44.9910 N.3   132  LYS132     -0.1245
      2  CA        -7.3020   -0.7750   45.0400 C.3   132  LYS132      0.1561
      3  C         -6.4680    0.5080   45.1580 C.2   132  LYS132      0.2260
      4  O         -5.5120    0.5540   45.9390 O.2   132  LYS132     -0.2867
      5  CB        -8.3200   -0.8740   46.1740 C.3   132  LYS132      0.0271
      6  CG        -9.3230    0.2660   46.1290 C.3   132  LYS132      0.0035
      7  CD       -10.5680   -0.0110   46.9520 C.3   132  LYS132      0.0206
      8  CE       -11.6630    0.9980   46.6180 C.3   132  LYS132      0.1093
      9  NZ       -12.1070    0.9370   45.1900 N.3   132  LYS132     -0.1314
     10  N         -7.0940    4.0660   32.8130 N.3   305  VAL305     -0.1231
     11  CA        -7.9050    4.5970   33.8980 C.3   305  VAL305      0.1692
     12  C         -9.1870    3.7600   34.1120 C.2   305  VAL305      0.2591
     13  O         -9.5630    3.4940   35.2720 O.2   305  VAL305     -0.2718
     14  CB        -8.2340    6.1060   33.6790 C.3   305  VAL305      0.0266
     15  CG1       -9.2080    6.6380   34.7160 C.3   305  VAL305      0.0020
     16  CG2       -6.9610    6.9410   33.7260 C.3   305  VAL305      0.0020
     17  N         -9.8330    3.3480   33.0220 N.am  306  GLN306     -0.1979
     18  CA       -11.0050    2.4490   33.1190 C.3   306  GLN306      0.1601
     19  C        -10.6490    1.0830   33.7260 C.2   306  GLN306      0.2287
     20  O        -11.4910    0.4840   34.3980 O.2   306  GLN306     -0.2864
     21  CB       -11.7200    2.2780   31.7620 C.3   306  GLN306      0.0394
     22  CG       -12.4140    3.5390   31.2820 C.3   306  GLN306      0.0908
     23  CD       -13.1900    3.3730   29.9990 C.2   306  GLN306      0.2608
     24  OE1      -12.6740    2.8700   29.0020 O.2   306  GLN306     -0.2717
     25  NE2      -14.4520    3.8400   30.0010 N.am  306  GLN306     -0.0878
     26  N         -7.9630    0.6700   36.0000 N.3   308  LEU308     -0.1231
     27  CA        -7.5330    0.9420   37.3640 C.3   308  LEU308      0.1693
     28  C         -8.7060    1.2580   38.3060 C.2   308  LEU308      0.2592
     29  O         -8.6730    0.8860   39.4880 O.2   308  LEU308     -0.2718
     30  CB        -6.5210    2.1040   37.3720 C.3   308  LEU308      0.0284
     31  CG        -5.7980    2.4020   38.6750 C.3   308  LEU308      0.0019
     32  CD1       -4.7600    1.3280   38.9910 C.3   308  LEU308      0.0001
     33  CD2       -5.1480    3.7810   38.6000 C.3   308  LEU308      0.0001
     34  N         -9.7080    1.9630   37.7840 N.am  309  LYS309     -0.1966
     35  CA       -10.8900    2.3770   38.5340 C.3   309  LYS309      0.1713
     36  C        -10.5970    3.1940   39.8100 C.2   309  LYS309      0.2458
     37  O        -11.0710    2.8510   40.9110 O.2   309  LYS309     -0.2730
     38  CB       -11.7470    1.1290   38.8500 C.3   309  LYS309      0.0311
     39  CG       -12.0340    0.2520   37.6450 C.3   309  LYS309      0.0038
     40  CD       -13.1200   -0.7830   37.9190 C.3   309  LYS309      0.0206
     41  CE       -13.8120   -1.2150   36.6330 C.3   309  LYS309      0.1093
     42  NZ       -12.8960   -1.8500   35.6500 N.3   309  LYS309     -0.1314
     43  N         -9.8230    4.2950   39.6800 N.am  310  PRO310     -0.2716
     44  CA        -9.4900    5.0530   40.8670 C.3   310  PRO310      0.1536
     45  C        -10.7200    5.7820   41.4120 C.2   310  PRO310      0.2598
     46  O        -11.5880    6.1750   40.6450 O.2   310  PRO310     -0.2715
     47  CB        -8.4500    6.0480   40.3570 C.3   310  PRO310      0.0310
     48  CG        -8.8740    6.3080   38.9670 C.3   310  PRO310      0.0237
     49  CD        -9.3660    4.9890   38.4520 C.3   310  PRO310      0.0939
     50  N        -10.7690    5.9830   42.7270 N.am  311  GLN311     -0.1964
     51  CA       -11.8780    6.7310   43.3270 C.3   311  GLN311      0.1733
     52  C        -11.8610    8.2250   43.0030 C.2   311  GLN311      0.2616
     53  O        -12.9220    8.8490   42.8570 O.2   311  GLN311     -0.2715
     54  CB       -11.9270    6.5150   44.8370 C.3   311  GLN311      0.0408
     55  CG       -12.2050    5.0750   45.2240 C.3   311  GLN311      0.0908
     56  CD       -12.8430    4.9450   46.5940 C.2   311  GLN311      0.2608
     57  OE1      -12.5600    5.7240   47.5020 O.2   311  GLN311     -0.2717
     58  NE2      -13.7060    3.9510   46.7470 N.am  311  GLN311     -0.0878
     59  N        -10.6670    8.7940   42.9100 N.am  312  LYS312     -0.1963
     60  CA       -10.4810   10.2030   42.5740 C.3   312  LYS312      0.1728
     61  C         -9.2680   10.3530   41.6660 C.2   312  LYS312      0.2616
     62  O         -8.3100    9.6160   41.8230 O.2   312  LYS312     -0.2715
     63  CB       -10.2370   11.0010   43.8490 C.3   312  LYS312      0.0311
     64  CG       -10.3930   12.4940   43.6330 C.3   312  LYS312      0.0038
     65  CD       -10.3000   13.2320   44.9610 C.3   312  LYS312      0.0206
     66  CE       -10.5010   14.7200   44.7280 C.3   312  LYS312      0.1093
     67  NZ        -9.4700   15.2420   43.8550 N.3   312  LYS312     -0.1314
     68  N         -9.3040   11.3560   40.7850 N.am  313  ILE313     -0.1977
     69  CA        -8.1990   11.6470   39.8600 C.3   313  ILE313      0.1596
     70  C         -7.8180   13.1140   40.0390 C.2   313  ILE313      0.2287
     71  O         -8.6940   13.9960   40.0370 O.2   313  ILE313     -0.2864
     72  CB        -8.5810   11.3870   38.3930 C.3   313  ILE313      0.0276
     73  CG1       -8.9960    9.9300   38.1970 C.3   313  ILE313      0.0022
     74  CG2       -7.4100   11.7760   37.4680 C.3   313  ILE313      0.0022
     75  CD1       -9.5530    9.6050   36.8350 C.3   313  ILE313      0.0001
     76  N        -13.3330   12.3720   32.4210 N.3   332  PHE332     -0.1241
     77  CA       -13.2320   11.3940   33.5290 C.3   332  PHE332      0.1605
     78  C        -14.6340   10.8930   33.8720 C.2   332  PHE332      0.2264
     79  O        -14.8120    9.7060   34.0840 O.2   332  PHE332     -0.2867
     80  CB       -12.5720   11.9560   34.7750 C.3   332  PHE332      0.0534
     81  CG       -11.2010   12.5550   34.5470 C.ar  332  PHE332     -0.0203
     82  CD1      -10.3050   11.9870   33.6260 C.ar  332  PHE332     -0.0042
     83  CD2      -10.7720   13.6150   35.3350 C.ar  332  PHE332     -0.0042
     84  CE1       -9.0370   12.5460   33.4550 C.ar  332  PHE332     -0.0003
     85  CE2       -9.5110   14.1700   35.1630 C.ar  332  PHE332     -0.0003
     86  CZ        -8.6410   13.6250   34.2110 C.ar  332  PHE332     -0.0000
     87  N        -15.8520    8.4040   31.2160 N.3   335  TRP335     -0.1227
     88  CA       -15.1720    7.1030   31.3660 C.3   335  TRP335      0.1737
     89  C        -15.7820    6.2730   32.4970 C.2   335  TRP335      0.2595
     90  O        -15.9530    5.0530   32.3530 O.2   335  TRP335     -0.2718
     91  CB       -13.6670    7.2930   31.6470 C.3   335  TRP335      0.0564
     92  CG       -12.8790    8.0340   30.5720 C.ar  335  TRP335      0.0003
     93  CD1      -13.2880    8.3600   29.3260 C.ar  335  TRP335      0.0946
     94  CD2      -11.5320    8.5080   30.6940 C.ar  335  TRP335      0.0152
     95  NE1      -12.2810    9.0240   28.6390 N.ar  335  TRP335     -0.2442
     96  CE2      -11.1920    9.1290   29.4720 C.ar  335  TRP335      0.0810
     97  CE3      -10.5730    8.4720   31.7300 C.ar  335  TRP335      0.0012
     98  CZ2       -9.9330    9.7060   29.2460 C.ar  335  TRP335      0.0191
     99  CZ3       -9.3220    9.0600   31.5000 C.ar  335  TRP335      0.0001
    100  CH2       -9.0200    9.6600   30.2600 C.ar  335  TRP335      0.0015
    101  N        -16.1320    6.9830   33.5750 N.am  336  LYS336     -0.1980
    102  CA       -16.8340    6.4690   34.7760 C.3   336  LYS336      0.1596
    103  C        -18.2390    5.9210   34.4860 C.2   336  LYS336      0.2287
    104  O        -18.6690    4.9710   35.1490 O.2   336  LYS336     -0.2864
    105  CB       -16.8850    7.5830   35.8430 C.3   336  LYS336      0.0298
    106  CG       -17.4710    7.2620   37.2210 C.3   336  LYS336      0.0038
    107  CD       -17.2440    8.4610   38.1460 C.3   336  LYS336      0.0206
    108  CE       -17.9830    8.4030   39.4770 C.3   336  LYS336      0.1093
    109  NZ       -17.3670    7.4500   40.4320 N.3   336  LYS336     -0.1314
    110  N        -18.5490    2.4030   37.0320 N.3   341  TYR341     -0.1241
    111  CA       -17.9130    2.5120   38.3530 C.3   341  TYR341      0.1605
    112  C        -18.1860    3.8600   39.0210 C.2   341  TYR341      0.2264
    113  O        -19.1890    4.5140   38.7380 O.2   341  TYR341     -0.2867
    114  CB       -16.4030    2.2050   38.2700 C.3   341  TYR341      0.0534
    115  CG       -15.5500    3.1410   37.4220 C.ar  341  TYR341     -0.0201
    116  CD1      -14.8670    4.2130   37.9970 C.ar  341  TYR341     -0.0009
    117  CD2      -15.3820    2.9190   36.0520 C.ar  341  TYR341     -0.0009
    118  CE1      -14.0710    5.0610   37.2290 C.ar  341  TYR341      0.0417
    119  CE2      -14.5840    3.7580   35.2790 C.ar  341  TYR341      0.0417
    120  CZ       -13.9310    4.8220   35.8710 C.ar  341  TYR341      0.1957
    121  OH       -13.1540    5.6570   35.0990 O.3   341  TYR341     -0.2866
@<TRIPOS>BOND
     1    95    93   ar
     2    95    96   ar
     3    24    23    2
     4    98    96   ar
     5    98   100   ar
     6    93    92   ar
     7    96    94   ar
     8    23    25   am
     9    23    22    1
    10   100    99   ar
    11    92    94   ar
    12    92    91    1
    13    94    97   ar
    14    87    88    1
    15    22    21    1
    16    88    91    1
    17    88    89    1
    18    99    97   ar
    19    21    18    1
    20    90    89    2
    21    76    77    1
    22    89   101   am
    23    10    11    1
    24    17    18    1
    25    17    12   am
    26    18    19    1
    27    84    82   ar
    28    84    86   ar
    29    77    78    1
    30    77    80    1
    31   101   102    1
    32    82    81   ar
    33    14    16    1
    34    14    11    1
    35    14    15    1
    36    19    20    2
    37    78    79    2
    38    11    12    1
    39    12    13    2
    40    86    85   ar
    41   103   102    1
    42   103   104    2
    43    81    80    1
    44    81    83   ar
    45   102   105    1
    46   121   120    1
    47    85    83   ar
    48   119   120   ar
    49   119   117   ar
    50    42    41    1
    51   105   106    1
    52   120   118   ar
    53    26    27    1
    54   117   115   ar
    55    41    40    1
    56    75    73    1
    57   110   111    1
    58   106   107    1
    59   118   116   ar
    60    27    30    1
    61    27    28    1
    62    30    31    1
    63   115   116   ar
    64   115   114    1
    65    74    72    1
    66    39    40    1
    67    39    38    1
    68    34    28   am
    69    34    35    1
    70   107   108    1
    71    73    72    1
    72   114   111    1
    73    28    29    2
    74   111   112    1
    75    72    69    1
    76    49    48    1
    77    49    43    1
    78    35    38    1
    79    35    36    1
    80    33    31    1
    81    31    32    1
    82   113   112    2
    83    48    47    1
    84   108   109    1
    85    43    36   am
    86    43    44    1
    87    36    37    2
    88    69    70    1
    89    69    68    1
    90    71    70    2
    91    47    44    1
    92    46    45    2
    93    68    61   am
    94    44    45    1
    95    45    50   am
    96    61    62    2
    97    61    60    1
    98    60    59    1
    99    60    63    1
   100    50    51    1
   101    53    52    2
   102    59    52   am
   103    52    51    1
   104    51    54    1
   105    64    63    1
   106    64    65    1
   107    67    66    1
   108    66    65    1
   109    54    55    1
   110     1     2    1
   111     2     3    1
   112     2     5    1
   113     3     4    2
   114     9     8    1
   115    55    56    1
   116     6     5    1
   117     6     7    1
   118    56    58   am
   119    56    57    2
   120     8     7    1
