@<TRIPOS>MOLECULE
tmp/5q1tA01.pdb
 111 106 0 0 0
SMALL
GASTEIGER

@<TRIPOS>ATOM
      1  N         -1.1310   15.1580   29.8120 N.3   141  THR141     -0.1218
      2  CA        -0.5560   15.9620   28.7150 C.3   141  THR141      0.1862
      3  C         -1.4760   15.9810   27.4930 C.2   141  THR141      0.2287
      4  O         -1.8060   17.0760   26.9820 O.2   141  THR141     -0.2866
      5  CB         0.8640   15.4840   28.3470 C.3   141  THR141      0.1770
      6  OG1        1.7510   15.6460   29.4690 O.3   141  THR141     -0.2211
      7  CG2        1.4570   16.2370   27.1940 C.3   141  THR141      0.0375
      8  N         -4.8280   14.7080   27.1580 N.3   143  CYS143     -0.1221
      9  CA        -6.1870   14.3180   27.5470 C.3   143  CYS143      0.1808
     10  C         -7.2710   15.0500   26.7650 C.2   143  CYS143      0.2601
     11  O         -8.0720   15.8370   27.3360 O.2   143  CYS143     -0.2717
     12  CB        -6.3890   14.5320   29.0690 C.3   143  CYS143      0.0970
     13  SG        -7.8940   13.8110   29.7420 S.3   143  CYS143     -0.0800
     14  N         -7.3250   14.7670   25.4590 N.am  144  SER144     -0.1952
     15  CA        -8.4390   15.2040   24.5850 C.3   144  SER144      0.1924
     16  C         -8.3820   14.3100   23.3210 C.2   144  SER144      0.2314
     17  O         -7.2940   13.9520   22.8730 O.2   144  SER144     -0.2863
     18  CB        -8.3450   16.6970   24.2540 C.3   144  SER144      0.2116
     19  OG        -9.5360   17.2440   23.6870 O.3   144  SER144     -0.2180
     20  N         -8.5550   14.6460   20.1710 N.3   146  GLU146     -0.1231
     21  CA        -7.8120   15.1190   19.0120 C.3   146  GLU146      0.1699
     22  C         -6.3910   14.6040   19.0000 C.2   146  GLU146      0.2592
     23  O         -5.7780   14.4990   17.9230 O.2   146  GLU146     -0.2718
     24  CB        -7.7870   16.6630   18.9340 C.3   146  GLU146      0.0402
     25  CG        -9.1590   17.3290   18.7860 C.3   146  GLU146      0.1161
     26  CD        -9.7850   17.7220   20.1100 C.2   146  GLU146      0.3649
     27  OE1       -9.4080   17.1190   21.1550 O.co2 146  GLU146     -0.2457
     28  OE2      -10.6650   18.6100   20.1040 O.co2 146  GLU146     -0.2457
     29  N         -5.8520   14.2940   20.1860 N.am  147  TYR147     -0.1976
     30  CA        -4.4780   13.8200   20.2870 C.3   147  TYR147      0.1639
     31  C         -4.3140   12.3270   19.9390 C.2   147  TYR147      0.2290
     32  O         -4.4720   11.4380   20.7980 O.2   147  TYR147     -0.2864
     33  CB        -3.8930   14.1510   21.6640 C.3   147  TYR147      0.0560
     34  CG        -3.9220   15.6380   22.0130 C.ar  147  TYR147     -0.0198
     35  CD1       -3.2080   16.5730   21.2520 C.ar  147  TYR147     -0.0009
     36  CD2       -4.6060   16.0950   23.1350 C.ar  147  TYR147     -0.0009
     37  CE1       -3.2130   17.9150   21.5810 C.ar  147  TYR147      0.0417
     38  CE2       -4.6230   17.4330   23.4720 C.ar  147  TYR147      0.0417
     39  CZ        -3.9220   18.3410   22.7000 C.ar  147  TYR147      0.1957
     40  OH        -3.9520   19.6800   23.0470 O.3   147  TYR147     -0.2866
     41  N          3.2890   15.1180   19.6100 N.3   265  TRP265     -0.1241
     42  CA         2.1480   15.3840   18.7350 C.3   265  TRP265      0.1605
     43  C          2.3070   16.7170   17.9640 C.2   265  TRP265      0.2264
     44  O          2.8010   17.7010   18.5080 O.2   265  TRP265     -0.2867
     45  CB         0.8570   15.4670   19.5770 C.3   265  TRP265      0.0550
     46  CG        -0.3720   15.8460   18.7810 C.ar  265  TRP265      0.0003
     47  CD1       -1.2250   14.9930   18.1050 C.ar  265  TRP265      0.0946
     48  CD2       -0.8890   17.1720   18.5790 C.ar  265  TRP265      0.0152
     49  NE1       -2.2260   15.7240   17.4950 N.ar  265  TRP265     -0.2442
     50  CE2       -2.0300   17.0550   17.7660 C.ar  265  TRP265      0.0810
     51  CE3       -0.4710   18.4530   18.9870 C.ar  265  TRP265      0.0012
     52  CZ2       -2.7900   18.1620   17.3870 C.ar  265  TRP265      0.0191
     53  CZ3       -1.2240   19.5570   18.5970 C.ar  265  TRP265      0.0001
     54  CH2       -2.3750   19.3940   17.8150 C.ar  265  TRP265      0.0015
     55  N         -0.3310   18.7900   14.7070 N.3   267  HIS267     -0.1241
     56  CA        -1.6170   18.8130   13.9840 C.3   267  HIS267      0.1621
     57  C         -1.6180   18.0580   12.6550 C.2   267  HIS267      0.2264
     58  O         -2.6750   17.5770   12.2310 O.2   267  HIS267     -0.2867
     59  CB        -2.0470   20.2730   13.7600 C.3   267  HIS267      0.0745
     60  CG        -3.3730   20.4260   13.0780 C.ar  267  HIS267      0.0817
     61  ND1       -4.5430   19.9320   13.6130 N.ar  267  HIS267     -0.2268
     62  CD2       -3.7170   21.0300   11.9150 C.ar  267  HIS267      0.1154
     63  CE1       -5.5520   20.2240   12.8110 C.ar  267  HIS267      0.1986
     64  NE2       -5.0800   20.8840   11.7680 N.ar  267  HIS267     -0.2212
     65  N         -3.5870   14.7630   12.3660 N.3   270  LYS270     -0.1245
     66  CA        -5.0100   14.8150   11.9680 C.3   270  LYS270      0.1561
     67  C         -5.2580   14.3360   10.5370 C.2   270  LYS270      0.2260
     68  O         -6.2510   13.6410   10.2670 O.2   270  LYS270     -0.2867
     69  CB        -5.5480   16.2450   12.0830 C.3   270  LYS270      0.0271
     70  CG        -5.7060   16.7670   13.4730 C.3   270  LYS270      0.0035
     71  CD        -6.8240   16.0650   14.2160 C.3   270  LYS270      0.0206
     72  CE        -8.1950   16.3490   13.6210 C.3   270  LYS270      0.1093
     73  NZ        -9.2530   15.8430   14.5480 N.3   270  LYS270     -0.1314
     74  N         -1.9330   20.6420   32.1780 N.3   318  ASN318     -0.1240
     75  CA        -3.0350   21.4370   31.5850 C.3   318  ASN318      0.1653
     76  C         -4.0090   21.9580   32.6520 C.2   318  ASN318      0.2266
     77  O         -5.2010   22.2180   32.3670 O.2   318  ASN318     -0.2867
     78  CB        -3.7910   20.6700   30.4910 C.3   318  ASN318      0.1155
     79  CG        -2.8660   20.1320   29.4040 C.2   318  ASN318      0.2627
     80  OD1       -2.1510   20.8860   28.7400 O.2   318  ASN318     -0.2716
     81  ND2       -2.8760   18.8300   29.2220 N.am  318  ASN318     -0.0877
     82  N        -11.0310   26.4080   31.1460 N.3   323  LYS323     -0.1231
     83  CA       -11.4960   25.5920   30.0120 C.3   323  LYS323      0.1693
     84  C        -10.8140   24.2130   29.9620 C.2   323  LYS323      0.2592
     85  O        -11.4960   23.1790   29.8070 O.2   323  LYS323     -0.2718
     86  CB       -11.3370   26.3400   28.6870 C.3   323  LYS323      0.0285
     87  CG       -11.9510   25.6110   27.5110 C.3   323  LYS323      0.0035
     88  CD       -11.7880   26.3350   26.1800 C.3   323  LYS323      0.0206
     89  CE       -12.3970   25.4730   25.0750 C.3   323  LYS323      0.1093
     90  NZ       -12.1120   25.9780   23.7100 N.3   323  LYS323     -0.1314
     91  N         -9.4810   24.2030   30.1000 N.am  324  SER324     -0.1952
     92  CA        -8.6820   22.9700   30.1320 C.3   324  SER324      0.1924
     93  C         -9.0890   22.0490   31.2770 C.2   324  SER324      0.2314
     94  O         -9.2920   20.8240   31.0590 O.2   324  SER324     -0.2863
     95  CB        -7.1490   23.3090   30.2010 C.3   324  SER324      0.2116
     96  OG        -6.7290   23.7280   28.9470 O.3   324  SER324     -0.2180
     97  N        -12.6610   20.6400   30.5700 N.3   327  THR327     -0.1203
     98  CA       -12.5910   19.5880   29.5290 C.3   327  THR327      0.1994
     99  C        -12.1340   18.2240   30.1300 C.2   327  THR327      0.2617
    100  O        -12.7390   17.1830   29.8760 O.2   327  THR327     -0.2717
    101  CB       -11.6960   20.0530   28.3450 C.3   327  THR327      0.1784
    102  OG1      -12.3350   21.1580   27.7110 O.3   327  THR327     -0.2211
    103  CG2      -11.4420   18.9360   27.3090 C.3   327  THR327      0.0376
    104  N        -11.0930   18.2340   30.9330 N.am  328  MET328     -0.1979
    105  CA       -10.5560   16.9830   31.5060 C.3   328  MET328      0.1605
    106  C        -11.5480   16.3200   32.4730 C.2   328  MET328      0.2287
    107  O        -11.7490   15.1000   32.4180 O.2   328  MET328     -0.2864
    108  CB        -9.2040   17.1980   32.1840 C.3   328  MET328      0.0413
    109  CG        -8.1060   17.6130   31.2090 C.3   328  MET328      0.0598
    110  SD        -6.4350   17.7480   31.9120 S.3   328  MET328     -0.1393
    111  CE        -6.6230   19.1390   33.0230 C.3   328  MET328      0.0692
@<TRIPOS>BOND
     1    68    67    2
     2    67    66    1
     3    64    62   ar
     4    64    63   ar
     5    62    60   ar
     6    66    69    1
     7    66    65    1
     8    69    70    1
     9    58    57    2
    10    57    56    1
    11    63    61   ar
    12    60    61   ar
    13    60    59    1
    14    70    71    1
    15    72    71    1
    16    72    73    1
    17    59    56    1
    18    56    55    1
    19    52    50   ar
    20    52    54   ar
    21    49    50   ar
    22    49    47   ar
    23    50    48   ar
    24    54    53   ar
    25    23    22    2
    26    43    44    2
    27    43    42    1
    28    47    46   ar
    29    48    46   ar
    30    48    51   ar
    31    53    51   ar
    32    42    45    1
    33    42    41    1
    34    46    45    1
    35    25    24    1
    36    25    26    1
    37    24    21    1
    38    22    21    1
    39    22    29   am
    40    21    20    1
    41    31    30    1
    42    31    32    2
    43    28    26   ar
    44    26    27   ar
    45    29    30    1
    46    30    33    1
    47    35    37   ar
    48    35    34   ar
    49    37    39   ar
    50    33    34    1
    51    34    36   ar
    52    39    40    1
    53    39    38   ar
    54    17    16    2
    55    36    38   ar
    56    16    15    1
    57    19    18    1
    58    90    89    1
    59    18    15    1
    60    15    14    1
    61    89    88    1
    62    14    10   am
    63    88    87    1
    64    10    11    2
    65    10     9    1
    66     4     3    2
    67     8     9    1
    68     7     5    1
    69   103   101    1
    70     3     2    1
    71    87    86    1
    72     9    12    1
    73   102   101    1
    74   101    98    1
    75     5     2    1
    76     5     6    1
    77    86    83    1
    78     2     1    1
    79    80    79    2
    80    96    95    1
    81    12    13    1
    82    81    79   am
    83    79    78    1
    84    98    99    1
    85    98    97    1
    86    85    84    2
    87   100    99    2
    88    84    83    1
    89    84    91   am
    90    83    82    1
    91    91    92    1
    92    99   104   am
    93    92    95    1
    94    92    93    1
    95    78    75    1
    96   104   105    1
    97    94    93    2
    98   109   110    1
    99   109   108    1
   100   105   108    1
   101   105   106    1
   102    75    74    1
   103    75    76    1
   104   110   111    1
   105    77    76    2
   106   107   106    2
