@<TRIPOS>MOLECULE
tmp/5q1uA01.pdb
 78 73 0 0 0
SMALL
GASTEIGER

@<TRIPOS>ATOM
      1  N         -1.4970   14.6740   29.5330 N.3   141  THR141     -0.1218
      2  CA        -0.9310   15.4640   28.4130 C.3   141  THR141      0.1862
      3  C         -1.8240   15.4380   27.1560 C.2   141  THR141      0.2287
      4  O         -2.1670   16.5270   26.6140 O.2   141  THR141     -0.2866
      5  CB         0.5130   14.9820   28.0450 C.3   141  THR141      0.1770
      6  OG1        1.3890   15.1280   29.1680 O.3   141  THR141     -0.2211
      7  CG2        1.0830   15.7980   26.8960 C.3   141  THR141      0.0375
      8  N         -5.1120   14.0790   26.8100 N.3   143  CYS143     -0.1221
      9  CA        -6.4780   13.7000   27.1890 C.3   143  CYS143      0.1808
     10  C         -7.5710   14.3580   26.3110 C.2   143  CYS143      0.2601
     11  O         -8.3980   15.1550   26.8070 O.2   143  CYS143     -0.2717
     12  CB        -6.7380   13.9980   28.6750 C.3   143  CYS143      0.0970
     13  SG        -8.2660   13.3070   29.3440 S.3   143  CYS143     -0.0800
     14  N         -7.5740   14.0140   25.0160 N.am  144  SER144     -0.1952
     15  CA        -8.5960   14.4650   24.0520 C.3   144  SER144      0.1924
     16  C         -8.6050   13.5010   22.8790 C.2   144  SER144      0.2314
     17  O         -7.5430   13.0660   22.4510 O.2   144  SER144     -0.2863
     18  CB        -8.3320   15.8970   23.5910 C.3   144  SER144      0.2116
     19  OG        -9.4840   16.4740   22.9780 O.3   144  SER144     -0.2180
     20  N         -8.8280   13.4600   19.6770 N.3   146  GLU146     -0.1231
     21  CA        -8.0340   13.6600   18.4500 C.3   146  GLU146      0.1699
     22  C         -6.6360   13.0680   18.5360 C.2   146  GLU146      0.2592
     23  O         -5.9920   12.8970   17.5010 O.2   146  GLU146     -0.2718
     24  CB        -7.9470   15.1200   18.0140 C.3   146  GLU146      0.0402
     25  CG        -7.2250   16.0430   18.9540 C.3   146  GLU146      0.1161
     26  CD        -8.1470   16.6860   19.9700 C.2   146  GLU146      0.3649
     27  OE1       -9.1860   16.1030   20.3800 O.co2 146  GLU146     -0.2457
     28  OE2       -7.8110   17.7960   20.3680 O.co2 146  GLU146     -0.2457
     29  N         -6.1500   12.7790   19.7460 N.am  147  TYR147     -0.1976
     30  CA        -4.8040   12.2530   19.9040 C.3   147  TYR147      0.1639
     31  C         -4.7480   10.7600   19.7420 C.2   147  TYR147      0.2290
     32  O         -4.8620   10.0000   20.7000 O.2   147  TYR147     -0.2864
     33  CB        -4.2120   12.7000   21.2390 C.3   147  TYR147      0.0560
     34  CG        -3.9870   14.1850   21.2740 C.ar  147  TYR147     -0.0198
     35  CD1       -3.1110   14.7960   20.3520 C.ar  147  TYR147     -0.0009
     36  CD2       -4.6440   14.9950   22.1920 C.ar  147  TYR147     -0.0009
     37  CE1       -2.8890   16.1540   20.3580 C.ar  147  TYR147      0.0417
     38  CE2       -4.4340   16.3700   22.2070 C.ar  147  TYR147      0.0417
     39  CZ        -3.5470   16.9390   21.2890 C.ar  147  TYR147      0.1957
     40  OH        -3.3340   18.2810   21.2970 O.3   147  TYR147     -0.2866
     41  N         -2.0950   20.1400   31.8460 N.3   309  ASN309     -0.1240
     42  CA        -3.2080   20.9550   31.3190 C.3   309  ASN309      0.1653
     43  C         -4.1220   21.5120   32.4380 C.2   309  ASN309      0.2266
     44  O         -5.3110   21.7540   32.2150 O.2   309  ASN309     -0.2867
     45  CB        -4.0360   20.2010   30.2640 C.3   309  ASN309      0.1155
     46  CG        -3.1870   19.6600   29.1290 C.2   309  ASN309      0.2627
     47  OD1       -2.4120   20.3930   28.5150 O.2   309  ASN309     -0.2716
     48  ND2       -3.3220   18.3770   28.8450 N.am  309  ASN309     -0.0877
     49  N        -11.1090   25.9960   31.0010 N.3   314  LYS314     -0.1231
     50  CA       -11.5930   25.1910   29.8570 C.3   314  LYS314      0.1693
     51  C        -10.9340   23.7970   29.7840 C.2   314  LYS314      0.2592
     52  O        -11.6320   22.7930   29.5970 O.2   314  LYS314     -0.2718
     53  CB       -11.3830   25.9370   28.5320 C.3   314  LYS314      0.0285
     54  CG       -12.0290   25.2840   27.3140 C.3   314  LYS314      0.0035
     55  CD       -11.8690   26.1530   26.0610 C.3   314  LYS314      0.0206
     56  CE       -11.9250   25.3310   24.7740 C.3   314  LYS314      0.1093
     57  NZ       -11.2080   25.9700   23.6150 N.3   314  LYS314     -0.1314
     58  N         -9.6100   23.7480   29.9530 N.am  315  SER315     -0.1952
     59  CA        -8.8770   22.4730   29.9710 C.3   315  SER315      0.1924
     60  C         -9.3300   21.5730   31.1150 C.2   315  SER315      0.2314
     61  O         -9.5380   20.3510   30.9350 O.2   315  SER315     -0.2863
     62  CB        -7.3530   22.7030   30.0820 C.3   315  SER315      0.2116
     63  OG        -6.8960   23.3340   28.9310 O.3   315  SER315     -0.2180
     64  N        -12.8610   20.2090   30.3720 N.3   318  THR318     -0.1203
     65  CA       -12.7770   19.2010   29.3150 C.3   318  THR318      0.1994
     66  C        -12.3570   17.8400   29.8900 C.2   318  THR318      0.2617
     67  O        -12.9750   16.7970   29.5970 O.2   318  THR318     -0.2717
     68  CB       -11.7800   19.6550   28.2040 C.3   318  THR318      0.1784
     69  OG1      -12.3140   20.7940   27.5260 O.3   318  THR318     -0.2211
     70  CG2      -11.4970   18.5480   27.1920 C.3   318  THR318      0.0376
     71  N        -11.2970   17.8420   30.6880 N.am  319  MET319     -0.1979
     72  CA       -10.7770   16.5830   31.2730 C.3   319  MET319      0.1605
     73  C        -11.8120   15.9520   32.2100 C.2   319  MET319      0.2287
     74  O        -12.0440   14.7540   32.1400 O.2   319  MET319     -0.2864
     75  CB        -9.4410   16.7710   32.0120 C.3   319  MET319      0.0413
     76  CG        -8.2990   17.1190   31.0780 C.3   319  MET319      0.0598
     77  SD        -6.6600   17.3350   31.8070 S.3   319  MET319     -0.1393
     78  CE        -6.8870   18.8060   32.8300 C.3   319  MET319      0.0692
@<TRIPOS>BOND
     1    23    22    2
     2    24    21    1
     3    24    25    1
     4    21    22    1
     5    21    20    1
     6    22    29   am
     7    25    26    1
     8    31    30    1
     9    31    32    2
    10    29    30    1
    11    30    33    1
    12    26    28   ar
    13    26    27   ar
    14    35    37   ar
    15    35    34   ar
    16    37    39   ar
    17    33    34    1
    18    34    36   ar
    19    39    40    1
    20    39    38   ar
    21    36    38   ar
    22    17    16    2
    23    16    15    1
    24    19    18    1
    25    18    15    1
    26    57    56    1
    27    15    14    1
    28    56    55    1
    29    14    10   am
    30    55    54    1
    31    10    11    2
    32    10     9    1
    33     4     3    2
    34     8     9    1
    35     7     5    1
    36     3     2    1
    37     9    12    1
    38    70    68    1
    39    54    53    1
    40    69    68    1
    41     5     2    1
    42     5     6    1
    43    68    65    1
    44     2     1    1
    45    47    46    2
    46    53    50    1
    47    12    13    1
    48    48    46   am
    49    63    62    1
    50    46    45    1
    51    65    66    1
    52    65    64    1
    53    52    51    2
    54    67    66    2
    55    51    50    1
    56    51    58   am
    57    50    49    1
    58    66    71   am
    59    58    59    1
    60    59    62    1
    61    59    60    1
    62    45    42    1
    63    71    72    1
    64    61    60    2
    65    76    77    1
    66    76    75    1
    67    72    75    1
    68    72    73    1
    69    42    41    1
    70    42    43    1
    71    77    78    1
    72    74    73    2
    73    44    43    2
