@<TRIPOS>MOLECULE
tmp/5q1vA01.pdb
 99 95 0 0 0
SMALL
GASTEIGER

@<TRIPOS>ATOM
      1  N         -2.0280   13.8380   32.2100 N.3   140  THR140     -0.1203
      2  CA        -3.1120   14.1620   31.2880 C.3   140  THR140      0.1994
      3  C         -2.6490   15.0030   30.0700 C.2   140  THR140      0.2618
      4  O         -3.4800   15.6910   29.4470 O.2   140  THR140     -0.2717
      5  CB        -4.2120   14.9330   32.0660 C.3   140  THR140      0.1784
      6  OG1       -3.6100   15.9370   32.8750 O.3   140  THR140     -0.2211
      7  CG2       -4.9920   14.0290   33.0110 C.3   140  THR140      0.0376
      8  N         -1.3600   14.8970   29.6910 N.am  141  THR141     -0.1952
      9  CA        -0.7770   15.6630   28.5600 C.3   141  THR141      0.1897
     10  C         -1.7130   15.6640   27.3230 C.2   141  THR141      0.2313
     11  O         -2.0320   16.7560   26.7890 O.2   141  THR141     -0.2863
     12  CB         0.6340   15.1340   28.1950 C.3   141  THR141      0.1794
     13  OG1        1.5300   15.3020   29.3130 O.3   141  THR141     -0.2208
     14  CG2        1.2060   15.8660   27.0030 C.3   141  THR141      0.0378
     15  N         -5.0520   14.3900   27.0080 N.3   143  CYS143     -0.1221
     16  CA        -6.4170   14.0110   27.4030 C.3   143  CYS143      0.1808
     17  C         -7.4980   14.7360   26.5690 C.2   143  CYS143      0.2601
     18  O         -8.2910   15.5530   27.1060 O.2   143  CYS143     -0.2717
     19  CB        -6.6440   14.2560   28.8900 C.3   143  CYS143      0.0970
     20  SG        -8.2160   13.6130   29.5700 S.3   143  CYS143     -0.0800
     21  N         -7.5610   14.3880   25.2750 N.am  144  SER144     -0.1952
     22  CA        -8.6240   14.8570   24.3570 C.3   144  SER144      0.1924
     23  C         -8.5870   13.9290   23.1350 C.2   144  SER144      0.2314
     24  O         -7.5000   13.5400   22.7050 O.2   144  SER144     -0.2863
     25  CB        -8.4070   16.3300   23.9780 C.3   144  SER144      0.2116
     26  OG        -9.5560   16.8930   23.3630 O.3   144  SER144     -0.2180
     27  N         -8.8460   14.1320   19.9350 N.3   146  GLU146     -0.1231
     28  CA        -8.0450   14.5080   18.7620 C.3   146  GLU146      0.1699
     29  C         -6.6160   13.9620   18.8280 C.2   146  GLU146      0.2592
     30  O         -6.0370   13.6310   17.7870 O.2   146  GLU146     -0.2718
     31  CB        -8.0330   16.0270   18.4990 C.3   146  GLU146      0.0402
     32  CG        -7.2660   16.9210   19.4810 C.3   146  GLU146      0.1161
     33  CD        -8.1140   17.4190   20.6360 C.2   146  GLU146      0.3649
     34  OE1       -9.0650   16.7060   21.0250 O.co2 146  GLU146     -0.2457
     35  OE2       -7.8290   18.5160   21.1660 O.co2 146  GLU146     -0.2457
     36  N         -6.0650   13.8160   20.0370 N.am  147  TYR147     -0.1976
     37  CA        -4.6940   13.3530   20.1670 C.3   147  TYR147      0.1639
     38  C         -4.5540   11.8570   19.8490 C.2   147  TYR147      0.2290
     39  O         -4.7400   10.9800   20.7030 O.2   147  TYR147     -0.2864
     40  CB        -4.1210   13.7200   21.5320 C.3   147  TYR147      0.0560
     41  CG        -4.0540   15.2120   21.8590 C.ar  147  TYR147     -0.0198
     42  CD1       -3.2560   16.1130   21.0970 C.ar  147  TYR147     -0.0009
     43  CD2       -4.7420   15.7320   22.9610 C.ar  147  TYR147     -0.0009
     44  CE1       -3.1620   17.4830   21.4320 C.ar  147  TYR147      0.0417
     45  CE2       -4.6630   17.0880   23.2980 C.ar  147  TYR147      0.0417
     46  CZ        -3.8710   17.9660   22.5580 C.ar  147  TYR147      0.1957
     47  OH        -3.8400   19.3190   22.9460 O.3   147  TYR147     -0.2866
     48  N          2.9620   14.7620   19.3500 N.3   265  TRP265     -0.1241
     49  CA         1.8360   15.0430   18.4590 C.3   265  TRP265      0.1605
     50  C          2.0080   16.3940   17.7570 C.2   265  TRP265      0.2264
     51  O          2.4910   17.3480   18.3730 O.2   265  TRP265     -0.2867
     52  CB         0.5580   15.1230   19.3080 C.3   265  TRP265      0.0550
     53  CG        -0.6670   15.4840   18.5460 C.ar  265  TRP265      0.0003
     54  CD1       -1.5230   14.6120   17.9360 C.ar  265  TRP265      0.0946
     55  CD2       -1.2240   16.8040   18.3410 C.ar  265  TRP265      0.0152
     56  NE1       -2.5500   15.2980   17.3270 N.ar  265  TRP265     -0.2442
     57  CE2       -2.4050   16.6400   17.5750 C.ar  265  TRP265      0.0810
     58  CE3       -0.8370   18.1010   18.7230 C.ar  265  TRP265      0.0012
     59  CZ2       -3.2110   17.7270   17.1890 C.ar  265  TRP265      0.0191
     60  CZ3       -1.6240   19.1830   18.3150 C.ar  265  TRP265      0.0001
     61  CH2       -2.8020   18.9860   17.5700 C.ar  265  TRP265      0.0015
     62  N         -1.9900   20.3390   32.0370 N.3   318  ASN318     -0.1240
     63  CA        -3.0750   21.1720   31.4970 C.3   318  ASN318      0.1653
     64  C         -4.0420   21.6970   32.5910 C.2   318  ASN318      0.2266
     65  O         -5.2250   21.9560   32.3130 O.2   318  ASN318     -0.2867
     66  CB        -3.8490   20.4480   30.4000 C.3   318  ASN318      0.1155
     67  CG        -2.9430   19.9120   29.3010 C.2   318  ASN318      0.2627
     68  OD1       -2.1550   20.6510   28.7310 O.2   318  ASN318     -0.2716
     69  ND2       -3.0650   18.6200   28.9920 N.am  318  ASN318     -0.0877
     70  N        -10.9860   26.1560   31.0090 N.3   323  LYS323     -0.1231
     71  CA       -11.5060   25.3720   29.8860 C.3   323  LYS323      0.1693
     72  C        -10.8720   23.9730   29.8300 C.2   323  LYS323      0.2592
     73  O        -11.5900   22.9850   29.6670 O.2   323  LYS323     -0.2718
     74  CB       -11.3420   26.1120   28.5690 C.3   323  LYS323      0.0285
     75  CG       -12.0320   25.4380   27.3970 C.3   323  LYS323      0.0035
     76  CD       -11.9700   26.2980   26.1420 C.3   323  LYS323      0.0206
     77  CE       -12.4240   25.5180   24.9180 C.3   323  LYS323      0.1093
     78  NZ       -11.8400   26.0680   23.6610 N.3   323  LYS323     -0.1314
     79  N         -9.5490   23.9020   29.9970 N.am  324  SER324     -0.1952
     80  CA        -8.8160   22.6200   30.0450 C.3   324  SER324      0.1924
     81  C         -9.2490   21.7230   31.1840 C.2   324  SER324      0.2314
     82  O         -9.4320   20.4840   31.0130 O.2   324  SER324     -0.2863
     83  CB        -7.2800   22.8460   30.1450 C.3   324  SER324      0.2116
     84  OG        -6.8480   23.2340   28.9030 O.3   324  SER324     -0.2180
     85  N        -12.8480   20.4360   30.4630 N.3   327  THR327     -0.1203
     86  CA       -12.7780   19.3960   29.4110 C.3   327  THR327      0.1994
     87  C        -12.3300   18.0290   30.0020 C.2   327  THR327      0.2617
     88  O        -12.9560   16.9680   29.7370 O.2   327  THR327     -0.2717
     89  CB       -11.8510   19.8850   28.2840 C.3   327  THR327      0.1784
     90  OG1      -12.4880   20.9850   27.6170 O.3   327  THR327     -0.2211
     91  CG2      -11.5180   18.7850   27.2700 C.3   327  THR327      0.0376
     92  N        -11.2610   18.0360   30.7790 N.am  328  MET328     -0.1979
     93  CA       -10.7470   16.7890   31.3760 C.3   328  MET328      0.1605
     94  C        -11.7500   16.1490   32.3450 C.2   328  MET328      0.2287
     95  O        -11.9610   14.9320   32.2950 O.2   328  MET328     -0.2864
     96  CB        -9.3930   16.9920   32.0900 C.3   328  MET328      0.0413
     97  CG        -8.2730   17.3680   31.1320 C.3   328  MET328      0.0598
     98  SD        -6.6140   17.5280   31.8520 S.3   328  MET328     -0.1393
     99  CE        -6.7970   18.9270   32.9660 C.3   328  MET328      0.0692
@<TRIPOS>BOND
     1    59    61   ar
     2    59    57   ar
     3    56    57   ar
     4    56    54   ar
     5    61    60   ar
     6    57    55   ar
     7    50    51    2
     8    50    49    1
     9    30    29    2
    10    54    53   ar
    11    60    58   ar
    12    55    53   ar
    13    55    58   ar
    14    49    52    1
    15    49    48    1
    16    31    28    1
    17    31    32    1
    18    53    52    1
    19    28    29    1
    20    28    27    1
    21    29    36   am
    22    32    33    1
    23    38    37    1
    24    38    39    2
    25    36    37    1
    26    37    40    1
    27    33    34   ar
    28    33    35   ar
    29    42    44   ar
    30    42    41   ar
    31    44    46   ar
    32    40    41    1
    33    41    43   ar
    34    46    47    1
    35    46    45   ar
    36    24    23    2
    37    43    45   ar
    38    23    22    1
    39    26    25    1
    40    78    77    1
    41    25    22    1
    42    22    21    1
    43    77    76    1
    44    21    17   am
    45    76    75    1
    46    17    18    2
    47    17    16    1
    48    11    10    2
    49    14    12    1
    50    15    16    1
    51    91    89    1
    52    10     9    1
    53    75    74    1
    54    16    19    1
    55    90    89    1
    56    12     9    1
    57    12    13    1
    58    89    86    1
    59     9     8    1
    60    74    71    1
    61    68    67    2
    62    19    20    1
    63    84    83    1
    64    69    67   am
    65    67    66    1
    66    86    87    1
    67    86    85    1
    68     4     3    2
    69    73    72    2
    70     8     3   am
    71    88    87    2
    72    72    71    1
    73    72    79   am
    74    71    70    1
    75    79    80    1
    76    87    92   am
    77    80    83    1
    78    80    81    1
    79     3     2    1
    80    66    63    1
    81    92    93    1
    82    82    81    2
    83    97    98    1
    84    97    96    1
    85     2     5    1
    86     2     1    1
    87    93    96    1
    88    93    94    1
    89    63    62    1
    90    63    64    1
    91    98    99    1
    92     5     6    1
    93     5     7    1
    94    95    94    2
    95    65    64    2
