@<TRIPOS>MOLECULE
tmp/5q1wA01.pdb
 101 95 0 0 0
SMALL
GASTEIGER

@<TRIPOS>ATOM
      1  N         18.8720    4.8270   37.5480 N.3    55  ILE55      -0.1245
      2  CA        19.2020    5.7150   36.4090 C.3    55  ILE55       0.1561
      3  C         19.0500    7.2170   36.7130 C.2    55  ILE55       0.2260
      4  O         19.9550    8.0120   36.4240 O.2    55  ILE55      -0.2867
      5  CB        18.4320    5.3090   35.1250 C.3    55  ILE55       0.0252
      6  CG1       18.9750    4.0040   34.5580 C.3    55  ILE55       0.0019
      7  CG2       18.5270    6.3820   34.0570 C.3    55  ILE55       0.0019
      8  CD1       17.9930    3.3250   33.6360 C.3    55  ILE55       0.0001
      9  N          7.9820    0.8610   36.3650 N.3    91  ASP91      -0.1239
     10  CA         8.4080    1.4890   35.1030 C.3    91  ASP91       0.1674
     11  C          7.2390    2.2710   34.4450 C.2    91  ASP91       0.2266
     12  O          6.0940    1.7750   34.3650 O.2    91  ASP91      -0.2867
     13  CB         8.9110    0.4420   34.1020 C.3    91  ASP91       0.1410
     14  CG         9.6170    1.0860   32.9000 C.2    91  ASP91       0.3668
     15  OD1       10.8360    1.3150   32.9760 O.co2  91  ASP91      -0.2456
     16  OD2        8.9550    1.3330   31.8840 O.co2  91  ASP91      -0.2456
     17  N         14.3140    6.9320   29.8030 N.3    96  PRO96      -0.2102
     18  CA        15.0670    6.0590   30.7020 C.3    96  PRO96       0.1504
     19  C         15.0800    6.5310   32.1710 C.2    96  PRO96       0.2576
     20  O         15.1870    7.7340   32.4510 O.2    96  PRO96      -0.2718
     21  CB        16.4860    6.0810   30.0900 C.3    96  PRO96       0.0282
     22  CG        16.2750    6.4270   28.6360 C.3    96  PRO96       0.0208
     23  CD        15.1310    7.4100   28.6630 C.3    96  PRO96       0.0893
     24  N         14.8540    5.5830   33.0780 N.am   97  GLY97      -0.1957
     25  CA        14.7700    5.8520   34.4900 C.3    97  GLY97       0.1869
     26  C         13.4640    6.4000   35.0430 C.2    97  GLY97       0.2309
     27  O         13.3710    6.6040   36.2840 O.2    97  GLY97      -0.2863
     28  N         15.6050    7.5100   22.5670 N.3   185  GLU185     -0.1231
     29  CA        16.9320    7.0260   22.1340 C.3   185  GLU185      0.1699
     30  C         16.7960    5.9900   21.0230 C.2   185  GLU185      0.2592
     31  O         17.6640    5.9100   20.1340 O.2   185  GLU185     -0.2718
     32  CB        17.6980    6.4210   23.3080 C.3   185  GLU185      0.0402
     33  CG        18.2790    7.4360   24.2780 C.3   185  GLU185      0.1161
     34  CD        17.3060    8.0400   25.2780 C.2   185  GLU185      0.3649
     35  OE1       16.1460    7.5470   25.3950 O.co2 185  GLU185     -0.2457
     36  OE2       17.6840    9.0610   25.9250 O.co2 185  GLU185     -0.2457
     37  N         15.7150    5.2050   21.0540 N.am  186  LYS186     -0.1980
     38  CA        15.4610    4.1970   20.0250 C.3   186  LYS186      0.1596
     39  C         15.5230    4.7500   18.5940 C.2   186  LYS186      0.2287
     40  O         15.9230    4.0380   17.6710 O.2   186  LYS186     -0.2864
     41  CB        14.1040    3.5140   20.2650 C.3   186  LYS186      0.0298
     42  CG        13.8630    2.2520   19.4720 C.3   186  LYS186      0.0038
     43  CD        14.7730    1.0960   19.8690 C.3   186  LYS186      0.0206
     44  CE        14.3420   -0.1420   19.0950 C.3   186  LYS186      0.1093
     45  NZ        15.3120   -1.2480   19.2750 N.3   186  LYS186     -0.1314
     46  N         19.2970    5.0870   17.7460 N.3   189  LEU189     -0.1245
     47  CA        19.9840    3.7880   17.8700 C.3   189  LEU189      0.1561
     48  C         19.5530    2.7540   16.8150 C.2   189  LEU189      0.2260
     49  O         20.4150    2.0010   16.2640 O.2   189  LEU189     -0.2867
     50  CB        19.8230    3.2280   19.2710 C.3   189  LEU189      0.0270
     51  CG        20.4310    4.0640   20.4090 C.3   189  LEU189      0.0019
     52  CD1       20.0130    3.4180   21.7160 C.3   189  LEU189      0.0001
     53  CD2       21.9500    4.2290   20.3730 C.3   189  LEU189      0.0001
     54  N         22.6510    5.6940   31.4910 N.3   212  LEU212     -0.1231
     55  CA        21.3080    5.1250   31.2790 C.3   212  LEU212      0.1693
     56  C         21.1640    3.5870   31.3720 C.2   212  LEU212      0.2592
     57  O         20.0890    3.0530   31.0700 O.2   212  LEU212     -0.2718
     58  CB        20.7530    5.6160   29.9270 C.3   212  LEU212      0.0284
     59  CG        20.7850    7.1290   29.6460 C.3   212  LEU212      0.0019
     60  CD1       20.1760    7.4240   28.2780 C.3   212  LEU212      0.0001
     61  CD2       20.0930    7.9600   30.7230 C.3   212  LEU212      0.0001
     62  N         22.2060    2.8840   31.8080 N.am  213  ASN213     -0.1960
     63  CA        22.2000    1.4100   31.8390 C.3   213  ASN213      0.1819
     64  C         21.6530    0.7430   30.5560 C.2   213  ASN213      0.2621
     65  O         20.8750   -0.2060   30.6340 O.2   213  ASN213     -0.2715
     66  CB        21.4070    0.9060   33.0590 C.3   213  ASN213      0.1195
     67  CG        22.0000    1.3610   34.3690 C.2   213  ASN213      0.2630
     68  OD1       23.0950    1.9240   34.4120 O.2   213  ASN213     -0.2716
     69  ND2       21.2880    1.1150   35.4520 N.am  213  ASN213     -0.0877
     70  N         22.0530    1.2460   29.3850 N.am  214  ILE214     -0.1964
     71  CA        21.7170    0.6110   28.1110 C.3   214  ILE214      0.1712
     72  C         22.7450   -0.4960   27.8700 C.2   214  ILE214      0.2458
     73  O         23.9430   -0.2060   27.8180 O.2   214  ILE214     -0.2730
     74  CB        21.7000    1.6240   26.9340 C.3   214  ILE214      0.0289
     75  CG1       20.5320    2.6070   27.1090 C.3   214  ILE214      0.0022
     76  CG2       21.5450    0.9020   25.5960 C.3   214  ILE214      0.0023
     77  CD1       20.6350    3.8720   26.2810 C.3   214  ILE214      0.0001
     78  N         22.2920   -1.7680   27.7560 N.am  215  PRO215     -0.2716
     79  CA        23.1860   -2.8810   27.4220 C.3   215  PRO215      0.1536
     80  C         24.0290   -2.6620   26.1640 C.2   215  PRO215      0.2598
     81  O         23.5220   -2.1490   25.1610 O.2   215  PRO215     -0.2715
     82  CB        22.2260   -4.0360   27.2010 C.3   215  PRO215      0.0310
     83  CG        21.1050   -3.7560   28.1330 C.3   215  PRO215      0.0237
     84  CD        20.9520   -2.2640   28.1370 C.3   215  PRO215      0.0939
     85  N         25.3010   -3.0570   26.2470 N.am  216  GLU216     -0.1978
     86  CA        26.2830   -2.9330   25.1550 C.3   216  GLU216      0.1597
     87  C         26.4550   -1.5070   24.5930 C.2   216  GLU216      0.2287
     88  O         26.8260   -1.3490   23.4340 O.2   216  GLU216     -0.2864
     89  CB        25.9470   -3.9140   24.0190 C.3   216  GLU216      0.0319
     90  CG        21.7900   -2.9310   23.0560 C.3   216  GLU216      0.1258
     91  CD        20.3050   -3.0870   22.8620 C.2   216  GLU216      0.3654
     92  OE1       19.5620   -3.1580   23.8820 O.co2 216  GLU216     -0.2456
     93  OE2       19.9000   -3.1400   21.6720 O.co2 216  GLU216     -0.2456
     94  N         27.7650    1.0710   20.7210 N.3   220  LEU220     -0.1245
     95  CA        26.7490    1.8150   19.9550 C.3   220  LEU220      0.1561
     96  C         27.0170    3.3080   19.6930 C.2   220  LEU220      0.2260
     97  O         26.4700    3.8350   18.7290 O.2   220  LEU220     -0.2867
     98  CB        25.3710    1.6700   20.6200 C.3   220  LEU220      0.0270
     99  CG        24.9110    0.2650   21.0390 C.3   220  LEU220      0.0019
    100  CD1       23.5150    0.3340   21.6400 C.3   220  LEU220      0.0001
    101  CD2       24.9440   -0.7460   19.8990 C.3   220  LEU220      0.0001
@<TRIPOS>BOND
     1    49    48    2
     2    48    47    1
     3    40    39    2
     4    46    47    1
     5    47    50    1
     6    39    38    1
     7    97    96    2
     8    44    45    1
     9    44    43    1
    10    50    51    1
    11    42    43    1
    12    42    41    1
    13    96    95    1
    14   101    99    1
    15    95    98    1
    16    95    94    1
    17    38    41    1
    18    38    37    1
    19    31    30    2
    20    53    51    1
    21    51    52    1
    22    98    99    1
    23    30    37   am
    24    30    29    1
    25    99   100    1
    26    93    91   ar
    27    29    28    1
    28    29    32    1
    29    91    90    1
    30    91    92   ar
    31    32    33    1
    32    88    87    2
    33    89    86    1
    34    33    34    1
    35    87    86    1
    36    86    85    1
    37    81    80    2
    38    34    35   ar
    39    34    36   ar
    40    76    74    1
    41    80    85   am
    42    80    79    1
    43    77    75    1
    44    74    75    1
    45    74    71    1
    46    82    79    1
    47    82    83    1
    48    79    78    1
    49    78    72   am
    50    78    84    1
    51    73    72    2
    52    72    71    1
    53    71    70    1
    54    83    84    1
    55    60    59    1
    56    22    23    1
    57    22    21    1
    58    23    17    1
    59    70    64   am
    60    59    58    1
    61    59    61    1
    62    17    18    1
    63    58    55    1
    64    21    18    1
    65    64    65    2
    66    64    63    1
    67    18    19    1
    68    57    56    2
    69    55    56    1
    70    55    54    1
    71    56    62   am
    72    62    63    1
    73    63    66    1
    74    16    14   ar
    75    19    20    2
    76    19    24   am
    77    14    15   ar
    78    14    13    1
    79    66    67    1
    80    24    25    1
    81     8     6    1
    82     7     5    1
    83    13    10    1
    84    12    11    2
    85    67    68    2
    86    67    69   am
    87    11    10    1
    88    25    26    1
    89     6     5    1
    90    26    27    2
    91    10     9    1
    92     5     2    1
    93     2     3    1
    94     2     1    1
    95     4     3    2
