@<TRIPOS>MOLECULE
tmp/5q1xA02.pdb
 115 115 0 0 0
SMALL
GASTEIGER

@<TRIPOS>ATOM
      1  N         -7.2180    3.9600   32.7220 N.3   305  VAL305     -0.1231
      2  CA        -8.0410    4.4710   33.8150 C.3   305  VAL305      0.1692
      3  C         -9.3070    3.6190   34.0220 C.2   305  VAL305      0.2591
      4  O         -9.6810    3.3430   35.1750 O.2   305  VAL305     -0.2718
      5  CB        -8.3660    5.9740   33.6120 C.3   305  VAL305      0.0266
      6  CG1       -9.3760    6.4960   34.6420 C.3   305  VAL305      0.0020
      7  CG2       -7.0770    6.7850   33.6770 C.3   305  VAL305      0.0020
      8  N         -9.9530    3.2000   32.9240 N.am  306  GLN306     -0.1979
      9  CA       -11.1380    2.3200   33.0210 C.3   306  GLN306      0.1601
     10  C        -10.8080    0.9460   33.6160 C.2   306  GLN306      0.2287
     11  O        -11.6770    0.3560   34.2640 O.2   306  GLN306     -0.2864
     12  CB       -11.8520    2.1770   31.6660 C.3   306  GLN306      0.0394
     13  CG       -12.5740    3.4520   31.2430 C.3   306  GLN306      0.0908
     14  CD       -13.3530    3.3210   29.9370 C.2   306  GLN306      0.2608
     15  OE1      -12.8360    2.8070   28.9460 O.2   306  GLN306     -0.2717
     16  NE2      -14.6000    3.8090   29.9200 N.am  306  GLN306     -0.0878
     17  N         -9.8890    1.8170   37.6920 N.3   309  LYS309     -0.1231
     18  CA       -11.0980    2.1750   38.4490 C.3   309  LYS309      0.1678
     19  C        -10.8000    2.9600   39.7470 C.2   309  LYS309      0.2434
     20  O        -11.2210    2.5590   40.8430 O.2   309  LYS309     -0.2733
     21  CB       -11.9760    0.9320   38.7120 C.3   309  LYS309      0.0284
     22  CG       -12.3830    0.1900   37.4410 C.3   309  LYS309      0.0035
     23  CD       -13.2200   -1.0540   37.7100 C.3   309  LYS309      0.0206
     24  CE       -13.9790   -1.5120   36.4680 C.3   309  LYS309      0.1093
     25  NZ       -13.1090   -1.9440   35.3340 N.3   309  LYS309     -0.1314
     26  N        -10.0770    4.0970   39.6240 N.am  310  PRO310     -0.2718
     27  CA        -9.7660    4.9030   40.8100 C.3   310  PRO310      0.1535
     28  C        -10.9970    5.6170   41.3660 C.2   310  PRO310      0.2598
     29  O        -11.9400    5.8670   40.6270 O.2   310  PRO310     -0.2715
     30  CB        -8.7410    5.9070   40.2780 C.3   310  PRO310      0.0310
     31  CG        -9.1640    6.1180   38.8640 C.3   310  PRO310      0.0237
     32  CD        -9.5840    4.7500   38.3920 C.3   310  PRO310      0.0939
     33  N        -10.9970    5.9370   42.6590 N.am  311  GLN311     -0.1964
     34  CA       -12.1250    6.6780   43.2430 C.3   311  GLN311      0.1733
     35  C        -12.0720    8.1730   42.9250 C.2   311  GLN311      0.2616
     36  O        -13.1220    8.8110   42.7990 O.2   311  GLN311     -0.2715
     37  CB       -12.2180    6.4580   44.7550 C.3   311  GLN311      0.0408
     38  CG       -12.6450    5.0500   45.1420 C.3   311  GLN311      0.0908
     39  CD       -12.8210    4.8850   46.6380 C.2   311  GLN311      0.2608
     40  OE1      -12.4040    5.7360   47.4200 O.2   311  GLN311     -0.2717
     41  NE2      -13.4400    3.7880   47.0430 N.am  311  GLN311     -0.0878
     42  N        -10.8570    8.7190   42.7990 N.am  312  LYS312     -0.1963
     43  CA       -10.6300   10.1400   42.5060 C.3   312  LYS312      0.1728
     44  C         -9.4250   10.2780   41.5750 C.2   312  LYS312      0.2616
     45  O         -8.4280    9.5400   41.7310 O.2   312  LYS312     -0.2715
     46  CB       -10.3510   10.9090   43.8000 C.3   312  LYS312      0.0311
     47  CG       -10.2000   12.4210   43.6170 C.3   312  LYS312      0.0038
     48  CD       -10.2840   13.1200   44.9940 C.3   312  LYS312      0.0206
     49  CE       -10.7560   14.5620   44.9400 C.3   312  LYS312      0.1093
     50  NZ        -9.7900   15.4110   44.1730 N.3   312  LYS312     -0.1314
     51  N         -9.5150   11.2270   40.6330 N.am  313  ILE313     -0.1977
     52  CA        -8.4100   11.5510   39.7160 C.3   313  ILE313      0.1596
     53  C         -7.9850   13.0080   39.9100 C.2   313  ILE313      0.2287
     54  O         -8.8480   13.9070   39.9140 O.2   313  ILE313     -0.2864
     55  CB        -8.8020   11.2960   38.2350 C.3   313  ILE313      0.0276
     56  CG1       -9.2610    9.8450   38.0480 C.3   313  ILE313      0.0022
     57  CG2       -7.6530   11.6540   37.2910 C.3   313  ILE313      0.0022
     58  CD1       -9.7860    9.5500   36.6630 C.3   313  ILE313      0.0001
     59  N        -13.3810   12.3650   32.2720 N.3   332  PHE332     -0.1227
     60  CA       -13.3050   11.3980   33.3780 C.3   332  PHE332      0.1736
     61  C        -14.7080   10.8850   33.7390 C.2   332  PHE332      0.2595
     62  O        -14.8860    9.6810   34.0220 O.2   332  PHE332     -0.2718
     63  CB       -12.6370   11.9620   34.6400 C.3   332  PHE332      0.0547
     64  CG       -11.2400   12.5290   34.4370 C.ar  332  PHE332     -0.0202
     65  CD1      -10.3360   11.9990   33.4990 C.ar  332  PHE332     -0.0042
     66  CD2      -10.8050   13.5820   35.2460 C.ar  332  PHE332     -0.0042
     67  CE1       -9.0580   12.5470   33.3570 C.ar  332  PHE332     -0.0003
     68  CE2       -9.5410   14.1320   35.0930 C.ar  332  PHE332     -0.0003
     69  CZ        -8.6700   13.6150   34.1480 C.ar  332  PHE332     -0.0000
     70  N        -15.7050   11.7840   33.7310 N.am  333  ARG333     -0.1980
     71  CA       -17.0950   11.3740   34.0180 C.3   333  ARG333      0.1597
     72  C        -17.6740   10.4620   32.9370 C.2   333  ARG333      0.2287
     73  O        -18.3740    9.5020   33.2660 O.2   333  ARG333     -0.2864
     74  CB       -18.0100   12.5790   34.2640 C.3   333  ARG333      0.0334
     75  CG       -19.4370   12.1940   34.6810 C.3   333  ARG333      0.0492
     76  CD       -19.5200   11.3770   35.9790 C.3   333  ARG333      0.2205
     77  NE       -18.9450   12.1040   37.1220 N.pl3 333  ARG333     -0.0865
     78  CZ       -19.0620   11.7670   38.4110 C.cat 333  ARG333      0.5346
     79  NH1      -18.4740   12.5270   39.3350 N.pl3 333  ARG333      0.1354
     80  NH2      -19.7590   10.6990   38.7990 N.pl3 333  ARG333      0.1354
     81  N        -15.9100    8.3710   31.1060 N.3   335  TRP335     -0.1227
     82  CA       -15.2230    7.0730   31.2840 C.3   335  TRP335      0.1737
     83  C        -15.8250    6.2790   32.4380 C.2   335  TRP335      0.2595
     84  O        -16.0580    5.0670   32.3180 O.2   335  TRP335     -0.2718
     85  CB       -13.7060    7.2480   31.5200 C.3   335  TRP335      0.0564
     86  CG       -12.9330    7.9980   30.4570 C.ar  335  TRP335      0.0003
     87  CD1      -13.3430    8.3560   29.2000 C.ar  335  TRP335      0.0946
     88  CD2      -11.5880    8.4620   30.5890 C.ar  335  TRP335      0.0152
     89  NE1      -12.3270    9.0390   28.5430 N.ar  335  TRP335     -0.2442
     90  CE2      -11.2350    9.0960   29.3730 C.ar  335  TRP335      0.0810
     91  CE3      -10.6370    8.3940   31.6220 C.ar  335  TRP335      0.0012
     92  CZ2       -9.9750    9.6820   29.1740 C.ar  335  TRP335      0.0191
     93  CZ3       -9.3810    8.9800   31.4110 C.ar  335  TRP335      0.0001
     94  CH2       -9.0720    9.6020   30.1960 C.ar  335  TRP335      0.0015
     95  N        -16.1140    6.9780   33.5340 N.am  336  LYS336     -0.1980
     96  CA       -16.7350    6.3790   34.7280 C.3   336  LYS336      0.1596
     97  C        -18.1400    5.8260   34.4390 C.2   336  LYS336      0.2287
     98  O        -18.4570    4.6880   34.8490 O.2   336  LYS336     -0.2864
     99  CB       -16.7640    7.4130   35.8600 C.3   336  LYS336      0.0298
    100  CG       -17.2580    6.9470   37.2220 C.3   336  LYS336      0.0038
    101  CD       -17.0940    8.0790   38.2340 C.3   336  LYS336      0.0206
    102  CE       -18.0060    7.9770   39.4490 C.3   336  LYS336      0.1093
    103  NZ       -17.5380    6.9960   40.4570 N.3   336  LYS336     -0.1314
    104  N        -17.9440    2.2360   37.1520 N.3   341  TYR341     -0.1241
    105  CA       -17.2860    2.3040   38.4690 C.3   341  TYR341      0.1605
    106  C        -17.6360    3.5920   39.2100 C.2   341  TYR341      0.2264
    107  O        -18.4420    4.3990   38.7430 O.2   341  TYR341     -0.2867
    108  CB       -15.7570    2.1160   38.3710 C.3   341  TYR341      0.0534
    109  CG       -15.0000    3.0650   37.4620 C.ar  341  TYR341     -0.0201
    110  CD1      -14.4580    4.2560   37.9500 C.ar  341  TYR341     -0.0009
    111  CD2      -14.7840    2.7480   36.1190 C.ar  341  TYR341     -0.0009
    112  CE1      -13.7450    5.1130   37.1150 C.ar  341  TYR341      0.0417
    113  CE2      -14.0750    3.5950   35.2810 C.ar  341  TYR341      0.0417
    114  CZ       -13.5580    4.7740   35.7810 C.ar  341  TYR341      0.1957
    115  OH       -12.8620    5.6180   34.9490 O.3   341  TYR341     -0.2866
@<TRIPOS>BOND
     1    89    87   ar
     2    89    90   ar
     3    15    14    2
     4    92    90   ar
     5    92    94   ar
     6    87    86   ar
     7    90    88   ar
     8    16    14   am
     9    14    13    1
    10    94    93   ar
    11    86    88   ar
    12    86    85    1
    13    88    91   ar
    14    81    82    1
    15    13    12    1
    16    82    85    1
    17    82    83    1
    18    93    91   ar
    19    12     9    1
    20    59    60    1
    21    84    83    2
    22    83    95   am
    23     1     2    1
    24     8     9    1
    25     8     3   am
    26    72    73    2
    27    72    71    1
    28     9    10    1
    29    67    65   ar
    30    67    69   ar
    31    60    61    1
    32    60    63    1
    33    65    64   ar
    34    95    96    1
    35     5     7    1
    36     5     2    1
    37     5     6    1
    38    10    11    2
    39    70    61   am
    40    70    71    1
    41    61    62    2
    42     2     3    1
    43    71    74    1
    44     3     4    2
    45    69    68   ar
    46    74    75    1
    47    64    63    1
    48    64    66   ar
    49    97    96    1
    50    97    98    2
    51    75    76    1
    52    96    99    1
    53   115   114    1
    54    68    66   ar
    55   113   114   ar
    56   113   111   ar
    57    25    24    1
    58   114   112   ar
    59    99   100    1
    60    76    77    1
    61   111   109   ar
    62    24    23    1
    63    58    56    1
    64   112   110   ar
    65    77    78    2
    66   104   105    1
    67   100   101    1
    68    57    55    1
    69    22    23    1
    70    22    21    1
    71   109   110   ar
    72   109   108    1
    73    17    18    1
    74    56    55    1
    75   101   102    1
    76    55    52    1
    77   108   105    1
    78    32    31    1
    79    32    26    1
    80    78    80    1
    81    78    79    1
    82    18    21    1
    83    18    19    1
    84   105   106    1
    85   107   106    2
    86    31    30    1
    87   102   103    1
    88    26    19   am
    89    26    27    1
    90    52    53    1
    91    52    51    1
    92    19    20    2
    93    53    54    2
    94    30    27    1
    95    29    28    2
    96    51    44   am
    97    27    28    1
    98    28    33   am
    99    44    45    2
   100    44    43    1
   101    43    42    1
   102    43    46    1
   103    33    34    1
   104    42    35   am
   105    36    35    2
   106    35    34    1
   107    34    37    1
   108    47    46    1
   109    47    48    1
   110    50    49    1
   111    37    38    1
   112    49    48    1
   113    38    39    1
   114    39    41   am
   115    39    40    2
