@<TRIPOS>MOLECULE
tmp/5q1xA01.pdb
 93 89 0 0 0
SMALL
GASTEIGER

@<TRIPOS>ATOM
      1  N         18.8300    4.7100   37.5120 N.3    55  ILE55      -0.1245
      2  CA        19.2120    5.5400   36.3530 C.3    55  ILE55       0.1561
      3  C         19.0750    7.0380   36.6530 C.2    55  ILE55       0.2260
      4  O         19.9940    7.8280   36.3520 O.2    55  ILE55      -0.2867
      5  CB        18.4380    5.1480   35.0670 C.3    55  ILE55       0.0252
      6  CG1       18.9660    3.8170   34.5230 C.3    55  ILE55       0.0019
      7  CG2       18.5380    6.2480   34.0060 C.3    55  ILE55       0.0019
      8  CD1       18.0790    3.1490   33.4850 C.3    55  ILE55       0.0001
      9  N         14.2800    6.8140   29.7890 N.3    96  PRO96      -0.2102
     10  CA        15.0510    5.9190   30.6800 C.3    96  PRO96       0.1504
     11  C         15.0490    6.3820   32.1480 C.2    96  PRO96       0.2576
     12  O         15.1790    7.5870   32.4210 O.2    96  PRO96      -0.2718
     13  CB        16.4610    5.9640   30.0700 C.3    96  PRO96       0.0282
     14  CG        16.2070    6.1970   28.6110 C.3    96  PRO96       0.0208
     15  CD        15.0640    7.1820   28.5950 C.3    96  PRO96       0.0893
     16  N         14.8230    5.4420   33.0660 N.am   97  GLY97      -0.1957
     17  CA        14.7770    5.7360   34.5050 C.3    97  GLY97       0.1869
     18  C         13.4570    6.2860   35.0480 C.2    97  GLY97       0.2309
     19  O         13.3190    6.4960   36.2760 O.2    97  GLY97      -0.2863
     20  N         15.6320    7.5130   22.5820 N.3   185  GLU185     -0.1231
     21  CA        16.9400    7.0140   22.1350 C.3   185  GLU185      0.1699
     22  C         16.7930    5.9590   21.0320 C.2   185  GLU185      0.2592
     23  O         17.6770    5.8360   20.1650 O.2   185  GLU185     -0.2718
     24  CB        17.7500    6.4240   23.2970 C.3   185  GLU185      0.0402
     25  CG        18.3100    7.4290   24.3060 C.3   185  GLU185      0.1161
     26  CD        17.3090    7.9970   25.3040 C.2   185  GLU185      0.3649
     27  OE1       16.1600    7.4700   25.4360 O.co2 185  GLU185     -0.2457
     28  OE2       17.6800    9.0030   25.9790 O.co2 185  GLU185     -0.2457
     29  N         15.6810    5.2120   21.0420 N.am  186  LYS186     -0.1980
     30  CA        15.4530    4.2120   19.9940 C.3   186  LYS186      0.1596
     31  C         15.5320    4.7480   18.5720 C.2   186  LYS186      0.2287
     32  O         15.9470    4.0260   17.6600 O.2   186  LYS186     -0.2864
     33  CB        14.1180    3.4640   20.1860 C.3   186  LYS186      0.0298
     34  CG        14.2260    2.2400   21.0710 C.3   186  LYS186      0.0038
     35  CD        15.1070    1.1350   20.4670 C.3   186  LYS186      0.0206
     36  CE        14.3980    0.2250   19.4780 C.3   186  LYS186      0.1093
     37  NZ        15.1260   -1.0740   19.3600 N.3   186  LYS186     -0.1314
     38  N         19.3780    5.0080   17.7990 N.3   189  LEU189     -0.1245
     39  CA        20.0170    3.6960   17.9640 C.3   189  LEU189      0.1561
     40  C         19.5800    2.6760   16.9010 C.2   189  LEU189      0.2260
     41  O         20.4190    1.9540   16.3580 O.2   189  LEU189     -0.2867
     42  CB        19.8000    3.1440   19.3720 C.3   189  LEU189      0.0270
     43  CG        20.4440    3.9550   20.5020 C.3   189  LEU189      0.0019
     44  CD1       19.9990    3.3850   21.8380 C.3   189  LEU189      0.0001
     45  CD2       21.9660    3.9720   20.4360 C.3   189  LEU189      0.0001
     46  N         22.6730    5.5860   31.4190 N.3   212  LEU212     -0.1231
     47  CA        21.3300    5.0080   31.2200 C.3   212  LEU212      0.1693
     48  C         21.2150    3.4680   31.2940 C.2   212  LEU212      0.2592
     49  O         20.1420    2.9280   31.0350 O.2   212  LEU212     -0.2718
     50  CB        20.7380    5.5350   29.9030 C.3   212  LEU212      0.0284
     51  CG        20.7460    7.0610   29.7180 C.3   212  LEU212      0.0019
     52  CD1       20.0800    7.4250   28.3980 C.3   212  LEU212      0.0001
     53  CD2       20.0890    7.8190   30.8740 C.3   212  LEU212      0.0001
     54  N         22.2890    2.7760   31.6820 N.am  213  ASN213     -0.1960
     55  CA        22.2960    1.3040   31.7830 C.3   213  ASN213      0.1819
     56  C         21.7470    0.6060   30.5300 C.2   213  ASN213      0.2621
     57  O         20.9990   -0.3660   30.6240 O.2   213  ASN213     -0.2715
     58  CB        21.5400    0.8350   33.0370 C.3   213  ASN213      0.1195
     59  CG        22.1770    1.3190   34.3220 C.2   213  ASN213      0.2630
     60  OD1       23.3560    1.7230   34.3530 O.2   213  ASN213     -0.2716
     61  ND2       21.4130    1.2720   35.3970 N.am  213  ASN213     -0.0877
     62  N         22.1270    1.1090   29.3580 N.am  214  ILE214     -0.1964
     63  CA        21.7590    0.4760   28.0980 C.3   214  ILE214      0.1712
     64  C         22.7800   -0.6370   27.8460 C.2   214  ILE214      0.2459
     65  O         23.9820   -0.3660   27.8480 O.2   214  ILE214     -0.2730
     66  CB        21.7280    1.4980   26.9410 C.3   214  ILE214      0.0289
     67  CG1       20.6140    2.5230   27.1930 C.3   214  ILE214      0.0022
     68  CG2       21.4960    0.7930   25.6070 C.3   214  ILE214      0.0023
     69  CD1       20.6550    3.7300   26.2850 C.3   214  ILE214      0.0001
     70  N         22.3190   -1.8950   27.6660 N.am  215  PRO215     -0.2686
     71  CA        23.2890   -2.9750   27.4270 C.3   215  PRO215      0.1940
     72  C         24.1590   -2.7520   26.1850 C.2   215  PRO215      0.2635
     73  O         23.6610   -2.2770   25.1590 O.2   215  PRO215     -0.2714
     74  CB        22.4070   -4.2130   27.2490 C.3   215  PRO215      0.1974
     75  CG        21.1400   -3.8940   27.9560 C.3   215  PRO215      0.0674
     76  CD        20.9440   -2.4170   27.7960 C.3   215  PRO215      0.0978
     77  N         25.4480   -3.0740   26.3150 N.am  216  GLU216     -0.1977
     78  CA        26.4450   -2.9590   25.2370 C.3   216  GLU216      0.1597
     79  C         26.6030   -1.5430   24.6490 C.2   216  GLU216      0.2287
     80  O         26.9650   -1.3970   23.4850 O.2   216  GLU216     -0.2864
     81  CB        26.1420   -3.9790   24.1260 C.3   216  GLU216      0.0319
     82  CG        22.4180   -4.0030   24.1660 C.3   216  GLU216      0.1212
     83  CD        22.6640   -4.5500   25.5690 C.2   216  GLU216      0.3175
     84  OE1       22.1190   -3.9900   26.5470 O.3   216  GLU216     -0.4499
     85  OE2       23.4090   -5.5480   25.6970 O.2   216  GLU216     -0.2501
     86  N         27.8530    1.0140   20.7000 N.3   220  LEU220     -0.1245
     87  CA        26.7910    1.7110   19.9560 C.3   220  LEU220      0.1561
     88  C         26.9760    3.2200   19.7020 C.2   220  LEU220      0.2260
     89  O         26.3210    3.7450   18.8010 O.2   220  LEU220     -0.2867
     90  CB        25.4420    1.4930   20.6600 C.3   220  LEU220      0.0270
     91  CG        25.0320    0.0560   21.0040 C.3   220  LEU220      0.0019
     92  CD1       23.6520    0.0410   21.6470 C.3   220  LEU220      0.0001
     93  CD2       25.0560   -0.8630   19.7870 C.3   220  LEU220      0.0001
@<TRIPOS>BOND
     1    41    40    2
     2    40    39    1
     3    32    31    2
     4    38    39    1
     5    39    42    1
     6    31    30    1
     7    89    88    2
     8    37    36    1
     9    42    43    1
    10    36    35    1
    11    88    87    1
    12    93    91    1
    13    87    90    1
    14    87    86    1
    15    30    33    1
    16    30    29    1
    17    23    22    2
    18    33    34    1
    19    45    43    1
    20    35    34    1
    21    43    44    1
    22    90    91    1
    23    91    92    1
    24    22    29   am
    25    22    21    1
    26    21    20    1
    27    21    24    1
    28    24    25    1
    29    80    79    2
    30    81    78    1
    31    82    83    1
    32    25    26    1
    33    79    78    1
    34    73    72    2
    35    78    77    1
    36    26    27   ar
    37    26    28   ar
    38    83    85    2
    39    83    84    1
    40    68    66    1
    41    72    77   am
    42    72    71    1
    43    69    67    1
    44    84    74    1
    45    66    67    1
    46    66    63    1
    47    74    71    1
    48    74    75    1
    49    71    70    1
    50    70    76    1
    51    70    64   am
    52    76    75    1
    53    64    65    2
    54    64    63    1
    55    63    62    1
    56    52    51    1
    57    15    14    1
    58    15     9    1
    59    14    13    1
    60    62    56   am
    61    51    50    1
    62    51    53    1
    63     9    10    1
    64    50    47    1
    65    13    10    1
    66    56    57    2
    67    56    55    1
    68    10    11    1
    69    49    48    2
    70    47    48    1
    71    47    46    1
    72    48    54   am
    73    54    55    1
    74    55    58    1
    75    11    12    2
    76    11    16   am
    77    58    59    1
    78    16    17    1
    79     8     6    1
    80     7     5    1
    81    59    60    2
    82    59    61   am
    83    17    18    1
    84     6     5    1
    85    18    19    2
    86     5     2    1
    87     4     3    2
    88     2     3    1
    89     2     1    1
