@<TRIPOS>MOLECULE
tmp/5q1yA01.pdb
 92 90 0 0 0
SMALL
GASTEIGER

@<TRIPOS>ATOM
      1  N        -10.1540    4.1120   39.5800 N.3   310  PRO310     -0.2102
      2  CA        -9.8640    4.9130   40.7790 C.3   310  PRO310      0.1504
      3  C        -11.0850    5.6520   41.3030 C.2   310  PRO310      0.2576
      4  O        -11.9900    5.9720   40.5160 O.2   310  PRO310     -0.2718
      5  CB        -8.8080    5.9060   40.2760 C.3   310  PRO310      0.0282
      6  CG        -9.1690    6.1150   38.8550 C.3   310  PRO310      0.0208
      7  CD        -9.5950    4.7580   38.3660 C.3   310  PRO310      0.0893
      8  N        -11.1220    5.9200   42.6140 N.am  311  GLN311     -0.1966
      9  CA       -12.2520    6.6650   43.2080 C.3   311  GLN311      0.1733
     10  C        -12.1690    8.1760   42.9440 C.2   311  GLN311      0.2616
     11  O        -13.1990    8.8480   42.8460 O.2   311  GLN311     -0.2715
     12  CB       -12.3570    6.4060   44.7220 C.3   311  GLN311      0.0408
     13  CG       -12.7450    4.9790   45.0980 C.3   311  GLN311      0.0908
     14  CD       -12.8880    4.7740   46.5980 C.2   311  GLN311      0.2608
     15  OE1      -12.5150    5.6300   47.3940 O.2   311  GLN311     -0.2717
     16  NE2      -13.4320    3.6320   46.9880 N.am  311  GLN311     -0.0878
     17  N        -10.9420    8.6950   42.8270 N.am  312  LYS312     -0.1963
     18  CA       -10.6940   10.0990   42.4960 C.3   312  LYS312      0.1728
     19  C         -9.4650   10.2370   41.5880 C.2   312  LYS312      0.2616
     20  O         -8.4450    9.5700   41.8160 O.2   312  LYS312     -0.2715
     21  CB       -10.4920   10.9420   43.7650 C.3   312  LYS312      0.0311
     22  CG       -10.4830   12.4460   43.5140 C.3   312  LYS312      0.0038
     23  CD       -10.1210   13.2270   44.7740 C.3   312  LYS312      0.0206
     24  CE       -10.6440   14.6520   44.7700 C.3   312  LYS312      0.1093
     25  NZ        -9.8990   15.5280   43.8660 N.3   312  LYS312     -0.1314
     26  N         -9.5830   11.1300   40.6000 N.am  313  ILE313     -0.1977
     27  CA        -8.5000   11.4700   39.6780 C.3   313  ILE313      0.1596
     28  C         -8.0830   12.9340   39.8520 C.2   313  ILE313      0.2287
     29  O         -8.9430   13.8360   39.8840 O.2   313  ILE313     -0.2864
     30  CB        -8.8930   11.1970   38.2040 C.3   313  ILE313      0.0276
     31  CG1       -9.3500    9.7400   38.0400 C.3   313  ILE313      0.0022
     32  CG2       -7.7320   11.5370   37.2750 C.3   313  ILE313      0.0022
     33  CD1      -10.0350    9.4370   36.7320 C.3   313  ILE313      0.0001
     34  N         -5.6110   15.4960   37.8770 N.3   315  PRO315     -0.2116
     35  CA        -4.6860   15.7530   36.7590 C.3   315  PRO315      0.1372
     36  C         -3.4140   16.4900   37.1800 C.2   315  PRO315      0.2244
     37  O         -3.4790   17.3540   38.0650 O.2   315  PRO315     -0.2868
     38  CB        -5.4970   16.6470   35.8060 C.3   315  PRO315      0.0268
     39  CG        -6.8610   16.7730   36.3670 C.3   315  PRO315      0.0207
     40  CD        -6.8770   16.2400   37.7620 C.3   315  PRO315      0.0892
     41  N        -12.3950   16.8370   33.2590 N.3   329  GLU329     -0.1245
     42  CA       -13.4180   16.3430   34.1870 C.3   329  GLU329      0.1567
     43  C        -14.5970   15.6830   33.4630 C.2   329  GLU329      0.2260
     44  O        -15.0950   14.6440   33.9050 O.2   329  GLU329     -0.2867
     45  CB       -13.9050   17.4780   35.0960 C.3   329  GLU329      0.0388
     46  CG       -12.9040   17.8430   36.1830 C.3   329  GLU329      0.1160
     47  CD       -13.3460   19.0140   37.0430 C.2   329  GLU329      0.3649
     48  OE1      -12.6370   19.3360   38.0230 O.co2 329  GLU329     -0.2457
     49  OE2      -14.3960   19.6140   36.7410 O.co2 329  GLU329     -0.2457
     50  N        -13.3900   12.2150   32.3390 N.3   332  PHE332     -0.1227
     51  CA       -13.3250   11.2800   33.4780 C.3   332  PHE332      0.1736
     52  C        -14.7250   10.7410   33.8320 C.2   332  PHE332      0.2595
     53  O        -14.8790    9.5420   34.0970 O.2   332  PHE332     -0.2718
     54  CB       -12.6680   11.8900   34.7250 C.3   332  PHE332      0.0547
     55  CG       -11.2930   12.4780   34.5060 C.ar  332  PHE332     -0.0202
     56  CD1      -10.4070   11.9610   33.5670 C.ar  332  PHE332     -0.0042
     57  CD2      -10.8740   13.5430   35.2920 C.ar  332  PHE332     -0.0042
     58  CE1       -9.1470   12.5130   33.4030 C.ar  332  PHE332     -0.0003
     59  CE2       -9.6210   14.1100   35.1170 C.ar  332  PHE332     -0.0003
     60  CZ        -8.7550   13.5840   34.1690 C.ar  332  PHE332     -0.0000
     61  N        -15.7390   11.6040   33.8090 N.am  333  ARG333     -0.1980
     62  CA       -17.1320   11.1760   34.1070 C.3   333  ARG333      0.1597
     63  C        -17.6810   10.2630   33.0170 C.2   333  ARG333      0.2287
     64  O        -18.3550    9.2800   33.3270 O.2   333  ARG333     -0.2864
     65  CB       -18.0570   12.3840   34.3140 C.3   333  ARG333      0.0334
     66  CG       -19.4820   12.0500   34.7510 C.3   333  ARG333      0.0492
     67  CD       -19.5570   11.5770   36.2000 C.3   333  ARG333      0.2205
     68  NE       -19.3540   12.6850   37.1380 N.pl3 333  ARG333     -0.0865
     69  CZ       -19.4300   12.5980   38.4680 C.cat 333  ARG333      0.5346
     70  NH1      -19.2290   13.6910   39.2020 N.pl3 333  ARG333      0.1354
     71  NH2      -19.7060   11.4390   39.0730 N.pl3 333  ARG333      0.1354
     72  N        -16.1480    6.7690   33.5060 N.3   336  LYS336     -0.1245
     73  CA       -16.7750    6.1740   34.6950 C.3   336  LYS336      0.1561
     74  C        -18.1570    5.5870   34.3820 C.2   336  LYS336      0.2260
     75  O        -18.4340    4.4350   34.7230 O.2   336  LYS336     -0.2867
     76  CB       -16.8730    7.2510   35.7870 C.3   336  LYS336      0.0271
     77  CG       -17.4850    6.8520   37.1260 C.3   336  LYS336      0.0035
     78  CD       -17.2930    7.9870   38.1300 C.3   336  LYS336      0.0206
     79  CE       -18.1120    7.8350   39.4070 C.3   336  LYS336      0.1093
     80  NZ       -17.4110    7.0850   40.4870 N.3   336  LYS336     -0.1314
     81  N        -18.1140    1.9390   37.0450 N.3   341  TYR341     -0.1241
     82  CA       -17.4990    1.9900   38.3930 C.3   341  TYR341      0.1605
     83  C        -18.0580    3.1250   39.2190 C.2   341  TYR341      0.2264
     84  O        -18.8770    3.9160   38.7460 O.2   341  TYR341     -0.2867
     85  CB       -15.9360    1.9610   38.4120 C.3   341  TYR341      0.0534
     86  CG       -15.1610    2.9110   37.5160 C.ar  341  TYR341     -0.0201
     87  CD1      -14.6130    4.1020   38.0090 C.ar  341  TYR341     -0.0009
     88  CD2      -14.9090    2.5750   36.1910 C.ar  341  TYR341     -0.0009
     89  CE1      -13.8730    4.9520   37.1820 C.ar  341  TYR341      0.0417
     90  CE2      -14.1750    3.4100   35.3650 C.ar  341  TYR341      0.0417
     91  CZ       -13.6620    4.5910   35.8540 C.ar  341  TYR341      0.1957
     92  OH       -12.9620    5.3840   34.9740 O.3   341  TYR341     -0.2866
@<TRIPOS>BOND
     1    50    51    1
     2    63    64    2
     3    63    62    1
     4    41    42    1
     5    58    56   ar
     6    58    60   ar
     7    43    44    2
     8    43    42    1
     9    51    52    1
    10    51    54    1
    11    72    73    1
    12    56    55   ar
    13    61    52   am
    14    61    62    1
    15    52    53    2
    16    62    65    1
    17    60    59   ar
    18    42    45    1
    19    65    66    1
    20    74    73    1
    21    74    75    2
    22    55    54    1
    23    55    57   ar
    24    73    76    1
    25    66    67    1
    26    92    91    1
    27    45    46    1
    28    59    57   ar
    29    90    91   ar
    30    90    88   ar
    31    76    77    1
    32    38    39    1
    33    38    35    1
    34    91    89   ar
    35    46    47    1
    36    88    86   ar
    37    67    68    1
    38    39    40    1
    39    33    31    1
    40    49    47   ar
    41    35    36    1
    42    35    34    1
    43    47    48   ar
    44    81    82    1
    45    77    78    1
    46    68    69    2
    47    36    37    2
    48    89    87   ar
    49    32    30    1
    50    86    87   ar
    51    86    85    1
    52    40    34    1
    53    31    30    1
    54    78    79    1
    55    30    27    1
    56     7     6    1
    57     7     1    1
    58    82    85    1
    59    82    83    1
    60    69    71    1
    61    69    70    1
    62    84    83    2
    63     6     5    1
    64    79    80    1
    65     1     2    1
    66    27    28    1
    67    27    26    1
    68    28    29    2
    69     5     2    1
    70     4     3    2
    71    26    19   am
    72     2     3    1
    73     3     8   am
    74    19    20    2
    75    19    18    1
    76    18    17    1
    77    18    21    1
    78     8     9    1
    79    17    10   am
    80    11    10    2
    81    10     9    1
    82     9    12    1
    83    22    21    1
    84    22    23    1
    85    25    24    1
    86    12    13    1
    87    24    23    1
    88    13    14    1
    89    14    16   am
    90    14    15    2
