@<TRIPOS>MOLECULE
tmp/5q1zA01.pdb
 131 130 0 0 0
SMALL
GASTEIGER

@<TRIPOS>ATOM
      1  N         -7.3500    3.9480   32.8460 N.3   305  VAL305     -0.1231
      2  CA        -8.1940    4.4530   33.9200 C.3   305  VAL305      0.1692
      3  C         -9.4430    3.5830   34.1160 C.2   305  VAL305      0.2591
      4  O         -9.8390    3.3310   35.2590 O.2   305  VAL305     -0.2718
      5  CB        -8.5510    5.9420   33.6960 C.3   305  VAL305      0.0266
      6  CG1       -9.5610    6.4160   34.7450 C.3   305  VAL305      0.0020
      7  CG2       -7.2830    6.8090   33.7310 C.3   305  VAL305      0.0020
      8  N        -10.0650    3.1370   33.0180 N.am  306  GLN306     -0.1979
      9  CA       -11.2690    2.2750   33.1080 C.3   306  GLN306      0.1601
     10  C        -10.9300    0.9050   33.6880 C.2   306  GLN306      0.2287
     11  O        -11.7850    0.2910   34.3480 O.2   306  GLN306     -0.2864
     12  CB       -11.9920    2.1510   31.7550 C.3   306  GLN306      0.0394
     13  CG       -12.7040    3.4250   31.3250 C.3   306  GLN306      0.0908
     14  CD       -13.4640    3.2970   30.0130 C.2   306  GLN306      0.2608
     15  OE1      -12.9260    2.8040   29.0210 O.2   306  GLN306     -0.2717
     16  NE2      -14.7170    3.7760   29.9890 N.am  306  GLN306     -0.0878
     17  N        -10.0070    1.7890   37.7490 N.3   309  LYS309     -0.1231
     18  CA       -11.1980    2.2060   38.5080 C.3   309  LYS309      0.1678
     19  C        -10.8900    2.9500   39.8320 C.2   309  LYS309      0.2434
     20  O        -11.3850    2.5660   40.9130 O.2   309  LYS309     -0.2733
     21  CB       -12.1330    0.9970   38.7390 C.3   309  LYS309      0.0284
     22  CG       -12.5860    0.3160   37.4540 C.3   309  LYS309      0.0035
     23  CD       -13.5760   -0.7970   37.7450 C.3   309  LYS309      0.0206
     24  CE       -14.2180   -1.3730   36.4900 C.3   309  LYS309      0.1093
     25  NZ       -13.2300   -1.8590   35.4810 N.3   309  LYS309     -0.1314
     26  N        -10.0840    4.0320   39.7560 N.am  310  PRO310     -0.2718
     27  CA        -9.7690    4.8020   40.9660 C.3   310  PRO310      0.1535
     28  C        -10.9860    5.5230   41.5130 C.2   310  PRO310      0.2598
     29  O        -11.8880    5.8440   40.7410 O.2   310  PRO310     -0.2715
     30  CB        -8.7330    5.8220   40.4620 C.3   310  PRO310      0.0310
     31  CG        -9.1290    6.0460   39.0430 C.3   310  PRO310      0.0237
     32  CD        -9.5250    4.6740   38.5510 C.3   310  PRO310      0.0939
     33  N        -11.0170    5.7860   42.8240 N.am  311  GLN311     -0.1964
     34  CA       -12.1210    6.5710   43.4060 C.3   311  GLN311      0.1733
     35  C        -12.0680    8.0550   43.0370 C.2   311  GLN311      0.2616
     36  O        -13.1080    8.6800   42.8700 O.2   311  GLN311     -0.2715
     37  CB       -12.1920    6.4090   44.9300 C.3   311  GLN311      0.0408
     38  CG       -12.6460    5.0290   45.3840 C.3   311  GLN311      0.0908
     39  CD       -12.7640    4.9110   46.8900 C.2   311  GLN311      0.2608
     40  OE1      -12.4550    5.8470   47.6310 O.2   311  GLN311     -0.2717
     41  NE2      -13.2170    3.7580   47.3520 N.am  311  GLN311     -0.0878
     42  N        -10.8630    8.6100   42.8920 N.am  312  LYS312     -0.1963
     43  CA       -10.6800   10.0250   42.5580 C.3   312  LYS312      0.1728
     44  C         -9.4700   10.1890   41.6320 C.2   312  LYS312      0.2616
     45  O         -8.4440    9.5160   41.8150 O.2   312  LYS312     -0.2715
     46  CB       -10.4760   10.8630   43.8270 C.3   312  LYS312      0.0311
     47  CG       -10.4440   12.3450   43.5850 C.3   312  LYS312      0.0038
     48  CD       -10.1380   13.1320   44.8640 C.3   312  LYS312      0.0206
     49  CE       -10.1620   14.6260   44.5480 C.3   312  LYS312      0.1093
     50  NZ        -9.9830   15.4690   45.7450 N.3   312  LYS312     -0.1314
     51  N         -9.6040   11.0840   40.6440 N.am  313  ILE313     -0.1977
     52  CA        -8.5150   11.4330   39.7210 C.3   313  ILE313      0.1596
     53  C         -8.1290   12.9030   39.9240 C.2   313  ILE313      0.2287
     54  O         -9.0130   13.7930   39.9530 O.2   313  ILE313     -0.2864
     55  CB        -8.9170   11.2260   38.2400 C.3   313  ILE313      0.0276
     56  CG1       -9.4390    9.8000   38.0210 C.3   313  ILE313      0.0022
     57  CG2       -7.7470   11.5250   37.3010 C.3   313  ILE313      0.0022
     58  CD1      -10.1250    9.5970   36.6900 C.3   313  ILE313      0.0001
     59  N         -5.7060   15.4450   37.9170 N.3   315  PRO315     -0.2116
     60  CA        -4.8030   15.7360   36.7910 C.3   315  PRO315      0.1372
     61  C         -3.5470   16.5060   37.2010 C.2   315  PRO315      0.2244
     62  O         -3.6160   17.3610   38.0950 O.2   315  PRO315     -0.2868
     63  CB        -5.6530   16.6220   35.8610 C.3   315  PRO315      0.0268
     64  CG        -7.0400   16.5260   36.3380 C.3   315  PRO315      0.0207
     65  CD        -7.0100   16.1250   37.7830 C.3   315  PRO315      0.0892
     66  N        -12.6140   16.9010   33.1300 N.3   329  GLU329     -0.1245
     67  CA       -13.6810   16.4370   34.0310 C.3   329  GLU329      0.1567
     68  C        -14.8580   15.7900   33.2760 C.2   329  GLU329      0.2260
     69  O        -15.4040   14.7730   33.7250 O.2   329  GLU329     -0.2867
     70  CB       -14.1640   17.5830   34.9450 C.3   329  GLU329      0.0388
     71  CG       -13.1490   17.9700   36.0220 C.3   329  GLU329      0.1160
     72  CD       -13.6660   18.9710   37.0420 C.2   329  GLU329      0.3649
     73  OE1      -12.8600   19.4380   37.8830 O.co2 329  GLU329     -0.2457
     74  OE2      -14.8680   19.3050   37.0030 O.co2 329  GLU329     -0.2457
     75  N        -13.6850   12.3280   32.1770 N.3   332  PHE332     -0.1227
     76  CA       -13.6450   11.4110   33.3180 C.3   332  PHE332      0.1736
     77  C        -15.0570   10.8790   33.6350 C.2   332  PHE332      0.2595
     78  O        -15.2390    9.6740   33.8860 O.2   332  PHE332     -0.2718
     79  CB       -13.0450   12.0540   34.5700 C.3   332  PHE332      0.0547
     80  CG       -11.6020   12.5610   34.4200 C.ar  332  PHE332     -0.0202
     81  CD1      -10.6920   11.9870   33.5310 C.ar  332  PHE332     -0.0042
     82  CD2      -11.1600   13.6280   35.2050 C.ar  332  PHE332     -0.0042
     83  CE1       -9.3920   12.4670   33.4220 C.ar  332  PHE332     -0.0003
     84  CE2       -9.8560   14.1140   35.0950 C.ar  332  PHE332     -0.0003
     85  CZ        -8.9740   13.5240   34.1970 C.ar  332  PHE332     -0.0000
     86  N        -16.0480   11.7680   33.6250 N.am  333  ARG333     -0.1980
     87  CA       -17.4640   11.3670   33.8570 C.3   333  ARG333      0.1597
     88  C        -17.9650   10.3800   32.7900 C.2   333  ARG333      0.2287
     89  O        -18.6010    9.3700   33.1290 O.2   333  ARG333     -0.2864
     90  CB       -18.3960   12.5900   33.9840 C.3   333  ARG333      0.0334
     91  CG       -19.8260   12.2640   34.4210 C.3   333  ARG333      0.0492
     92  CD       -19.9410   11.6180   35.7990 C.3   333  ARG333      0.2205
     93  NE       -19.6300   12.5490   36.8940 N.pl3 333  ARG333     -0.0865
     94  CZ       -19.5660   12.2260   38.1920 C.cat 333  ARG333      0.5346
     95  NH1      -19.2700   13.1660   39.0890 N.pl3 333  ARG333      0.1354
     96  NH2      -19.7900   10.9780   38.6100 N.pl3 333  ARG333      0.1354
     97  N        -16.1090    8.3190   31.0140 N.3   335  TRP335     -0.1227
     98  CA       -15.4240    7.0460   31.2430 C.3   335  TRP335      0.1737
     99  C        -16.0630    6.2430   32.3810 C.2   335  TRP335      0.2595
    100  O        -16.2290    5.0190   32.2660 O.2   335  TRP335     -0.2718
    101  CB       -13.9350    7.2520   31.5580 C.3   335  TRP335      0.0564
    102  CG       -13.1140    7.9490   30.4990 C.ar  335  TRP335      0.0003
    103  CD1      -13.4950    8.2640   29.2230 C.ar  335  TRP335      0.0946
    104  CD2      -11.7610    8.4180   30.6430 C.ar  335  TRP335      0.0152
    105  NE1      -12.4710    8.9180   28.5700 N.ar  335  TRP335     -0.2442
    106  CE2      -11.3880    9.0030   29.4130 C.ar  335  TRP335      0.0810
    107  CE3      -10.8260    8.3890   31.6970 C.ar  335  TRP335      0.0012
    108  CZ2      -10.1150    9.5910   29.2070 C.ar  335  TRP335      0.0191
    109  CZ3       -9.5440    8.9590   31.4790 C.ar  335  TRP335      0.0001
    110  CH2       -9.2200    9.5480   30.2410 C.ar  335  TRP335      0.0015
    111  N        -16.4120    6.9320   33.4700 N.am  336  LYS336     -0.1980
    112  CA       -17.0410    6.3030   34.6440 C.3   336  LYS336      0.1596
    113  C        -18.4110    5.7110   34.2830 C.2   336  LYS336      0.2287
    114  O        -18.7230    4.5540   34.6630 O.2   336  LYS336     -0.2864
    115  CB       -17.1990    7.3310   35.7700 C.3   336  LYS336      0.0298
    116  CG       -17.7790    6.7950   37.0800 C.3   336  LYS336      0.0038
    117  CD       -17.8190    7.9010   38.1260 C.3   336  LYS336      0.0206
    118  CE       -18.6370    7.5250   39.3550 C.3   336  LYS336      0.1093
    119  NZ       -17.8080    6.8350   40.3740 N.3   336  LYS336     -0.1314
    120  N        -18.2760    2.1940   37.1320 N.3   341  TYR341     -0.1241
    121  CA       -17.6960    2.2840   38.4850 C.3   341  TYR341      0.1605
    122  C        -18.2580    3.4720   39.2480 C.2   341  TYR341      0.2264
    123  O        -18.9720    4.3120   38.6910 O.2   341  TYR341     -0.2867
    124  CB       -16.1440    2.2390   38.5220 C.3   341  TYR341      0.0534
    125  CG       -15.3530    3.1320   37.5790 C.ar  341  TYR341     -0.0201
    126  CD1      -14.8090    4.3390   38.0180 C.ar  341  TYR341     -0.0009
    127  CD2      -15.0790    2.7300   36.2680 C.ar  341  TYR341     -0.0009
    128  CE1      -14.0590    5.1450   37.1660 C.ar  341  TYR341      0.0417
    129  CE2      -14.3270    3.5290   35.4120 C.ar  341  TYR341      0.0417
    130  CZ       -13.8200    4.7320   35.8640 C.ar  341  TYR341      0.1957
    131  OH       -13.0780    5.5250   35.0160 O.3   341  TYR341     -0.2866
@<TRIPOS>BOND
     1   105   103   ar
     2   105   106   ar
     3    15    14    2
     4   108   106   ar
     5   108   110   ar
     6   103   102   ar
     7   106   104   ar
     8    16    14   am
     9    14    13    1
    10   110   109   ar
    11   102   104   ar
    12   102   101    1
    13   104   107   ar
    14    97    98    1
    15    98   101    1
    16    98    99    1
    17    13    12    1
    18   109   107   ar
    19    12     9    1
    20    75    76    1
    21   100    99    2
    22    99   111   am
    23    88    89    2
    24    88    87    1
    25     1     2    1
    26     8     9    1
    27     8     3   am
    28     9    10    1
    29    66    67    1
    30    68    69    2
    31    68    67    1
    32    76    77    1
    33    76    79    1
    34    83    81   ar
    35    83    85   ar
    36   111   112    1
    37    81    80   ar
    38    86    77   am
    39    86    87    1
    40    77    78    2
    41    10    11    2
    42     5     7    1
    43     5     2    1
    44     5     6    1
    45    87    90    1
    46     2     3    1
    47    90    91    1
    48    67    70    1
    49     3     4    2
    50    85    84   ar
    51   113   112    1
    52   113   114    2
    53    80    79    1
    54    80    82   ar
    55    91    92    1
    56   112   115    1
    57    70    71    1
    58   131   130    1
    59    84    82   ar
    60   129   130   ar
    61   129   127   ar
    62    25    24    1
    63   115   116    1
    64    92    93    1
    65    63    64    1
    66    63    60    1
    67   130   128   ar
    68    71    72    1
    69   127   125   ar
    70    64    65    1
    71    24    23    1
    72    58    56    1
    73    60    61    1
    74    60    59    1
    75    93    94    2
    76    74    72   ar
    77    72    73   ar
    78   116   117    1
    79   120   121    1
    80   128   126   ar
    81    61    62    2
    82    57    55    1
    83    22    23    1
    84    22    21    1
    85   125   126   ar
    86   125   124    1
    87    17    18    1
    88    65    59    1
    89    56    55    1
    90   117   118    1
    91    94    96    1
    92    94    95    1
    93    55    52    1
    94   121   124    1
    95   121   122    1
    96    18    21    1
    97    18    19    1
    98    32    31    1
    99    32    26    1
   100   123   122    2
   101    31    30    1
   102   118   119    1
   103    52    53    1
   104    52    51    1
   105    26    19   am
   106    26    27    1
   107    19    20    2
   108    53    54    2
   109    30    27    1
   110    51    44   am
   111    29    28    2
   112    27    28    1
   113    28    33   am
   114    44    45    2
   115    44    43    1
   116    43    42    1
   117    43    46    1
   118    33    34    1
   119    36    35    2
   120    42    35   am
   121    35    34    1
   122    34    37    1
   123    47    46    1
   124    47    48    1
   125    49    48    1
   126    49    50    1
   127    37    38    1
   128    38    39    1
   129    39    41   am
   130    39    40    2
