@<TRIPOS>MOLECULE
tmp/5q20A01.pdb
 122 120 0 0 0
SMALL
GASTEIGER

@<TRIPOS>ATOM
      1  N         -1.0170   22.0800   45.3580 N.3     4  PHE4       -0.1241
      2  CA        -1.6250   20.9380   46.0820 C.3     4  PHE4        0.1605
      3  C         -1.4250   19.5920   45.3780 C.2     4  PHE4        0.2264
      4  O         -1.2100   18.5710   46.0320 O.2     4  PHE4       -0.2867
      5  CB        -3.1310   21.1780   46.3400 C.3     4  PHE4        0.0534
      6  CG        -4.0000   21.0480   45.1120 C.ar    4  PHE4       -0.0203
      7  CD1       -4.7190   19.8740   44.8740 C.ar    4  PHE4       -0.0042
      8  CD2       -4.1130   22.1000   44.1880 C.ar    4  PHE4       -0.0042
      9  CE1       -5.5250   19.7460   43.7490 C.ar    4  PHE4       -0.0003
     10  CE2       -4.9200   21.9760   43.0630 C.ar    4  PHE4       -0.0003
     11  CZ        -5.6240   20.7970   42.8440 C.ar    4  PHE4       -0.0000
     12  N        -10.1930    4.1410   39.5690 N.3   310  PRO310     -0.2102
     13  CA        -9.9150    4.9730   40.7460 C.3   310  PRO310      0.1504
     14  C        -11.1690    5.6640   41.2630 C.2   310  PRO310      0.2576
     15  O        -12.0770    5.9090   40.4750 O.2   310  PRO310     -0.2718
     16  CB        -8.9070    6.0010   40.2100 C.3   310  PRO310      0.0282
     17  CG        -9.2580    6.1410   38.7850 C.3   310  PRO310      0.0208
     18  CD        -9.7170    4.7790   38.3280 C.3   310  PRO310      0.0893
     19  N        -11.2250    5.9600   42.5610 N.am  311  GLN311     -0.1966
     20  CA       -12.3450    6.7220   43.1360 C.3   311  GLN311      0.1733
     21  C        -12.2250    8.2160   42.8510 C.2   311  GLN311      0.2616
     22  O        -13.2350    8.9070   42.7230 O.2   311  GLN311     -0.2715
     23  CB       -12.4670    6.4980   44.6500 C.3   311  GLN311      0.0408
     24  CG       -12.8540    5.0680   45.0130 C.3   311  GLN311      0.0908
     25  CD       -13.0470    4.8430   46.5100 C.2   311  GLN311      0.2608
     26  OE1      -12.8310    5.7410   47.3240 O.2   311  GLN311     -0.2717
     27  NE2      -13.4690    3.6390   46.8740 N.am  311  GLN311     -0.0878
     28  N        -10.9920    8.7160   42.7540 N.am  312  LYS312     -0.1963
     29  CA       -10.7430   10.1200   42.5110 C.3   312  LYS312      0.1728
     30  C         -9.5450   10.2670   41.5640 C.2   312  LYS312      0.2616
     31  O         -8.5740    9.5210   41.6980 O.2   312  LYS312     -0.2715
     32  CB       -10.4440   10.8070   43.8350 C.3   312  LYS312      0.0311
     33  CG       -10.4720   12.3300   43.7740 C.3   312  LYS312      0.0038
     34  CD        -9.5460   12.9530   44.8180 C.3   312  LYS312      0.0206
     35  CE        -9.9580   14.3830   45.1870 C.3   312  LYS312      0.1093
     36  NZ       -10.1460   15.2930   44.0240 N.3   312  LYS312     -0.1314
     37  N         -9.6160   11.2380   40.6400 N.am  313  ILE313     -0.1963
     38  CA        -8.5390   11.5060   39.6920 C.3   313  ILE313      0.1727
     39  C         -8.1270   12.9570   39.8560 C.2   313  ILE313      0.2616
     40  O         -8.9910   13.8490   39.8470 O.2   313  ILE313     -0.2715
     41  CB        -8.9520   11.2320   38.2330 C.3   313  ILE313      0.0290
     42  CG1       -9.4540    9.7910   38.0740 C.3   313  ILE313      0.0022
     43  CG2       -7.7800   11.4770   37.2800 C.3   313  ILE313      0.0023
     44  CD1       -9.9760    9.4940   36.6820 C.3   313  ILE313      0.0001
     45  N         -6.8160   13.1630   39.9990 N.am  314  ILE314     -0.1964
     46  CA        -6.1910   14.4610   40.0560 C.3   314  ILE314      0.1712
     47  C         -5.2340   14.6160   38.8500 C.2   314  ILE314      0.2458
     48  O         -4.1620   14.0060   38.8160 O.2   314  ILE314     -0.2730
     49  CB        -5.4600   14.6590   41.4080 C.3   314  ILE314      0.0289
     50  CG1       -6.4750   14.5720   42.5600 C.3   314  ILE314      0.0022
     51  CG2       -4.7390   15.9980   41.4460 C.3   314  ILE314      0.0023
     52  CD1       -5.8680   14.2800   43.9090 C.3   314  ILE314      0.0001
     53  N         -5.6010   15.4730   37.8760 N.am  315  PRO315     -0.2727
     54  CA        -4.6980   15.7590   36.7570 C.3   315  PRO315      0.1402
     55  C         -3.4300   16.4930   37.1840 C.2   315  PRO315      0.2269
     56  O         -3.4960   17.3460   38.0780 O.2   315  PRO315     -0.2865
     57  CB        -5.5230   16.6670   35.8310 C.3   315  PRO315      0.0296
     58  CG        -6.8990   16.6520   36.3510 C.3   315  PRO315      0.0237
     59  CD        -6.8530   16.2420   37.7870 C.3   315  PRO315      0.0939
     60  N         -9.3890   22.1280   32.4380 N.3   325  ARG325     -0.1245
     61  CA        -9.9030   21.4400   33.6180 C.3   325  ARG325      0.1563
     62  C        -11.3220   20.9190   33.3680 C.2   325  ARG325      0.2260
     63  O        -11.6140   19.7910   33.6910 O.2   325  ARG325     -0.2867
     64  CB        -9.8780   22.3270   34.8520 C.3   325  ARG325      0.0307
     65  CG        -8.4930   22.5320   35.4740 C.3   325  ARG325      0.0489
     66  CD        -8.6260   23.0880   36.8970 C.3   325  ARG325      0.2205
     67  NE        -7.4590   22.8520   37.7520 N.pl3 325  ARG325     -0.0865
     68  CZ        -7.0610   21.6660   38.2460 C.cat 325  ARG325      0.5346
     69  NH1       -5.9790   21.6250   39.0310 N.pl3 325  ARG325      0.1354
     70  NH2       -7.7070   20.5240   37.9690 N.pl3 325  ARG325      0.1354
     71  N        -12.3840   16.8030   33.2420 N.3   329  GLU329     -0.1245
     72  CA       -13.4480   16.3370   34.1480 C.3   329  GLU329      0.1567
     73  C        -14.6390   15.7170   33.4060 C.2   329  GLU329      0.2260
     74  O        -15.1870   14.7160   33.8630 O.2   329  GLU329     -0.2867
     75  CB       -13.9310   17.4760   35.0540 C.3   329  GLU329      0.0388
     76  CG       -12.9250   17.8830   36.1240 C.3   329  GLU329      0.1160
     77  CD       -13.3410   19.1100   36.9260 C.2   329  GLU329      0.3649
     78  OE1      -12.5470   19.5690   37.7870 O.co2 329  GLU329     -0.2457
     79  OE2      -14.4560   19.6240   36.6920 O.co2 329  GLU329     -0.2457
     80  N        -13.4550   12.2350   32.3060 N.3   332  PHE332     -0.1227
     81  CA       -13.3780   11.3200   33.4340 C.3   332  PHE332      0.1736
     82  C        -14.7770   10.7780   33.7640 C.2   332  PHE332      0.2595
     83  O        -14.9340    9.5740   33.9790 O.2   332  PHE332     -0.2718
     84  CB       -12.7500   11.9360   34.6840 C.3   332  PHE332      0.0547
     85  CG       -11.3530   12.4950   34.4860 C.ar  332  PHE332     -0.0202
     86  CD1      -10.4590   11.9580   33.5630 C.ar  332  PHE332     -0.0042
     87  CD2      -10.9500   13.5890   35.2460 C.ar  332  PHE332     -0.0042
     88  CE1       -9.1910   12.4950   33.4200 C.ar  332  PHE332     -0.0003
     89  CE2       -9.6840   14.1390   35.1030 C.ar  332  PHE332     -0.0003
     90  CZ        -8.8000   13.5890   34.1760 C.ar  332  PHE332     -0.0000
     91  N        -15.7780   11.6550   33.7410 N.am  333  ARG333     -0.1980
     92  CA       -17.1730   11.2390   34.0510 C.3   333  ARG333      0.1597
     93  C        -17.7310   10.3010   32.9790 C.2   333  ARG333      0.2287
     94  O        -18.3760    9.3100   33.3250 O.2   333  ARG333     -0.2864
     95  CB       -18.0920   12.4570   34.2560 C.3   333  ARG333      0.0334
     96  CG       -19.5220   12.1410   34.7170 C.3   333  ARG333      0.0492
     97  CD       -19.5900   11.5070   36.1100 C.3   333  ARG333      0.2205
     98  NE       -19.0320   12.4110   37.1280 N.pl3 333  ARG333     -0.0865
     99  CZ       -18.7040   12.0870   38.3860 C.cat 333  ARG333      0.5346
    100  NH1      -18.1990   13.0180   39.1900 N.pl3 333  ARG333      0.1354
    101  NH2      -18.8740   10.8570   38.8590 N.pl3 333  ARG333      0.1354
    102  N        -16.2230    6.8440   33.5140 N.3   336  LYS336     -0.1245
    103  CA       -16.8280    6.2450   34.7120 C.3   336  LYS336      0.1561
    104  C        -18.2180    5.6830   34.4150 C.2   336  LYS336      0.2260
    105  O        -18.5120    4.5310   34.7710 O.2   336  LYS336     -0.2867
    106  CB       -16.8970    7.2770   35.8250 C.3   336  LYS336      0.0271
    107  CG       -17.2490    6.7220   37.1950 C.3   336  LYS336      0.0035
    108  CD       -17.4000    7.8550   38.2060 C.3   336  LYS336      0.0206
    109  CE       -18.4340    7.5430   39.2830 C.3   336  LYS336      0.1093
    110  NZ       -17.7710    7.1480   40.5330 N.3   336  LYS336     -0.1314
    111  N        -18.1870    2.1100   37.2040 N.3   341  TYR341     -0.1241
    112  CA       -17.6280    2.2720   38.5660 C.3   341  TYR341      0.1605
    113  C        -18.1140    3.5930   39.1580 C.2   341  TYR341      0.2264
    114  O        -19.0990    4.1800   38.6790 O.2   341  TYR341     -0.2867
    115  CB       -16.0710    2.1540   38.6160 C.3   341  TYR341      0.0534
    116  CG       -15.2740    3.0460   37.6740 C.ar  341  TYR341     -0.0201
    117  CD1      -14.6210    4.1880   38.1390 C.ar  341  TYR341     -0.0009
    118  CD2      -15.1150    2.7090   36.3210 C.ar  341  TYR341     -0.0009
    119  CE1      -13.8800    4.9870   37.2800 C.ar  341  TYR341      0.0417
    120  CE2      -14.3760    3.5050   35.4670 C.ar  341  TYR341      0.0417
    121  CZ       -13.7630    4.6380   35.9460 C.ar  341  TYR341      0.1957
    122  OH       -13.0660    5.4040   35.0420 O.3   341  TYR341     -0.2866
@<TRIPOS>BOND
     1    80    81    1
     2    60    61    1
     3    93    94    2
     4    93    92    1
     5    71    72    1
     6    62    61    1
     7    62    63    2
     8    73    74    2
     9    73    72    1
    10    88    86   ar
    11    88    90   ar
    12    81    82    1
    13    81    84    1
    14   102   103    1
    15    86    85   ar
    16    61    64    1
    17    91    82   am
    18    91    92    1
    19    82    83    2
    20    92    95    1
    21    72    75    1
    22    90    89   ar
    23    95    96    1
    24   104   103    1
    25   104   105    2
    26    85    84    1
    27    85    87   ar
    28   103   106    1
    29    96    97    1
    30    64    65    1
    31   122   121    1
    32    75    76    1
    33    89    87   ar
    34   120   121   ar
    35   120   118   ar
    36    65    66    1
    37   106   107    1
    38    57    58    1
    39    57    54    1
    40   121   119   ar
    41    97    98    1
    42    76    77    1
    43   118   116   ar
    44    58    59    1
    45    44    42    1
    46    79    77   ar
    47    54    55    1
    48    54    53    1
    49    66    67    1
    50    77    78   ar
    51    98    99    2
    52    55    56    2
    53   107   108    1
    54   111   112    1
    55    43    41    1
    56   119   117   ar
    57   116   117   ar
    58   116   115    1
    59    67    68    2
    60    59    53    1
    61    53    47   am
    62    70    68    1
    63    42    41    1
    64   108   109    1
    65    41    38    1
    66    68    69    1
    67    18    17    1
    68    18    12    1
    69    99   101    1
    70    99   100    1
    71   112   115    1
    72   112   113    1
    73   114   113    2
    74    17    16    1
    75    48    47    2
    76    47    46    1
    77   109   110    1
    78    12    13    1
    79    38    39    1
    80    38    37    1
    81    40    39    2
    82    39    45   am
    83    45    46    1
    84    46    49    1
    85    16    13    1
    86    15    14    2
    87    37    30   am
    88    13    14    1
    89    14    19   am
    90    49    51    1
    91    49    50    1
    92    30    31    2
    93    30    29    1
    94    29    28    1
    95    29    32    1
    96    50    52    1
    97    19    20    1
    98    22    21    2
    99    28    21   am
   100    11    10   ar
   101    11     9   ar
   102    21    20    1
   103    10     8   ar
   104    20    23    1
   105     9     7   ar
   106    33    32    1
   107    33    34    1
   108    36    35    1
   109     8     6   ar
   110    23    24    1
   111    34    35    1
   112     7     6   ar
   113    24    25    1
   114     6     5    1
   115     1     2    1
   116     3     4    2
   117     3     2    1
   118     2     5    1
   119    25    27   am
   120    25    26    2
