@<TRIPOS>MOLECULE
tmp/5q22A01.pdb
 109 105 0 0 0
SMALL
GASTEIGER

@<TRIPOS>ATOM
      1  N         -2.0600   13.8040   32.1920 N.3   140  THR140     -0.1203
      2  CA        -3.1640   14.1380   31.2710 C.3   140  THR140      0.1994
      3  C         -2.7060   14.9380   30.0220 C.2   140  THR140      0.2618
      4  O         -3.5300   15.6150   29.3950 O.2   140  THR140     -0.2717
      5  CB        -4.2620   14.9160   32.0460 C.3   140  THR140      0.1784
      6  OG1       -3.5920   15.8880   32.8640 O.3   140  THR140     -0.2211
      7  CG2       -5.0770   13.9770   32.9340 C.3   140  THR140      0.0376
      8  N         -1.4190   14.8280   29.6500 N.am  141  THR141     -0.1952
      9  CA        -0.8480   15.5870   28.5220 C.3   141  THR141      0.1897
     10  C         -1.7560   15.5870   27.2860 C.2   141  THR141      0.2313
     11  O         -2.0950   16.6750   26.7660 O.2   141  THR141     -0.2863
     12  CB         0.5680   15.0550   28.1500 C.3   141  THR141      0.1794
     13  OG1        1.4820   15.2750   29.2450 O.3   141  THR141     -0.2208
     14  CG2        1.1700   15.7760   26.9410 C.3   141  THR141      0.0378
     15  N         -5.0800   14.3110   27.0040 N.3   143  CYS143     -0.1221
     16  CA        -6.4430   13.9600   27.3940 C.3   143  CYS143      0.1808
     17  C         -7.5210   14.6720   26.5540 C.2   143  CYS143      0.2601
     18  O         -8.3190   15.4650   27.0850 O.2   143  CYS143     -0.2717
     19  CB        -6.6820   14.1950   28.8910 C.3   143  CYS143      0.0970
     20  SG        -8.2330   13.5270   29.5520 S.3   143  CYS143     -0.0800
     21  N         -7.5790   14.3460   25.2530 N.am  144  SER144     -0.1952
     22  CA        -8.6790   14.7510   24.3260 C.3   144  SER144      0.1924
     23  C         -8.6420   13.8070   23.1070 C.2   144  SER144      0.2314
     24  O         -7.5420   13.4260   22.6810 O.2   144  SER144     -0.2863
     25  CB        -8.4990   16.2060   23.9230 C.3   144  SER144      0.2116
     26  OG        -9.6600   16.7700   23.3530 O.3   144  SER144     -0.2180
     27  N         -8.8850   14.0050   19.9010 N.3   146  GLU146     -0.1231
     28  CA        -8.1150   14.3880   18.7150 C.3   146  GLU146      0.1699
     29  C         -6.6230   14.0200   18.7970 C.2   146  GLU146      0.2592
     30  O         -5.9160   14.1150   17.7930 O.2   146  GLU146     -0.2718
     31  CB        -8.3020   15.8780   18.3730 C.3   146  GLU146      0.0402
     32  CG        -7.4600   16.8770   19.1640 C.3   146  GLU146      0.1161
     33  CD        -8.0490   17.2890   20.4940 C.2   146  GLU146      0.3649
     34  OE1       -9.0270   16.6600   20.9370 O.co2 146  GLU146     -0.2457
     35  OE2       -7.5230   18.2450   21.1020 O.co2 146  GLU146     -0.2457
     36  N         -6.1350   13.6350   19.9820 N.am  147  TYR147     -0.1976
     37  CA        -4.7410   13.2410   20.1200 C.3   147  TYR147      0.1639
     38  C         -4.5780   11.7580   19.8110 C.2   147  TYR147      0.2290
     39  O         -4.7780   10.8640   20.6590 O.2   147  TYR147     -0.2864
     40  CB        -4.1970   13.5840   21.4920 C.3   147  TYR147      0.0560
     41  CG        -4.1270   15.0620   21.8390 C.ar  147  TYR147     -0.0198
     42  CD1       -3.3360   15.9400   21.0900 C.ar  147  TYR147     -0.0009
     43  CD2       -4.8230   15.5820   22.9410 C.ar  147  TYR147     -0.0009
     44  CE1       -3.2210   17.2910   21.4390 C.ar  147  TYR147      0.0417
     45  CE2       -4.7350   16.9360   23.2940 C.ar  147  TYR147      0.0417
     46  CZ        -3.9200   17.7880   22.5640 C.ar  147  TYR147      0.1957
     47  OH        -3.8380   19.1330   22.9530 O.3   147  TYR147     -0.2866
     48  N          2.9190   14.7110   19.4000 N.3   265  TRP265     -0.1241
     49  CA         1.7950   14.9860   18.5080 C.3   265  TRP265      0.1605
     50  C          1.9590   16.3380   17.7920 C.2   265  TRP265      0.2264
     51  O          2.4470   17.3160   18.3740 O.2   265  TRP265     -0.2867
     52  CB         0.5040   15.0460   19.3350 C.3   265  TRP265      0.0550
     53  CG        -0.7210   15.4170   18.5540 C.ar  265  TRP265      0.0003
     54  CD1       -1.5860   14.5580   17.9400 C.ar  265  TRP265      0.0946
     55  CD2       -1.2590   16.7410   18.3430 C.ar  265  TRP265      0.0152
     56  NE1       -2.6040   15.2530   17.3380 N.ar  265  TRP265     -0.2442
     57  CE2       -2.4500   16.5930   17.5870 C.ar  265  TRP265      0.0810
     58  CE3       -0.8710   18.0230   18.7500 C.ar  265  TRP265      0.0012
     59  CZ2       -3.2350   17.6930   17.1930 C.ar  265  TRP265      0.0191
     60  CZ3       -1.6430   19.1170   18.3450 C.ar  265  TRP265      0.0001
     61  CH2       -2.8170   18.9400   17.5940 C.ar  265  TRP265      0.0015
     62  N         -0.5420   18.6710   14.6520 N.3   267  HIS267     -0.1241
     63  CA        -1.8110   18.7040   13.8810 C.3   267  HIS267      0.1621
     64  C         -1.8060   17.9440   12.5350 C.2   267  HIS267      0.2264
     65  O         -2.8610   17.4650   12.1300 O.2   267  HIS267     -0.2867
     66  CB        -2.2740   20.1570   13.6940 C.3   267  HIS267      0.0745
     67  CG        -3.6120   20.3100   13.0190 C.ar  267  HIS267      0.0817
     68  ND1       -4.7900   19.8340   13.5570 N.ar  267  HIS267     -0.2268
     69  CD2       -3.9500   20.9090   11.8540 C.ar  267  HIS267      0.1154
     70  CE1       -5.7950   20.1310   12.7510 C.ar  267  HIS267      0.1986
     71  NE2       -5.3140   20.7870   11.7100 N.ar  267  HIS267     -0.2212
     72  N         -1.9710   20.2720   32.0620 N.3   318  ASN318     -0.1240
     73  CA        -3.0720   21.1030   31.5310 C.3   318  ASN318      0.1653
     74  C         -4.0200   21.6160   32.6310 C.2   318  ASN318      0.2266
     75  O         -5.2170   21.8510   32.3920 O.2   318  ASN318     -0.2867
     76  CB        -3.8570   20.3910   30.4320 C.3   318  ASN318      0.1155
     77  CG        -2.9650   19.8530   29.3280 C.2   318  ASN318      0.2627
     78  OD1       -2.1380   20.5990   28.7860 O.2   318  ASN318     -0.2716
     79  ND2       -3.1020   18.5550   28.9990 N.am  318  ASN318     -0.0877
     80  N        -10.9330   26.1170   31.0330 N.3   323  LYS323     -0.1231
     81  CA       -11.4200   25.3390   29.8860 C.3   323  LYS323      0.1693
     82  C        -10.7830   23.9370   29.8570 C.2   323  LYS323      0.2592
     83  O        -11.4850   22.9400   29.6640 O.2   323  LYS323     -0.2718
     84  CB       -11.1480   26.0740   28.5790 C.3   323  LYS323      0.0285
     85  CG       -11.5790   25.3040   27.3390 C.3   323  LYS323      0.0035
     86  CD       -11.4340   26.1190   26.0640 C.3   323  LYS323      0.0206
     87  CE       -11.7890   25.2820   24.8440 C.3   323  LYS323      0.1093
     88  NZ       -11.1960   25.8550   23.6070 N.3   323  LYS323     -0.1314
     89  N         -9.4600   23.8770   30.0300 N.am  324  SER324     -0.1952
     90  CA        -8.7480   22.5900   30.0940 C.3   324  SER324      0.1924
     91  C         -9.2850   21.7160   31.2000 C.2   324  SER324      0.2314
     92  O         -9.6080   20.5390   30.9840 O.2   324  SER324     -0.2863
     93  CB        -7.2660   22.7890   30.3730 C.3   324  SER324      0.2116
     94  OG        -6.6040   23.3520   29.2690 O.3   324  SER324     -0.2180
     95  N        -12.7840   20.3470   30.4420 N.3   327  THR327     -0.1203
     96  CA       -12.6800   19.3120   29.4050 C.3   327  THR327      0.1994
     97  C        -12.2550   17.9470   30.0160 C.2   327  THR327      0.2617
     98  O        -12.8610   16.8950   29.7360 O.2   327  THR327     -0.2717
     99  CB       -11.6930   19.7780   28.2870 C.3   327  THR327      0.1784
    100  OG1      -12.2520   20.9080   27.6180 O.3   327  THR327     -0.2211
    101  CG2      -11.3780   18.6600   27.2550 C.3   327  THR327      0.0376
    102  N        -11.2120   17.9680   30.8400 N.am  328  MET328     -0.1979
    103  CA       -10.6940   16.7400   31.4440 C.3   328  MET328      0.1605
    104  C        -11.7320   16.1010   32.3750 C.2   328  MET328      0.2287
    105  O        -11.9630   14.8800   32.2960 O.2   328  MET328     -0.2864
    106  CB        -9.3680   16.9800   32.1670 C.3   328  MET328      0.0413
    107  CG        -8.2370   17.3110   31.2020 C.3   328  MET328      0.0598
    108  SD        -6.6020   17.4990   31.9580 S.3   328  MET328     -0.1393
    109  CE        -6.8690   18.9210   33.0180 C.3   328  MET328      0.0692
@<TRIPOS>BOND
     1    71    69   ar
     2    71    70   ar
     3    69    67   ar
     4    65    64    2
     5    64    63    1
     6    70    68   ar
     7    67    68   ar
     8    67    66    1
     9    66    63    1
    10    63    62    1
    11    59    57   ar
    12    59    61   ar
    13    56    57   ar
    14    56    54   ar
    15    57    55   ar
    16    61    60   ar
    17    50    51    2
    18    50    49    1
    19    30    29    2
    20    54    53   ar
    21    55    53   ar
    22    55    58   ar
    23    60    58   ar
    24    31    28    1
    25    31    32    1
    26    49    52    1
    27    49    48    1
    28    53    52    1
    29    28    29    1
    30    28    27    1
    31    29    36   am
    32    32    33    1
    33    38    37    1
    34    38    39    2
    35    36    37    1
    36    37    40    1
    37    33    34   ar
    38    33    35   ar
    39    42    44   ar
    40    42    41   ar
    41    44    46   ar
    42    40    41    1
    43    41    43   ar
    44    46    47    1
    45    46    45   ar
    46    24    23    2
    47    43    45   ar
    48    23    22    1
    49    26    25    1
    50    88    87    1
    51    25    22    1
    52    22    21    1
    53    87    86    1
    54    21    17   am
    55    86    85    1
    56    17    18    2
    57    17    16    1
    58    11    10    2
    59    14    12    1
    60    15    16    1
    61   101    99    1
    62    10     9    1
    63    85    84    1
    64    16    19    1
    65   100    99    1
    66    12     9    1
    67    12    13    1
    68    99    96    1
    69     9     8    1
    70    84    81    1
    71    78    77    2
    72    19    20    1
    73    79    77   am
    74    94    93    1
    75    77    76    1
    76     4     3    2
    77    96    97    1
    78    96    95    1
    79     8     3   am
    80    83    82    2
    81    98    97    2
    82    82    81    1
    83    82    89   am
    84    81    80    1
    85    97   102   am
    86     3     2    1
    87    89    90    1
    88    90    93    1
    89    90    91    1
    90    76    73    1
    91   102   103    1
    92    92    91    2
    93   107   108    1
    94   107   106    1
    95     2     5    1
    96     2     1    1
    97   103   106    1
    98   103   104    1
    99    73    72    1
   100    73    74    1
   101   108   109    1
   102     5     6    1
   103     5     7    1
   104   105   104    2
   105    75    74    2
