@<TRIPOS>MOLECULE
tmp/5q23A01.pdb
 106 106 0 0 0
SMALL
GASTEIGER

@<TRIPOS>ATOM
      1  N         -1.0830   22.1520   45.3410 N.3     4  PHE4       -0.1241
      2  CA        -1.6620   21.0170   46.0890 C.3     4  PHE4        0.1605
      3  C         -1.4490   19.6750   45.3870 C.2     4  PHE4        0.2264
      4  O         -1.2120   18.6680   46.0440 O.2     4  PHE4       -0.2867
      5  CB        -3.1660   21.2200   46.3690 C.3     4  PHE4        0.0534
      6  CG        -4.0540   21.0600   45.1570 C.ar    4  PHE4       -0.0203
      7  CD1       -4.6770   19.8360   44.8810 C.ar    4  PHE4       -0.0042
      8  CD2       -4.2820   22.1340   44.2850 C.ar    4  PHE4       -0.0042
      9  CE1       -5.4930   19.6870   43.7650 C.ar    4  PHE4       -0.0003
     10  CE2       -5.0970   21.9880   43.1660 C.ar    4  PHE4       -0.0003
     11  CZ        -5.7050   20.7640   42.9110 C.ar    4  PHE4       -0.0000
     12  N          1.5510   17.5030   46.3280 N.3     7  LYS7       -0.1231
     13  CA         1.6240   17.0180   47.6930 C.3     7  LYS7        0.1693
     14  C          0.7890   15.7490   47.8460 C.2     7  LYS7        0.2592
     15  O         -0.2960   15.6350   47.2480 O.2     7  LYS7       -0.2718
     16  CB         1.1070   18.0840   48.6640 C.3     7  LYS7        0.0285
     17  CG         1.9570   19.3460   48.7110 C.3     7  LYS7        0.0035
     18  CD         1.5290   20.2310   49.8790 C.3     7  LYS7        0.0206
     19  CE         2.2410   21.5570   49.8460 C.3     7  LYS7        0.1093
     20  NZ         1.6190   22.5030   50.8080 N.3     7  LYS7       -0.1314
     21  N          1.2920   14.8080   48.6510 N.am    8  ILE8       -0.1966
     22  CA         0.6300   13.5260   48.8920 C.3     8  ILE8        0.1712
     23  C         -0.0370   13.5580   50.2920 C.2     8  ILE8        0.2458
     24  O          0.6670   13.5480   51.3230 O.2     8  ILE8       -0.2730
     25  CB         1.6350   12.3550   48.7870 C.3     8  ILE8        0.0289
     26  CG1        2.3520   12.3390   47.4110 C.3     8  ILE8        0.0022
     27  CG2        0.9520   11.0230   49.0680 C.3     8  ILE8        0.0023
     28  CD1        1.4470   12.2250   46.1950 C.3     8  ILE8        0.0001
     29  N         -1.3910   13.5740   50.3330 N.am    9  PRO9       -0.2716
     30  CA        -2.0960   13.7310   51.6310 C.3     9  PRO9        0.1536
     31  C         -1.7700   12.6070   52.6170 C.2     9  PRO9        0.2599
     32  O         -1.5970   11.4630   52.2090 O.2     9  PRO9       -0.2715
     33  CB        -3.5880   13.7240   51.2450 C.3     9  PRO9        0.0310
     34  CG        -3.6600   13.1200   49.8740 C.3     9  PRO9        0.0237
     35  CD        -2.3340   13.3920   49.2030 C.3     9  PRO9        0.0939
     36  N         -1.6510   12.9460   53.8970 N.am   10  GLY10      -0.1941
     37  CA        -1.3450   11.9730   54.9380 C.3    10  GLY10       0.2014
     38  C          0.1020   11.5560   55.0220 C.2    10  GLY10       0.2640
     39  O          0.4280   10.5810   55.7260 O.2    10  GLY10      -0.2714
     40  N          0.9670   12.2810   54.3060 N.am   11  THR11      -0.1936
     41  CA         2.4010   12.0500   54.3320 C.3    11  THR11       0.2028
     42  C          3.1440   13.3890   54.4430 C.2    11  THR11       0.2643
     43  O          2.5400   14.4790   54.3530 O.2    11  THR11      -0.2714
     44  CB         2.8770   11.3240   53.0470 C.3    11  THR11       0.1808
     45  OG1        2.8270   12.2250   51.9290 O.3    11  THR11      -0.2208
     46  CG2        2.0300   10.0580   52.7670 C.3    11  THR11       0.0379
     47  N          4.4600   13.2840   54.6180 N.am   12  GLY12      -0.1939
     48  CA         5.3830   14.3940   54.3880 C.3    12  GLY12       0.2014
     49  C          6.0310   14.3600   52.9990 C.2    12  GLY12       0.2639
     50  O          7.1400   14.8500   52.8390 O.2    12  GLY12      -0.2714
     51  N          5.3670   13.7930   51.9930 N.am   13  PHE13      -0.1959
     52  CA         6.0080   13.6150   50.6710 C.3    13  PHE13       0.1771
     53  C          5.5460   14.6150   49.6200 C.2    13  PHE13       0.2620
     54  O          4.3590   14.9330   49.5380 O.2    13  PHE13      -0.2715
     55  CB         5.7200   12.2050   50.1160 C.3    13  PHE13       0.0574
     56  CG         6.1620   11.0610   51.0140 C.ar   13  PHE13      -0.0200
     57  CD1        7.2610   11.1550   51.8630 C.ar   13  PHE13      -0.0042
     58  CD2        5.4830    9.8470   50.9570 C.ar   13  PHE13      -0.0042
     59  CE1        7.6550   10.0700   52.6430 C.ar   13  PHE13      -0.0003
     60  CE2        5.8770    8.7560   51.7180 C.ar   13  PHE13      -0.0003
     61  CZ         6.9470    8.8770   52.5750 C.ar   13  PHE13      -0.0000
     62  N          6.4810   15.0700   48.7870 N.am   14  THR14      -0.1951
     63  CA         6.1080   15.7740   47.5620 C.3    14  THR14       0.1897
     64  C          6.6340   14.9950   46.3560 C.2    14  THR14       0.2313
     65  O          7.5540   14.1710   46.4920 O.2    14  THR14      -0.2863
     66  CB         6.6760   17.1970   47.4600 C.3    14  THR14       0.1794
     67  OG1        8.1150   17.1510   47.5330 O.3    14  THR14      -0.2208
     68  CG2        6.0840   18.1130   48.5350 C.3    14  THR14       0.0378
     69  N          9.9490   23.2400   51.1080 N.3    23  VAL23      -0.1231
     70  CA         8.4920   23.0660   51.2570 C.3    23  VAL23       0.1692
     71  C          8.2010   22.7170   52.7150 C.2    23  VAL23       0.2592
     72  O          8.7490   21.7450   53.1960 O.2    23  VAL23      -0.2718
     73  CB         7.9740   21.9600   50.3060 C.3    23  VAL23       0.0266
     74  CG1        6.4890   21.7050   50.5130 C.3    23  VAL23       0.0020
     75  CG2        8.2330   22.3750   48.8600 C.3    23  VAL23       0.0020
     76  N          7.3870   23.5170   53.4220 N.am   24  GLU24      -0.1966
     77  CA         7.1310   23.2700   54.8570 C.3    24  GLU24       0.1733
     78  C          6.4060   21.9460   55.0410 C.2    24  GLU24       0.2617
     79  O          5.3780   21.6940   54.3940 O.2    24  GLU24      -0.2715
     80  CB         6.3400   24.4080   55.5220 C.3    24  GLU24       0.0429
     81  CG         7.0750   25.7260   55.6600 C.3    24  GLU24       0.1163
     82  CD         7.3240   26.4500   54.3610 C.2    24  GLU24       0.3649
     83  OE1        6.5600   26.2530   53.3830 O.co2  24  GLU24      -0.2457
     84  OE2        8.2740   27.2600   54.2490 O.co2  24  GLU24      -0.2457
     85  N          6.9690   21.0950   55.9030 N.am   25  GLY25      -0.1940
     86  CA         6.4280   19.7630   56.1640 C.3    25  GLY25       0.2014
     87  C          6.9710   18.6240   55.3100 C.2    25  GLY25       0.2639
     88  O          6.6470   17.4690   55.5800 O.2    25  GLY25      -0.2714
     89  N          7.7860   18.9180   54.2920 N.am   26  CYS26      -0.1967
     90  CA         8.2870   17.8590   53.3950 C.3    26  CYS26       0.1712
     91  C          9.5340   17.1610   53.9610 C.2    26  CYS26       0.2296
     92  O         10.5640   17.7940   54.1630 O.2    26  CYS26      -0.2864
     93  CB         8.6030   18.4020   51.9980 C.3    26  CYS26       0.0983
     94  SG         9.1220   17.1030   50.8550 S.3    26  CYS26      -0.0798
     95  N         -3.0570   10.2230   40.5220 N.3   137  TYR137     -0.1241
     96  CA        -2.4880   11.4770   40.0790 C.3   137  TYR137      0.1605
     97  C         -1.9830   11.2050   38.6420 C.2   137  TYR137      0.2264
     98  O         -0.9970   10.4880   38.4340 O.2   137  TYR137     -0.2867
     99  CB        -1.3280   11.9130   40.9920 C.3   137  TYR137      0.0534
    100  CG        -1.7350   12.4640   42.3590 C.ar  137  TYR137     -0.0201
    101  CD1       -2.3130   11.6240   43.3120 C.ar  137  TYR137     -0.0009
    102  CD2       -1.5580   13.8010   42.6950 C.ar  137  TYR137     -0.0009
    103  CE1       -2.6860   12.1090   44.5600 C.ar  137  TYR137      0.0417
    104  CE2       -1.9240   14.2900   43.9330 C.ar  137  TYR137      0.0417
    105  CZ        -2.4820   13.4470   44.8730 C.ar  137  TYR137      0.1957
    106  OH        -2.8630   13.9220   46.1420 O.3   137  TYR137     -0.2866
@<TRIPOS>BOND
     1    98    97    2
     2    97    96    1
     3    96    95    1
     4    96    99    1
     5    99   100    1
     6   100   102   ar
     7   100   101   ar
     8   102   104   ar
     9    11    10   ar
    10    11     9   ar
    11    10     8   ar
    12   101   103   ar
    13     9     7   ar
    14   104   105   ar
    15     8     6   ar
    16   103   105   ar
    17   105   106    1
    18     7     6   ar
    19     6     5    1
    20     1     2    1
    21     3     4    2
    22     3     2    1
    23     2     5    1
    24    28    26    1
    25    12    13    1
    26    64    65    2
    27    64    63    1
    28    15    14    2
    29    26    25    1
    30    66    67    1
    31    66    63    1
    32    66    68    1
    33    63    62    1
    34    13    14    1
    35    13    16    1
    36    14    21   am
    37    21    22    1
    38    16    17    1
    39    17    18    1
    40    25    22    1
    41    25    27    1
    42    62    53   am
    43    75    73    1
    44    22    23    1
    45    35    34    1
    46    35    29    1
    47    54    53    2
    48    53    52    1
    49    19    18    1
    50    19    20    1
    51    34    33    1
    52    55    52    1
    53    55    56    1
    54    23    29   am
    55    23    24    2
    56    73    74    1
    57    73    70    1
    58    29    30    1
    59    52    51    1
    60    94    93    1
    61    58    56   ar
    62    58    60   ar
    63    56    57   ar
    64    69    70    1
    65    33    30    1
    66    70    71    1
    67    30    31    1
    68    60    61   ar
    69    57    59   ar
    70    45    44    1
    71    51    49   am
    72    93    90    1
    73    32    31    2
    74    61    59   ar
    75    31    36   am
    76    71    72    2
    77    71    76   am
    78    46    44    1
    79    50    49    2
    80    49    48    1
    81    44    41    1
    82    83    82   ar
    83    90    91    1
    84    90    89    1
    85    76    77    1
    86    36    37    1
    87    91    92    2
    88    84    82   ar
    89    89    87   am
    90    40    41    1
    91    40    38   am
    92    41    42    1
    93    43    42    2
    94    82    81    1
    95    48    47    1
    96    79    78    2
    97    42    47   am
    98    77    78    1
    99    77    80    1
   100    37    38    1
   101    38    39    2
   102    78    85   am
   103    87    88    2
   104    87    86    1
   105    80    81    1
   106    85    86    1
