@<TRIPOS>MOLECULE
tmp/5q24A01.pdb
 79 73 0 0 0
SMALL
GASTEIGER

@<TRIPOS>ATOM
      1  N          9.7310   -2.5900   41.2200 N.3    77  ASP77      -0.1239
      2  CA         8.8800   -3.7530   41.4990 C.3    77  ASP77       0.1674
      3  C          9.1280   -4.3920   42.8680 C.2    77  ASP77       0.2266
      4  O          8.9420   -5.6190   43.0290 O.2    77  ASP77      -0.2867
      5  CB         9.0450   -4.8130   40.3930 C.3    77  ASP77       0.1410
      6  CG         8.7040   -4.2890   39.0110 C.2    77  ASP77       0.3668
      7  OD1        7.7070   -3.5380   38.8580 O.co2  77  ASP77      -0.2456
      8  OD2        9.4420   -4.6470   38.0580 O.co2  77  ASP77      -0.2456
      9  N          7.3350    1.6430   39.8300 N.3    90  LEU90      -0.1231
     10  CA         6.9810    0.8500   38.6440 C.3    90  LEU90       0.1693
     11  C          7.4690    1.5330   37.3660 C.2    90  LEU90       0.2592
     12  O          7.4470    2.7580   37.2660 O.2    90  LEU90      -0.2718
     13  CB         5.4640    0.6750   38.5550 C.3    90  LEU90       0.0284
     14  CG         4.7600    0.0530   39.7710 C.3    90  LEU90       0.0019
     15  CD1        3.2430    0.2580   39.6940 C.3    90  LEU90       0.0001
     16  CD2        5.1140   -1.4240   39.8510 C.3    90  LEU90       0.0001
     17  N          7.8880    0.7650   36.3670 N.am   91  ASP91      -0.1974
     18  CA         8.2920    1.3830   35.0980 C.3    91  ASP91       0.1709
     19  C          7.1240    2.1700   34.4530 C.2    91  ASP91       0.2293
     20  O          6.0110    1.6610   34.3370 O.2    91  ASP91      -0.2864
     21  CB         8.8510    0.3570   34.1250 C.3    91  ASP91       0.1436
     22  CG         9.6670    1.0060   33.0050 C.2    91  ASP91       0.3671
     23  OD1       10.9090    1.0350   33.0850 O.co2  91  ASP91      -0.2456
     24  OD2        9.0780    1.4810   32.0520 O.co2  91  ASP91      -0.2456
     25  N          7.1290    3.4670   31.2770 N.3    93  ASN93      -0.1240
     26  CA         7.1430    3.4470   29.7970 C.3    93  ASN93       0.1653
     27  C          7.1820    4.8810   29.2380 C.2    93  ASN93       0.2266
     28  O          6.4560    5.2090   28.2930 O.2    93  ASN93      -0.2867
     29  CB         5.9490    2.6730   29.2340 C.3    93  ASN93       0.1155
     30  CG         6.0600    2.4440   27.7430 C.2    93  ASN93       0.2627
     31  OD1        7.1460    2.1680   27.2210 O.2    93  ASN93      -0.2716
     32  ND2        4.9380    2.5440   27.0370 N.am   93  ASN93      -0.0877
     33  N          6.4590    5.3410   37.8560 N.3   100  MET100     -0.1196
     34  CA         5.2180    5.6320   38.5970 C.3   100  MET100      0.1786
     35  C          5.4800    5.2240   40.0590 C.2   100  MET100      0.2306
     36  O          6.3270    4.3390   40.3160 O.2   100  MET100     -0.2863
     37  CB         4.0210    4.8710   38.0130 C.2   100  MET100      0.0070
     38  CG         3.9590    4.8360   36.4820 C.2   100  MET100      0.0282
     39  SD         2.4210    4.1980   35.7880 S.3   100  MET100     -0.1125
     40  CE         2.6230    2.4340   36.0210 C.3   100  MET100      0.0742
     41  N          0.4450   -4.0060   29.2930 N.3   122  SER122     -0.1202
     42  CA         1.4000   -4.7170   30.1520 C.3   122  SER122      0.2020
     43  C          1.3930   -4.2260   31.6180 C.2   122  SER122      0.2618
     44  O          1.7210   -4.9800   32.5270 O.2   122  SER122     -0.2717
     45  CB         2.8080   -4.6600   29.5560 C.3   122  SER122      0.2103
     46  OG         3.3040   -3.3360   29.5220 O.3   122  SER122     -0.2182
     47  N          0.9820   -2.9710   31.8450 N.am  123  MET123     -0.1979
     48  CA         0.8240   -2.4420   33.2100 C.3   123  MET123      0.1605
     49  C         -0.2940   -3.1140   34.0220 C.2   123  MET123      0.2287
     50  O         -0.2810   -3.0690   35.2660 O.2   123  MET123     -0.2864
     51  CB         0.6160   -0.9070   33.1860 C.3   123  MET123      0.0413
     52  CG         1.7690   -0.1330   32.5830 C.3   123  MET123      0.0598
     53  SD         1.3890    1.5950   32.3450 S.3   123  MET123     -0.1393
     54  CE         3.0240    2.1620   31.8540 C.3   123  MET123      0.0692
     55  N         -0.6160   -6.1450   34.4070 N.3   125  ARG125     -0.1231
     56  CA         0.0210   -7.3010   35.0490 C.3   125  ARG125      0.1694
     57  C          1.3110   -6.9570   35.7950 C.2   125  ARG125      0.2593
     58  O          2.2120   -7.7790   35.9160 O.2   125  ARG125     -0.2718
     59  CB         0.3220   -8.3430   33.9860 C.3   125  ARG125      0.0321
     60  CG        -0.9110   -8.8210   33.2590 C.3   125  ARG125      0.0489
     61  CD        -0.5120   -9.6500   32.0660 C.3   125  ARG125      0.2205
     62  NE        -0.1620   -8.8610   30.8760 N.pl3 125  ARG125     -0.0865
     63  CZ        -1.0370   -8.2840   30.0490 C.cat 125  ARG125      0.5346
     64  NH1       -0.6080   -7.6400   28.9590 N.pl3 125  ARG125      0.1354
     65  NH2       -2.3440   -8.3400   30.2920 N.pl3 125  ARG125      0.1354
     66  N          1.4120   -5.7230   36.2660 N.am  126  SER126     -0.1938
     67  CA         2.4300   -5.3380   37.2450 C.3   126  SER126      0.2055
     68  C          1.8660   -5.6000   38.6570 C.2   126  SER126      0.2642
     69  O          0.7810   -6.1830   38.8020 O.2   126  SER126     -0.2714
     70  CB         2.7270   -3.8520   37.0740 C.3   126  SER126      0.2130
     71  OG         1.5810   -3.1050   37.4370 O.3   126  SER126     -0.2179
     72  N          2.5630   -5.1080   39.6870 N.am  127  LEU127     -0.1977
     73  CA         2.0370   -5.0860   41.0780 C.3   127  LEU127      0.1596
     74  C          0.7120   -4.2980   41.2570 C.2   127  LEU127      0.2287
     75  O          0.0930   -4.3810   42.3190 O.2   127  LEU127     -0.2864
     76  CB         3.0960   -4.5170   42.0610 C.3   127  LEU127      0.0297
     77  CG         4.4970   -5.1490   42.1840 C.3   127  LEU127      0.0022
     78  CD1        5.1670   -4.8460   43.5160 C.3   127  LEU127      0.0001
     79  CD2        4.4370   -6.6450   42.0100 C.3   127  LEU127      0.0001
@<TRIPOS>BOND
     1    32    30   am
     2    31    30    2
     3    30    29    1
     4    28    27    2
     5    64    63    1
     6    29    26    1
     7    27    26    1
     8    41    42    1
     9    46    45    1
    10    45    42    1
    11    26    25    1
    12    63    65    1
    13    63    62    2
    14    42    43    1
    15    62    61    1
    16    43    47   am
    17    43    44    2
    18    47    48    1
    19    54    53    1
    20    24    22   ar
    21    61    60    1
    22    53    52    1
    23    52    51    1
    24    22    23   ar
    25    22    21    1
    26    51    48    1
    27    48    49    1
    28    60    59    1
    29    59    56    1
    30    49    50    2
    31    21    18    1
    32    20    19    2
    33    55    56    1
    34    19    18    1
    35    56    57    1
    36    18    17    1
    37    39    40    1
    38    39    38    1
    39    57    58    2
    40    57    66   am
    41    66    67    1
    42    17    11   am
    43    38    37    2
    44    70    67    1
    45    70    71    1
    46    67    68    1
    47    12    11    2
    48    11    10    1
    49    33    34    1
    50    37    34    1
    51     8     6   ar
    52    13    10    1
    53    13    14    1
    54    34    35    1
    55    10     9    1
    56    68    69    2
    57    68    72   am
    58     7     6   ar
    59     6     5    1
    60    72    73    1
    61    15    14    1
    62    14    16    1
    63    35    36    2
    64     5     2    1
    65    73    74    1
    66    73    76    1
    67     1     2    1
    68    74    75    2
    69     2     3    1
    70    79    77    1
    71    76    77    1
    72    77    78    1
    73     3     4    2
