@<TRIPOS>MOLECULE
tmp/5q26A01.pdb
 120 119 0 0 0
SMALL
GASTEIGER

@<TRIPOS>ATOM
      1  N         -7.3090    3.9930   32.7290 N.3   305  VAL305     -0.1231
      2  CA        -8.1580    4.5010   33.8030 C.3   305  VAL305      0.1692
      3  C         -9.4070    3.6330   34.0170 C.2   305  VAL305      0.2591
      4  O         -9.8080    3.4370   35.1480 O.2   305  VAL305     -0.2718
      5  CB        -8.4910    5.9980   33.5850 C.3   305  VAL305      0.0266
      6  CG1       -9.4450    6.5490   34.6590 C.3   305  VAL305      0.0020
      7  CG2       -7.2160    6.8240   33.6210 C.3   305  VAL305      0.0020
      8  N        -10.0170    3.1430   32.9380 N.am  306  GLN306     -0.1979
      9  CA       -11.2330    2.2980   33.0190 C.3   306  GLN306      0.1601
     10  C        -10.9130    0.9250   33.6360 C.2   306  GLN306      0.2287
     11  O        -11.7720    0.3340   34.3000 O.2   306  GLN306     -0.2864
     12  CB       -11.9010    2.1500   31.6430 C.3   306  GLN306      0.0394
     13  CG       -12.6690    3.3770   31.2000 C.3   306  GLN306      0.0908
     14  CD       -13.3840    3.2150   29.8690 C.2   306  GLN306      0.2608
     15  OE1      -12.8130    2.6810   28.9010 O.2   306  GLN306     -0.2717
     16  NE2      -14.6470    3.6770   29.7980 N.am  306  GLN306     -0.0878
     17  N        -10.0140    1.8990   37.6660 N.3   309  LYS309     -0.1231
     18  CA       -11.2280    2.3210   38.3670 C.3   309  LYS309      0.1678
     19  C        -10.9670    3.1190   39.6660 C.2   309  LYS309      0.2434
     20  O        -11.4790    2.7700   40.7480 O.2   309  LYS309     -0.2733
     21  CB       -12.1290    1.1040   38.6500 C.3   309  LYS309      0.0284
     22  CG       -12.5080    0.3190   37.4250 C.3   309  LYS309      0.0035
     23  CD       -13.3300   -0.9040   37.7710 C.3   309  LYS309      0.0206
     24  CE       -14.0570   -1.4610   36.5590 C.3   309  LYS309      0.1093
     25  NZ       -13.1220   -2.0040   35.5360 N.3   309  LYS309     -0.1314
     26  N        -10.1950    4.2140   39.5670 N.am  310  PRO310     -0.2718
     27  CA        -9.8790    5.0050   40.7640 C.3   310  PRO310      0.1535
     28  C        -11.0860    5.7640   41.2960 C.2   310  PRO310      0.2598
     29  O        -11.9650    6.1480   40.5170 O.2   310  PRO310     -0.2715
     30  CB        -8.7990    5.9750   40.2480 C.3   310  PRO310      0.0310
     31  CG        -9.1910    6.1750   38.8230 C.3   310  PRO310      0.0237
     32  CD        -9.6710    4.8440   38.3410 C.3   310  PRO310      0.0939
     33  N        -11.1530    5.9710   42.6100 N.am  311  GLN311     -0.1964
     34  CA       -12.2590    6.7590   43.1960 C.3   311  GLN311      0.1733
     35  C        -12.1360    8.2720   42.9100 C.2   311  GLN311      0.2616
     36  O        -13.1520    8.9380   42.7450 O.2   311  GLN311     -0.2715
     37  CB       -12.4020    6.4950   44.7010 C.3   311  GLN311      0.0408
     38  CG       -12.7470    5.0440   45.0420 C.3   311  GLN311      0.0908
     39  CD       -12.8950    4.7830   46.5360 C.2   311  GLN311      0.2608
     40  OE1      -12.6040    5.6360   47.3680 O.2   311  GLN311     -0.2717
     41  NE2      -13.3440    3.5910   46.8760 N.am  311  GLN311     -0.0878
     42  N        -10.9030    8.7850   42.8240 N.am  312  LYS312     -0.1963
     43  CA       -10.6280   10.1890   42.5320 C.3   312  LYS312      0.1728
     44  C         -9.4170   10.3300   41.5890 C.2   312  LYS312      0.2616
     45  O         -8.4040    9.6220   41.7640 O.2   312  LYS312     -0.2715
     46  CB       -10.3610   10.9550   43.8290 C.3   312  LYS312      0.0311
     47  CG       -10.3740   12.4760   43.6870 C.3   312  LYS312      0.0038
     48  CD        -9.7770   13.2140   44.9050 C.3   312  LYS312      0.0206
     49  CE       -10.1040   14.7140   44.8160 C.3   312  LYS312      0.1093
     50  NZ        -9.7290   15.5960   45.9570 N.3   312  LYS312     -0.1314
     51  N         -9.5340   11.2350   40.6000 N.am  313  ILE313     -0.1977
     52  CA        -8.4410   11.5540   39.6610 C.3   313  ILE313      0.1596
     53  C         -8.0150   13.0050   39.8600 C.2   313  ILE313      0.2287
     54  O         -8.8560   13.8920   39.8850 O.2   313  ILE313     -0.2864
     55  CB        -8.8670   11.3320   38.1990 C.3   313  ILE313      0.0276
     56  CG1       -9.3880    9.9040   38.0120 C.3   313  ILE313      0.0022
     57  CG2       -7.7260   11.6100   37.2410 C.3   313  ILE313      0.0022
     58  CD1      -10.0780    9.6830   36.6960 C.3   313  ILE313      0.0001
     59  N        -13.4410   12.2560   32.1210 N.3   332  PHE332     -0.1227
     60  CA       -13.4160   11.3430   33.2610 C.3   332  PHE332      0.1736
     61  C        -14.8200   10.8140   33.6080 C.2   332  PHE332      0.2595
     62  O        -14.9630    9.6060   33.8830 O.2   332  PHE332     -0.2718
     63  CB       -12.8120   11.9680   34.5200 C.3   332  PHE332      0.0547
     64  CG       -11.4020   12.5310   34.3550 C.ar  332  PHE332     -0.0202
     65  CD1      -10.5020   12.0560   33.3960 C.ar  332  PHE332     -0.0042
     66  CD2      -10.9970   13.5640   35.1790 C.ar  332  PHE332     -0.0042
     67  CE1       -9.2190   12.5920   33.2860 C.ar  332  PHE332     -0.0003
     68  CE2       -9.7280   14.1230   35.0700 C.ar  332  PHE332     -0.0003
     69  CZ        -8.8270   13.6260   34.1210 C.ar  332  PHE332     -0.0000
     70  N        -15.8290   11.6890   33.6080 N.am  333  ARG333     -0.1980
     71  CA       -17.2150   11.2650   33.9000 C.3   333  ARG333      0.1597
     72  C        -17.7410   10.3590   32.7910 C.2   333  ARG333      0.2287
     73  O        -18.4090    9.3600   33.0740 O.2   333  ARG333     -0.2864
     74  CB       -18.1450   12.4700   34.1300 C.3   333  ARG333      0.0334
     75  CG       -19.5220   12.1270   34.7190 C.3   333  ARG333      0.0492
     76  CD       -19.4790   11.2480   35.9800 C.3   333  ARG333      0.2205
     77  NE       -18.7080   11.8330   37.0830 N.pl3 333  ARG333     -0.0865
     78  CZ       -18.8030   11.4700   38.3630 C.cat 333  ARG333      0.5346
     79  NH1      -18.0480   12.0670   39.2750 N.pl3 333  ARG333      0.1354
     80  NH2      -19.6560   10.5290   38.7400 N.pl3 333  ARG333      0.1354
     81  N        -15.9700    8.3130   30.9970 N.3   335  TRP335     -0.1227
     82  CA       -15.2900    7.0130   31.1930 C.3   335  TRP335      0.1737
     83  C        -15.8960    6.1640   32.3110 C.2   335  TRP335      0.2595
     84  O        -16.0600    4.9290   32.1710 O.2   335  TRP335     -0.2718
     85  CB       -13.7750    7.2070   31.4590 C.3   335  TRP335      0.0564
     86  CG       -12.9930    7.9280   30.3980 C.ar  335  TRP335      0.0003
     87  CD1      -13.3800    8.2340   29.1120 C.ar  335  TRP335      0.0946
     88  CD2      -11.6410    8.4110   30.5280 C.ar  335  TRP335      0.0152
     89  NE1      -12.3580    8.9080   28.4560 N.ar  335  TRP335     -0.2442
     90  CE2      -11.2850    9.0150   29.3020 C.ar  335  TRP335      0.0810
     91  CE3      -10.6990    8.4030   31.5740 C.ar  335  TRP335      0.0012
     92  CZ2      -10.0000    9.6030   29.0840 C.ar  335  TRP335      0.0191
     93  CZ3       -9.4170    8.9900   31.3360 C.ar  335  TRP335      0.0001
     94  CH2       -9.1120    9.5850   30.1120 C.ar  335  TRP335      0.0015
     95  N        -16.2090    6.8470   33.4060 N.am  336  LYS336     -0.1980
     96  CA       -16.7980    6.2770   34.6080 C.3   336  LYS336      0.1596
     97  C        -18.1900    5.7040   34.3400 C.2   336  LYS336      0.2287
     98  O        -18.4820    4.5710   34.7610 O.2   336  LYS336     -0.2864
     99  CB       -16.8670    7.3640   35.6750 C.3   336  LYS336      0.0298
    100  CG       -17.3300    6.9270   37.0530 C.3   336  LYS336      0.0038
    101  CD       -16.9680    7.9970   38.0750 C.3   336  LYS336      0.0206
    102  CE       -17.7230    7.8610   39.3810 C.3   336  LYS336      0.1093
    103  NZ       -17.1590    6.7990   40.2580 N.3   336  LYS336     -0.1314
    104  N        -17.8390    2.5380   31.7170 N.3   339  ALA339     -0.1245
    105  CA       -17.2510    1.3400   32.3340 C.3   339  ALA339      0.1562
    106  C        -18.0280    0.8520   33.5680 C.2   339  ALA339      0.2260
    107  O        -17.9730   -0.3280   33.8950 O.2   339  ALA339     -0.2867
    108  CB       -15.7930    1.5720   32.6640 C.3   339  ALA339      0.0290
    109  N        -18.2230    2.2170   36.9900 N.3   341  TYR341     -0.1241
    110  CA       -17.8290    2.4670   38.3750 C.3   341  TYR341      0.1605
    111  C        -18.3570    3.8060   38.8630 C.2   341  TYR341      0.2264
    112  O        -19.3000    4.3770   38.3030 O.2   341  TYR341     -0.2867
    113  CB       -16.3150    2.3500   38.5750 C.3   341  TYR341      0.0534
    114  CG       -15.4130    3.1900   37.6770 C.ar  341  TYR341     -0.0201
    115  CD1      -15.0280    4.4920   38.0210 C.ar  341  TYR341     -0.0009
    116  CD2      -14.8490    2.6430   36.5300 C.ar  341  TYR341     -0.0009
    117  CE1      -14.1610    5.2350   37.2300 C.ar  341  TYR341      0.0417
    118  CE2      -13.9600    3.3940   35.7420 C.ar  341  TYR341      0.0417
    119  CZ       -13.6370    4.6760   36.0930 C.ar  341  TYR341      0.1957
    120  OH       -12.7780    5.3580   35.2690 O.3   341  TYR341     -0.2866
@<TRIPOS>BOND
     1    89    87   ar
     2    89    90   ar
     3    15    14    2
     4    92    90   ar
     5    92    94   ar
     6    87    86   ar
     7    90    88   ar
     8    16    14   am
     9    14    13    1
    10    94    93   ar
    11    86    88   ar
    12    86    85    1
    13    88    91   ar
    14    81    82    1
    15    82    85    1
    16    82    83    1
    17    13    12    1
    18    93    91   ar
    19    12     9    1
    20   104   105    1
    21    59    60    1
    22    84    83    2
    23    83    95   am
    24   105   108    1
    25   105   106    1
    26     1     2    1
    27    72    73    2
    28    72    71    1
    29     8     9    1
    30     8     3   am
    31     9    10    1
    32    60    61    1
    33    60    63    1
    34    67    65   ar
    35    67    69   ar
    36    65    64   ar
    37    95    96    1
    38   106   107    2
    39     5     7    1
    40     5     2    1
    41     5     6    1
    42    70    61   am
    43    70    71    1
    44    61    62    2
    45    10    11    2
    46     2     3    1
    47    71    74    1
    48     3     4    2
    49    69    68   ar
    50    74    75    1
    51    97    96    1
    52    97    98    2
    53    64    63    1
    54    64    66   ar
    55    96    99    1
    56    75    76    1
    57    68    66   ar
    58   120   119    1
    59    25    24    1
    60    99   100    1
    61   118   119   ar
    62   118   116   ar
    63    76    77    1
    64   119   117   ar
    65   116   114   ar
    66    24    23    1
    67    58    56    1
    68   109   110    1
    69   100   101    1
    70    77    78    2
    71   117   115   ar
    72    57    55    1
    73    22    23    1
    74    22    21    1
    75    17    18    1
    76   114   115   ar
    77   114   113    1
    78    56    55    1
    79   101   102    1
    80    55    52    1
    81   112   111    2
    82    32    31    1
    83    32    26    1
    84    78    80    1
    85    78    79    1
    86    18    21    1
    87    18    19    1
    88   110   113    1
    89   110   111    1
    90    31    30    1
    91   102   103    1
    92    26    19   am
    93    26    27    1
    94    52    53    1
    95    52    51    1
    96    19    20    2
    97    53    54    2
    98    30    27    1
    99    29    28    2
   100    51    44   am
   101    27    28    1
   102    28    33   am
   103    44    45    2
   104    44    43    1
   105    43    42    1
   106    43    46    1
   107    33    34    1
   108    36    35    2
   109    42    35   am
   110    35    34    1
   111    34    37    1
   112    47    46    1
   113    47    48    1
   114    37    38    1
   115    49    48    1
   116    49    50    1
   117    38    39    1
   118    39    41   am
   119    39    40    2
