@<TRIPOS>MOLECULE
tmp/5q28A01.pdb
 136 134 0 0 0
SMALL
GASTEIGER

@<TRIPOS>ATOM
      1  N         -7.3190    3.9800   32.8000 N.3   305  VAL305     -0.1231
      2  CA        -8.1750    4.4970   33.8600 C.3   305  VAL305      0.1692
      3  C         -9.4420    3.6460   34.0580 C.2   305  VAL305      0.2591
      4  O         -9.8330    3.4360   35.2000 O.2   305  VAL305     -0.2718
      5  CB        -8.4820    5.9940   33.6390 C.3   305  VAL305      0.0266
      6  CG1       -9.4470    6.5490   34.7060 C.3   305  VAL305      0.0020
      7  CG2       -7.1860    6.8400   33.6430 C.3   305  VAL305      0.0020
      8  N        -10.0660    3.1390   32.9820 N.am  306  GLN306     -0.1979
      9  CA       -11.2690    2.2810   33.1250 C.3   306  GLN306      0.1601
     10  C        -10.8980    0.9200   33.7070 C.2   306  GLN306      0.2287
     11  O        -11.7420    0.2740   34.3610 O.2   306  GLN306     -0.2864
     12  CB       -12.0070    2.1120   31.7860 C.3   306  GLN306      0.0394
     13  CG       -12.6750    3.3830   31.2670 C.3   306  GLN306      0.0908
     14  CD       -13.3760    3.2120   29.9290 C.2   306  GLN306      0.2608
     15  OE1      -12.8170    2.6500   28.9700 O.2   306  GLN306     -0.2717
     16  NE2      -14.6140    3.7090   29.8460 N.am  306  GLN306     -0.0878
     17  N         -9.9760    1.9140   37.7610 N.3   309  LYS309     -0.1231
     18  CA       -11.1760    2.3690   38.4830 C.3   309  LYS309      0.1678
     19  C        -10.9010    3.0920   39.8240 C.2   309  LYS309      0.2434
     20  O        -11.4350    2.7000   40.8840 O.2   309  LYS309     -0.2733
     21  CB       -12.1530    1.2020   38.6870 C.3   309  LYS309      0.0284
     22  CG       -12.5790    0.5190   37.3930 C.3   309  LYS309      0.0035
     23  CD       -13.3570   -0.7470   37.6820 C.3   309  LYS309      0.0206
     24  CE       -14.1580   -1.2430   36.4890 C.3   309  LYS309      0.1093
     25  NZ       -13.2760   -1.8870   35.4700 N.3   309  LYS309     -0.1314
     26  N        -10.1450    4.2060   39.7750 N.am  310  PRO310     -0.2718
     27  CA        -9.8590    4.9940   40.9790 C.3   310  PRO310      0.1535
     28  C        -11.0880    5.7170   41.5010 C.2   310  PRO310      0.2598
     29  O        -12.0370    5.9190   40.7450 O.2   310  PRO310     -0.2715
     30  CB        -8.8130    6.0050   40.4850 C.3   310  PRO310      0.0310
     31  CG        -9.1960    6.2260   39.0640 C.3   310  PRO310      0.0237
     32  CD        -9.6520    4.8970   38.5550 C.3   310  PRO310      0.0939
     33  N        -11.0790    6.0980   42.7780 N.am  311  GLN311     -0.1964
     34  CA       -12.1830    6.8710   43.3690 C.3   311  GLN311      0.1733
     35  C        -12.0740    8.3700   43.0770 C.2   311  GLN311      0.2616
     36  O        -13.1010    9.0360   42.9650 O.2   311  GLN311     -0.2715
     37  CB       -12.3120    6.6410   44.8850 C.3   311  GLN311      0.0408
     38  CG       -12.6780    5.2020   45.2780 C.3   311  GLN311      0.0908
     39  CD       -12.7640    5.0000   46.7830 C.2   311  GLN311      0.2608
     40  OE1      -12.4500    5.8950   47.5690 O.2   311  GLN311     -0.2717
     41  NE2      -13.1860    3.8220   47.1890 N.am  311  GLN311     -0.0878
     42  N        -10.8420    8.8790   42.9680 N.am  312  LYS312     -0.1963
     43  CA       -10.5580   10.2780   42.6590 C.3   312  LYS312      0.1728
     44  C         -9.4230   10.3620   41.6060 C.2   312  LYS312      0.2616
     45  O         -8.4560    9.5930   41.6630 O.2   312  LYS312     -0.2715
     46  CB       -10.1530   11.0310   43.9410 C.3   312  LYS312      0.0311
     47  CG       -10.1580   12.5470   43.7930 C.3   312  LYS312      0.0038
     48  CD        -9.7070   13.2390   45.0750 C.3   312  LYS312      0.0206
     49  CE        -9.7490   14.7610   44.9470 C.3   312  LYS312      0.1093
     50  NZ       -11.1430   15.2570   44.8140 N.3   312  LYS312     -0.1314
     51  N         -9.5550   11.2840   40.6460 N.am  313  ILE313     -0.1977
     52  CA        -8.5240   11.5220   39.6200 C.3   313  ILE313      0.1596
     53  C         -8.0870   13.0040   39.7540 C.2   313  ILE313      0.2287
     54  O         -8.9340   13.9250   39.7830 O.2   313  ILE313     -0.2864
     55  CB        -9.0400   11.2350   38.1770 C.3   313  ILE313      0.0276
     56  CG1       -9.4840    9.7750   38.0370 C.3   313  ILE313      0.0022
     57  CG2       -7.9580   11.5870   37.1510 C.3   313  ILE313      0.0022
     58  CD1      -10.2740    9.4730   36.7880 C.3   313  ILE313      0.0001
     59  N         -5.6250   15.5440   37.7880 N.3   315  PRO315     -0.2116
     60  CA        -4.7280   15.7730   36.6470 C.3   315  PRO315      0.1372
     61  C         -3.4750   16.5050   37.0340 C.2   315  PRO315      0.2244
     62  O         -3.5240   17.3900   37.9060 O.2   315  PRO315     -0.2868
     63  CB        -5.5400   16.6800   35.7210 C.3   315  PRO315      0.0268
     64  CG        -6.9210   16.6300   36.2070 C.3   315  PRO315      0.0207
     65  CD        -6.9030   16.2560   37.6460 C.3   315  PRO315      0.0892
     66  N        -12.4000   16.9020   33.0330 N.3   329  GLU329     -0.1245
     67  CA       -13.4110   16.4160   33.9900 C.3   329  GLU329      0.1567
     68  C        -14.5910   15.7590   33.2860 C.2   329  GLU329      0.2260
     69  O        -15.0790   14.7150   33.7310 O.2   329  GLU329     -0.2867
     70  CB       -13.9160   17.5510   34.8740 C.3   329  GLU329      0.0388
     71  CG       -12.9270   17.9610   35.9520 C.3   329  GLU329      0.1160
     72  CD       -13.3290   19.2220   36.6870 C.2   329  GLU329      0.3649
     73  OE1      -12.6080   19.6120   37.6350 O.co2 329  GLU329     -0.2457
     74  OE2      -14.3560   19.8350   36.3080 O.co2 329  GLU329     -0.2457
     75  N        -13.4660   12.2850   32.0840 N.3   332  PHE332     -0.1227
     76  CA       -13.4150   11.3470   33.2180 C.3   332  PHE332      0.1736
     77  C        -14.8130   10.8020   33.5900 C.2   332  PHE332      0.2595
     78  O        -14.9810    9.6030   33.8480 O.2   332  PHE332     -0.2718
     79  CB       -12.7820   11.9830   34.4520 C.3   332  PHE332      0.0547
     80  CG       -11.3800   12.5500   34.2450 C.ar  332  PHE332     -0.0202
     81  CD1      -10.4640   12.0270   33.3050 C.ar  332  PHE332     -0.0042
     82  CD2      -10.9590   13.6050   35.0450 C.ar  332  PHE332     -0.0042
     83  CE1       -9.1900   12.5940   33.1680 C.ar  332  PHE332     -0.0003
     84  CE2       -9.6850   14.1620   34.9070 C.ar  332  PHE332     -0.0003
     85  CZ        -8.7970   13.6470   33.9630 C.ar  332  PHE332     -0.0000
     86  N        -15.7930   11.6940   33.6200 N.am  333  ARG333     -0.1980
     87  CA       -17.2050   11.3190   33.8730 C.3   333  ARG333      0.1597
     88  C        -17.7450   10.3890   32.7880 C.2   333  ARG333      0.2287
     89  O        -18.4170    9.4150   33.1080 O.2   333  ARG333     -0.2864
     90  CB       -18.0840   12.5730   34.0420 C.3   333  ARG333      0.0334
     91  CG       -19.5770   12.3210   34.1950 C.3   333  ARG333      0.0492
     92  CD       -19.9740   11.8090   35.5650 C.3   333  ARG333      0.2205
     93  NE       -20.1720   12.9060   36.5190 N.pl3 333  ARG333     -0.0865
     94  CZ       -20.4930   12.7550   37.8070 C.cat 333  ARG333      0.5346
     95  NH1      -20.6390   13.8320   38.5720 N.pl3 333  ARG333      0.1354
     96  NH2      -20.6660   11.5410   38.3420 N.pl3 333  ARG333      0.1354
     97  N        -15.9720    8.3380   30.9550 N.3   335  TRP335     -0.1227
     98  CA       -15.3010    7.0390   31.1420 C.3   335  TRP335      0.1737
     99  C        -15.9420    6.2250   32.2700 C.2   335  TRP335      0.2595
    100  O        -16.0960    5.0020   32.1830 O.2   335  TRP335     -0.2718
    101  CB       -13.8130    7.2050   31.4360 C.3   335  TRP335      0.0564
    102  CG       -13.0070    7.9570   30.3810 C.ar  335  TRP335      0.0003
    103  CD1      -13.3920    8.3090   29.1220 C.ar  335  TRP335      0.0946
    104  CD2      -11.6590    8.4120   30.5330 C.ar  335  TRP335      0.0152
    105  NE1      -12.3780    8.9990   28.4810 N.ar  335  TRP335     -0.2442
    106  CE2      -11.2910    9.0530   29.3240 C.ar  335  TRP335      0.0810
    107  CE3      -10.7250    8.3470   31.5860 C.ar  335  TRP335      0.0012
    108  CZ2      -10.0150    9.6370   29.1410 C.ar  335  TRP335      0.0191
    109  CZ3       -9.4480    8.9100   31.3840 C.ar  335  TRP335      0.0001
    110  CH2       -9.1280    9.5510   30.1730 C.ar  335  TRP335      0.0015
    111  N        -16.2920    6.9170   33.3480 N.am  336  LYS336     -0.1980
    112  CA       -16.9190    6.3010   34.5140 C.3   336  LYS336      0.1596
    113  C        -18.2970    5.7240   34.1630 C.2   336  LYS336      0.2287
    114  O        -18.5970    4.5790   34.5230 O.2   336  LYS336     -0.2864
    115  CB       -17.0270    7.3200   35.6460 C.3   336  LYS336      0.0298
    116  CG       -17.5430    6.8120   36.9940 C.3   336  LYS336      0.0038
    117  CD       -17.7510    7.9750   37.9760 C.3   336  LYS336      0.0206
    118  CE       -18.6610    7.6510   39.1600 C.3   336  LYS336      0.1093
    119  NZ       -17.9430    7.2320   40.3960 N.3   336  LYS336     -0.1314
    120  N        -17.9870    2.5830   31.9090 N.3   339  ALA339     -0.1245
    121  CA       -17.3570    1.4380   32.5800 C.3   339  ALA339      0.1562
    122  C        -17.9820    1.0550   33.9360 C.2   339  ALA339      0.2260
    123  O        -17.3980    0.2690   34.6870 O.2   339  ALA339     -0.2867
    124  CB       -15.8720    1.7150   32.7400 C.3   339  ALA339      0.0290
    125  N        -18.3810    2.1350   36.9900 N.3   341  TYR341     -0.1241
    126  CA       -17.8820    2.4710   38.3310 C.3   341  TYR341      0.1605
    127  C        -18.3260    3.8840   38.6950 C.2   341  TYR341      0.2264
    128  O        -19.3930    4.3270   38.2570 O.2   341  TYR341     -0.2867
    129  CB       -16.3530    2.2730   38.4590 C.3   341  TYR341      0.0534
    130  CG       -15.4660    3.1370   37.5760 C.ar  341  TYR341     -0.0201
    131  CD1      -14.8720    4.3000   38.0680 C.ar  341  TYR341     -0.0009
    132  CD2      -15.1870    2.7660   36.2580 C.ar  341  TYR341     -0.0009
    133  CE1      -14.0510    5.0830   37.2650 C.ar  341  TYR341      0.0417
    134  CE2      -14.3660    3.5420   35.4530 C.ar  341  TYR341      0.0417
    135  CZ       -13.8020    4.6960   35.9570 C.ar  341  TYR341      0.1957
    136  OH       -12.9960    5.4490   35.1370 O.3   341  TYR341     -0.2866
@<TRIPOS>BOND
     1   105   103   ar
     2   105   106   ar
     3    15    14    2
     4   103   102   ar
     5   108   106   ar
     6   108   110   ar
     7   106   104   ar
     8    16    14   am
     9    14    13    1
    10   110   109   ar
    11   102   104   ar
    12   102   101    1
    13   104   107   ar
    14    97    98    1
    15    98   101    1
    16    98    99    1
    17    13    12    1
    18   109   107   ar
    19    12     9    1
    20   120   121    1
    21    75    76    1
    22   100    99    2
    23    99   111   am
    24   121   124    1
    25   121   122    1
    26    88    89    2
    27    88    87    1
    28     1     2    1
    29     8     9    1
    30     8     3   am
    31    66    67    1
    32     9    10    1
    33    83    81   ar
    34    83    85   ar
    35    76    77    1
    36    76    79    1
    37    68    69    2
    38    68    67    1
    39    81    80   ar
    40   111   112    1
    41    77    86   am
    42    77    78    2
    43    86    87    1
    44     5     7    1
    45     5     2    1
    46     5     6    1
    47    10    11    2
    48     2     3    1
    49    87    90    1
    50   122   123    2
    51    85    84   ar
    52    67    70    1
    53    90    91    1
    54     3     4    2
    55   113   112    1
    56   113   114    2
    57    91    92    1
    58    80    79    1
    59    80    82   ar
    60   112   115    1
    61    70    71    1
    62    84    82   ar
    63   136   135    1
    64   134   135   ar
    65   134   132   ar
    66    25    24    1
    67    92    93    1
    68   115   116    1
    69    63    64    1
    70    63    60    1
    71    71    72    1
    72   135   133   ar
    73    64    65    1
    74   132   130   ar
    75    74    72   ar
    76    24    23    1
    77    93    94    2
    78    60    61    1
    79    60    59    1
    80    72    73   ar
    81    58    56    1
    82   125   126    1
    83   116   117    1
    84    61    62    2
    85    57    55    1
    86   133   131   ar
    87    22    23    1
    88    22    21    1
    89   130   131   ar
    90   130   129    1
    91    65    59    1
    92    17    18    1
    93    94    96    1
    94    94    95    1
    95   117   118    1
    96    56    55    1
    97    55    52    1
    98   128   127    2
    99   126   129    1
   100   126   127    1
   101    18    21    1
   102    18    19    1
   103    32    31    1
   104    32    26    1
   105    31    30    1
   106   118   119    1
   107    52    53    1
   108    52    51    1
   109    53    54    2
   110    26    19   am
   111    26    27    1
   112    19    20    2
   113    30    27    1
   114    51    44   am
   115    29    28    2
   116    27    28    1
   117    28    33   am
   118    44    45    2
   119    44    43    1
   120    43    42    1
   121    43    46    1
   122    33    34    1
   123    36    35    2
   124    42    35   am
   125    35    34    1
   126    34    37    1
   127    47    46    1
   128    47    48    1
   129    50    49    1
   130    37    38    1
   131    49    48    1
   132    38    39    1
   133    39    41   am
   134    39    40    2
