@<TRIPOS>MOLECULE
tmp/5q29A01.pdb
 115 115 0 0 0
SMALL
GASTEIGER

@<TRIPOS>ATOM
      1  N         -7.3500    3.9320   32.7550 N.3   305  VAL305     -0.1231
      2  CA        -8.2080    4.4490   33.8360 C.3   305  VAL305      0.1692
      3  C         -9.4470    3.5640   34.0320 C.2   305  VAL305      0.2591
      4  O         -9.8330    3.3120   35.1760 O.2   305  VAL305     -0.2718
      5  CB        -8.5670    5.9330   33.6120 C.3   305  VAL305      0.0266
      6  CG1       -9.5650    6.4480   34.6730 C.3   305  VAL305      0.0020
      7  CG2       -7.2800    6.7720   33.6570 C.3   305  VAL305      0.0020
      8  N        -10.0470    3.0870   32.9310 N.am  306  GLN306     -0.1979
      9  CA       -11.2370    2.2120   33.0020 C.3   306  GLN306      0.1601
     10  C        -10.8930    0.8380   33.5850 C.2   306  GLN306      0.2287
     11  O        -11.7520    0.2000   34.2210 O.2   306  GLN306     -0.2864
     12  CB       -11.9330    2.0900   31.6360 C.3   306  GLN306      0.0394
     13  CG       -12.7070    3.3420   31.2410 C.3   306  GLN306      0.0908
     14  CD       -13.4440    3.2300   29.9170 C.2   306  GLN306      0.2608
     15  OE1      -12.9020    2.7240   28.9250 O.2   306  GLN306     -0.2717
     16  NE2      -14.6900    3.7490   29.8800 N.am  306  GLN306     -0.0878
     17  N        -10.0170    1.7650   37.6530 N.3   309  LYS309     -0.1231
     18  CA       -11.2170    2.1730   38.4060 C.3   309  LYS309      0.1678
     19  C        -10.9350    2.9570   39.7110 C.2   309  LYS309      0.2434
     20  O        -11.4310    2.5910   40.7920 O.2   309  LYS309     -0.2733
     21  CB       -12.1150    0.9490   38.6880 C.3   309  LYS309      0.0284
     22  CG       -12.5410    0.2110   37.4230 C.3   309  LYS309      0.0035
     23  CD       -13.3610   -1.0360   37.7070 C.3   309  LYS309      0.0206
     24  CE       -14.1460   -1.4810   36.4780 C.3   309  LYS309      0.1093
     25  NZ       -13.2800   -1.9410   35.3540 N.3   309  LYS309     -0.1314
     26  N        -10.1650    4.0590   39.6190 N.am  310  PRO310     -0.2718
     27  CA        -9.8730    4.8720   40.8160 C.3   310  PRO310      0.1535
     28  C        -11.1090    5.5900   41.3440 C.2   310  PRO310      0.2598
     29  O        -12.0120    5.9100   40.5670 O.2   310  PRO310     -0.2715
     30  CB        -8.8400    5.8890   40.2920 C.3   310  PRO310      0.0310
     31  CG        -9.2870    6.1020   38.8840 C.3   310  PRO310      0.0237
     32  CD        -9.7020    4.7310   38.3900 C.3   310  PRO310      0.0939
     33  N        -11.1590    5.8450   42.6490 N.am  311  GLN311     -0.1964
     34  CA       -12.2480    6.6360   43.2240 C.3   311  GLN311      0.1733
     35  C        -12.1480    8.1220   42.8890 C.2   311  GLN311      0.2616
     36  O        -13.1800    8.7640   42.6880 O.2   311  GLN311     -0.2715
     37  CB       -12.3570    6.4370   44.7460 C.3   311  GLN311      0.0408
     38  CG       -12.7280    5.0160   45.1530 C.3   311  GLN311      0.0908
     39  CD       -12.8380    4.8360   46.6580 C.2   311  GLN311      0.2608
     40  OE1      -12.4510    5.7080   47.4310 O.2   311  GLN311     -0.2717
     41  NE2      -13.3690    3.7000   47.0790 N.am  311  GLN311     -0.0878
     42  N        -10.9260    8.6640   42.8400 N.am  312  LYS312     -0.1963
     43  CA       -10.6950   10.0820   42.5290 C.3   312  LYS312      0.1728
     44  C         -9.5140   10.2240   41.5650 C.2   312  LYS312      0.2616
     45  O         -8.5080    9.5180   41.7360 O.2   312  LYS312     -0.2715
     46  CB       -10.4160   10.8670   43.8150 C.3   312  LYS312      0.0311
     47  CG       -10.3570   12.3810   43.6240 C.3   312  LYS312      0.0038
     48  CD       -10.0110   13.0700   44.9400 C.3   312  LYS312      0.0206
     49  CE       -11.0060   12.8190   46.0580 C.3   312  LYS312      0.1093
     50  NZ       -10.5320   13.4360   47.3510 N.3   312  LYS312     -0.1314
     51  N         -9.6570   11.1170   40.5660 N.am  313  ILE313     -0.1977
     52  CA        -8.5820   11.4610   39.6180 C.3   313  ILE313      0.1596
     53  C         -8.1590   12.9050   39.8150 C.2   313  ILE313      0.2287
     54  O         -9.0190   13.8080   39.8600 O.2   313  ILE313     -0.2864
     55  CB        -9.0070   11.2560   38.1460 C.3   313  ILE313      0.0276
     56  CG1       -9.4860    9.8130   37.9390 C.3   313  ILE313      0.0022
     57  CG2       -7.8680   11.6190   37.1860 C.3   313  ILE313      0.0022
     58  CD1      -10.2020    9.5650   36.6350 C.3   313  ILE313      0.0001
     59  N        -13.5050   12.3450   32.1120 N.3   332  PHE332     -0.1227
     60  CA       -13.4570   11.4250   33.2520 C.3   332  PHE332      0.1736
     61  C        -14.8660   10.8780   33.6020 C.2   332  PHE332      0.2595
     62  O        -15.0280    9.6740   33.8570 O.2   332  PHE332     -0.2718
     63  CB       -12.8330   12.0580   34.4940 C.3   332  PHE332      0.0547
     64  CG       -11.4260   12.5900   34.3170 C.ar  332  PHE332     -0.0202
     65  CD1      -10.5300   12.0420   33.4010 C.ar  332  PHE332     -0.0042
     66  CD2      -10.9940   13.6450   35.1180 C.ar  332  PHE332     -0.0042
     67  CE1       -9.2490   12.5600   33.2620 C.ar  332  PHE332     -0.0003
     68  CE2       -9.7060   14.1660   34.9920 C.ar  332  PHE332     -0.0003
     69  CZ        -8.8410   13.6240   34.0460 C.ar  332  PHE332     -0.0000
     70  N        -15.8670   11.7580   33.6030 N.am  333  ARG333     -0.1980
     71  CA       -17.2680   11.3530   33.8710 C.3   333  ARG333      0.1597
     72  C        -17.7930   10.3870   32.8130 C.2   333  ARG333      0.2287
     73  O        -18.4390    9.3830   33.1600 O.2   333  ARG333     -0.2864
     74  CB       -18.1800   12.5790   34.0210 C.3   333  ARG333      0.0334
     75  CG       -19.6080   12.2620   34.4740 C.3   333  ARG333      0.0492
     76  CD       -19.7110   11.5700   35.8390 C.3   333  ARG333      0.2205
     77  NE       -19.0340   12.3180   36.9150 N.pl3 333  ARG333     -0.0865
     78  CZ       -19.0550   11.9990   38.2160 C.cat 333  ARG333      0.5346
     79  NH1      -18.3940   12.7590   39.0880 N.pl3 333  ARG333      0.1354
     80  NH2      -19.7280   10.9370   38.6630 N.pl3 333  ARG333      0.1354
     81  N        -15.9880    8.3100   31.0260 N.3   335  TRP335     -0.1227
     82  CA       -15.2990    7.0310   31.2420 C.3   335  TRP335      0.1737
     83  C        -15.9120    6.2250   32.3930 C.2   335  TRP335      0.2595
     84  O        -16.0740    4.9930   32.3070 O.2   335  TRP335     -0.2718
     85  CB       -13.8090    7.2530   31.5110 C.3   335  TRP335      0.0564
     86  CG       -13.0270    7.9700   30.4450 C.ar  335  TRP335      0.0003
     87  CD1      -13.4160    8.2670   29.1640 C.ar  335  TRP335      0.0946
     88  CD2      -11.6730    8.4310   30.5670 C.ar  335  TRP335      0.0152
     89  NE1      -12.4000    8.9260   28.5030 N.ar  335  TRP335     -0.2442
     90  CE2      -11.3200    9.0290   29.3440 C.ar  335  TRP335      0.0810
     91  CE3      -10.7380    8.4280   31.6120 C.ar  335  TRP335      0.0012
     92  CZ2      -10.0610    9.6120   29.1330 C.ar  335  TRP335      0.0191
     93  CZ3       -9.4660    9.0120   31.3810 C.ar  335  TRP335      0.0001
     94  CH2       -9.1580    9.5850   30.1590 C.ar  335  TRP335      0.0015
     95  N        -16.2800    6.9370   33.4590 N.am  336  LYS336     -0.1980
     96  CA       -16.8890    6.3360   34.6510 C.3   336  LYS336      0.1596
     97  C        -18.2810    5.7500   34.3310 C.2   336  LYS336      0.2287
     98  O        -18.5800    4.6190   34.7360 O.2   336  LYS336     -0.2864
     99  CB       -17.0030    7.3920   35.7540 C.3   336  LYS336      0.0298
    100  CG       -17.4130    6.8920   37.1370 C.3   336  LYS336      0.0038
    101  CD       -17.5540    8.0620   38.1100 C.3   336  LYS336      0.0206
    102  CE       -18.3770    7.7340   39.3510 C.3   336  LYS336      0.1093
    103  NZ       -17.5530    7.1970   40.4630 N.3   336  LYS336     -0.1314
    104  N        -18.2530    2.0940   36.9920 N.3   341  TYR341     -0.1241
    105  CA       -17.7280    2.3390   38.3440 C.3   341  TYR341      0.1605
    106  C        -18.1540    3.7220   38.8330 C.2   341  TYR341      0.2264
    107  O        -19.1520    4.2780   38.3590 O.2   341  TYR341     -0.2867
    108  CB       -16.1960    2.1390   38.4330 C.3   341  TYR341      0.0534
    109  CG       -15.3500    2.9740   37.4940 C.ar  341  TYR341     -0.0201
    110  CD1      -14.8710    4.2270   37.8740 C.ar  341  TYR341     -0.0009
    111  CD2      -15.0120    2.4990   36.2340 C.ar  341  TYR341     -0.0009
    112  CE1      -14.0970    4.9890   37.0140 C.ar  341  TYR341      0.0417
    113  CE2      -14.2340    3.2510   35.3700 C.ar  341  TYR341      0.0417
    114  CZ       -13.7750    4.4900   35.7630 C.ar  341  TYR341      0.1957
    115  OH       -13.0090    5.2280   34.8950 O.3   341  TYR341     -0.2866
@<TRIPOS>BOND
     1    89    87   ar
     2    89    90   ar
     3    15    14    2
     4    92    90   ar
     5    92    94   ar
     6    87    86   ar
     7    90    88   ar
     8    16    14   am
     9    14    13    1
    10    94    93   ar
    11    86    88   ar
    12    86    85    1
    13    88    91   ar
    14    81    82    1
    15    13    12    1
    16    82    85    1
    17    82    83    1
    18    93    91   ar
    19    12     9    1
    20    59    60    1
    21    84    83    2
    22    83    95   am
    23     1     2    1
    24    72    73    2
    25    72    71    1
    26     8     9    1
    27     8     3   am
    28     9    10    1
    29    60    61    1
    30    60    63    1
    31    67    65   ar
    32    67    69   ar
    33    65    64   ar
    34    95    96    1
    35    10    11    2
    36    61    70   am
    37    61    62    2
    38    70    71    1
    39     5     7    1
    40     5     2    1
    41     5     6    1
    42     2     3    1
    43    71    74    1
    44    74    75    1
    45     3     4    2
    46    69    68   ar
    47    64    63    1
    48    64    66   ar
    49    97    96    1
    50    97    98    2
    51    75    76    1
    52    96    99    1
    53   115   114    1
    54    68    66   ar
    55    25    24    1
    56   113   114   ar
    57   113   111   ar
    58    99   100    1
    59   114   112   ar
    60    76    77    1
    61   111   109   ar
    62    24    23    1
    63    58    56    1
    64    77    78    2
    65   104   105    1
    66   112   110   ar
    67   100   101    1
    68    57    55    1
    69    22    23    1
    70    22    21    1
    71   109   110   ar
    72   109   108    1
    73    17    18    1
    74    56    55    1
    75   101   102    1
    76    55    52    1
    77    78    80    1
    78    78    79    1
    79   105   108    1
    80   105   106    1
    81   107   106    2
    82    32    31    1
    83    32    26    1
    84    18    21    1
    85    18    19    1
    86    31    30    1
    87   102   103    1
    88    52    53    1
    89    52    51    1
    90    26    19   am
    91    26    27    1
    92    19    20    2
    93    53    54    2
    94    30    27    1
    95    51    44   am
    96    29    28    2
    97    27    28    1
    98    28    33   am
    99    44    45    2
   100    44    43    1
   101    43    42    1
   102    43    46    1
   103    33    34    1
   104    36    35    2
   105    42    35   am
   106    35    34    1
   107    34    37    1
   108    47    46    1
   109    47    48    1
   110    37    38    1
   111    48    49    1
   112    38    39    1
   113    49    50    1
   114    39    41   am
   115    39    40    2
