@<TRIPOS>MOLECULE
tmp/5qa4C00.pdb
 114 108 0 0 0
SMALL
GASTEIGER

@<TRIPOS>ATOM
      1  N         76.9410  241.4600   41.1600 N.3    78  ILE78      -0.1245
      2  CA        76.8740  240.0930   41.6710 C.3    78  ILE78       0.1561
      3  C         77.2460  240.1450   43.1470 C.2    78  ILE78       0.2260
      4  O         78.4070  240.3940   43.4920 O.2    78  ILE78      -0.2867
      5  CB        77.8070  239.1430   40.9060 C.3    78  ILE78       0.0252
      6  CG1       77.5430  239.1820   39.3940 C.3    78  ILE78       0.0019
      7  CG2       77.6770  237.7230   41.4590 C.3    78  ILE78       0.0019
      8  CD1       76.1610  238.7630   38.9900 C.3    78  ILE78       0.0001
      9  N         77.7360  237.9640   45.5670 N.3    80  THR80      -0.1203
     10  CA        78.7960  237.1010   46.0820 C.3    80  THR80       0.1994
     11  C         80.1830  237.5820   45.6790 C.2    80  THR80       0.2617
     12  O         81.1740  237.0970   46.2340 O.2    80  THR80      -0.2717
     13  CB        78.6150  235.6560   45.5990 C.3    80  THR80       0.1784
     14  OG1       78.5940  235.6290   44.1720 O.3    80  THR80      -0.2211
     15  CG2       77.3150  235.0450   46.1150 C.3    80  THR80       0.0376
     16  N         80.2850  238.5100   44.7270 N.am   81  TRP81      -0.1975
     17  CA        81.5890  239.0540   44.3560 C.3    81  TRP81       0.1640
     18  C         82.0740  240.1270   45.3170 C.2    81  TRP81       0.2290
     19  O         83.2710  240.4370   45.3250 O.2    81  TRP81      -0.2864
     20  CB        81.5480  239.6580   42.9490 C.3    81  TRP81       0.0576
     21  CG        81.3150  238.6590   41.8400 C.ar   81  TRP81       0.0006
     22  CD1       81.0520  237.3260   41.9690 C.ar   81  TRP81       0.0946
     23  CD2       81.3280  238.9330   40.4310 C.ar   81  TRP81       0.0152
     24  NE1       80.8950  236.7510   40.7220 N.ar   81  TRP81      -0.2442
     25  CE2       81.0600  237.7200   39.7650 C.ar   81  TRP81       0.0810
     26  CE3       81.5350  240.0920   39.6710 C.ar   81  TRP81       0.0012
     27  CZ2       80.9970  237.6320   38.3840 C.ar   81  TRP81       0.0191
     28  CZ3       81.4690  240.0000   38.2960 C.ar   81  TRP81       0.0001
     29  CH2       81.2060  238.7860   37.6670 C.ar   81  TRP81       0.0015
     30  N         84.1050  228.8200   42.6540 N.3    92  LYS92      -0.1231
     31  CA        82.7180  228.4720   42.9470 C.3    92  LYS92       0.1693
     32  C         81.7520  229.5670   42.4990 C.2    92  LYS92       0.2592
     33  O         80.7100  229.2840   41.8900 O.2    92  LYS92      -0.2718
     34  CB        82.5760  228.2080   44.4570 C.3    92  LYS92       0.0285
     35  CG        81.1520  227.8530   44.9170 C.3    92  LYS92       0.0035
     36  CD        81.0980  227.6110   46.4250 C.3    92  LYS92       0.0206
     37  CE        79.7000  227.2530   46.9380 C.3    92  LYS92       0.1093
     38  NZ        79.6790  227.0690   48.4340 N.3    92  LYS92      -0.1314
     39  N         82.0740  230.8220   42.7960 N.am   93  TYR93      -0.1962
     40  CA        81.1990  231.9510   42.5010 C.3    93  TYR93       0.1771
     41  C         81.6080  232.7000   41.2460 C.2    93  TYR93       0.2620
     42  O         81.0420  233.7640   40.9580 O.2    93  TYR93      -0.2715
     43  CB        81.1590  232.9110   43.6830 C.3    93  TYR93       0.0574
     44  CG        80.5590  232.2770   44.9100 C.ar   93  TYR93      -0.0198
     45  CD1       79.1970  232.0070   44.9760 C.ar   93  TYR93      -0.0009
     46  CD2       81.3560  231.9230   45.9920 C.ar   93  TYR93      -0.0009
     47  CE1       78.6460  231.4050   46.0820 C.ar   93  TYR93       0.0417
     48  CE2       80.8160  231.3240   47.1100 C.ar   93  TYR93       0.0417
     49  CZ        79.4550  231.0680   47.1560 C.ar   93  TYR93       0.1957
     50  OH        78.9030  230.4740   48.2690 O.3    93  TYR93      -0.2866
     51  N         82.5910  232.1810   40.5180 N.am   94  SER94      -0.1950
     52  CA        82.9950  232.7060   39.2160 C.3    94  SER94       0.1924
     53  C         83.2980  234.2090   39.2970 C.2    94  SER94       0.2314
     54  O         82.7550  235.0350   38.5550 O.2    94  SER94      -0.2863
     55  CB        81.9210  232.3810   38.1680 C.3    94  SER94       0.2116
     56  OG        82.4730  232.3600   36.8630 O.3    94  SER94      -0.2180
     57  N         84.9130  237.1210   38.5010 N.3    96  VAL96      -0.1245
     58  CA        85.7150  237.7350   37.4410 C.3    96  VAL96       0.1561
     59  C         86.7670  238.6980   37.9860 C.2    96  VAL96       0.2260
     60  O         87.9320  238.5990   37.5770 O.2    96  VAL96      -0.2867
     61  CB        84.7880  238.4030   36.4120 C.3    96  VAL96       0.0252
     62  CG1       85.5870  239.2120   35.3790 C.3    96  VAL96       0.0019
     63  CG2       83.9180  237.3500   35.7300 C.3    96  VAL96       0.0019
     64  N         81.5430  226.2000   35.0740 N.3   185  THR185     -0.1218
     65  CA        80.5620  226.8560   34.2310 C.3   185  THR185      0.1862
     66  C         81.1600  228.0690   33.5250 C.2   185  THR185      0.2287
     67  O         82.1500  228.6700   33.9690 O.2   185  THR185     -0.2866
     68  CB        79.3740  227.3500   35.0540 C.3   185  THR185      0.1770
     69  OG1       79.8590  228.2630   36.0430 O.3   185  THR185     -0.2211
     70  CG2       78.6380  226.2090   35.7230 C.3   185  THR185      0.0375
     71  N         79.6530  231.6860   31.0950 N.3   187  TYR187     -0.1241
     72  CA        78.5300  232.4830   30.6110 C.3   187  TYR187      0.1605
     73  C         79.1080  233.6450   29.8120 C.2   187  TYR187      0.2264
     74  O         79.6610  234.5750   30.3990 O.2   187  TYR187     -0.2867
     75  CB        77.7050  232.9740   31.7810 C.3   187  TYR187      0.0534
     76  CG        76.4780  233.7620   31.4570 C.ar  187  TYR187     -0.0201
     77  CD1       75.8320  233.6420   30.2430 C.ar  187  TYR187     -0.0009
     78  CD2       75.9440  234.6220   32.4050 C.ar  187  TYR187     -0.0009
     79  CE1       74.6840  234.3740   29.9800 C.ar  187  TYR187      0.0417
     80  CE2       74.8180  235.3640   32.1460 C.ar  187  TYR187      0.0417
     81  CZ        74.1890  235.2250   30.9460 C.ar  187  TYR187      0.1957
     82  OH        73.0650  235.9650   30.7140 O.3   187  TYR187     -0.2866
     83  N         78.5690  236.8180   27.5490 N.3   189  THR189     -0.1218
     84  CA        77.5470  237.8010   27.2380 C.3   189  THR189      0.1862
     85  C         78.0600  239.0490   26.5380 C.2   189  THR189      0.2287
     86  O         77.2380  239.8620   26.0970 O.2   189  THR189     -0.2866
     87  CB        76.8280  238.2350   28.5200 C.3   189  THR189      0.1770
     88  OG1       77.7820  238.7990   29.4140 O.3   189  THR189     -0.2211
     89  CG2       76.1340  237.0620   29.1930 C.3   189  THR189      0.0375
     90  N         69.8170  235.3780   31.2270 N.3   220  SER220     -0.1217
     91  CA        70.3520  234.6160   32.3510 C.3   220  SER220      0.1889
     92  C         69.3310  233.6440   32.9370 C.2   220  SER220      0.2288
     93  O         69.7030  232.8250   33.7880 O.2   220  SER220     -0.2866
     94  CB        70.8400  235.5650   33.4460 C.3   220  SER220      0.2089
     95  OG        69.7590  236.3370   33.9390 O.3   220  SER220     -0.2183
     96  N         70.3070  229.7580   32.8350 N.3   223  LEU223     -0.1245
     97  CA        71.6430  229.2880   33.1900 C.3   223  LEU223      0.1561
     98  C         71.5950  227.8950   33.8100 C.2   223  LEU223      0.2260
     99  O         72.4790  227.0660   33.5630 O.2   223  LEU223     -0.2867
    100  CB        72.3020  230.2820   34.1390 C.3   223  LEU223      0.0270
    101  CG        72.8080  231.5610   33.4750 C.3   223  LEU223      0.0019
    102  CD1       73.1720  232.5460   34.5490 C.3   223  LEU223      0.0001
    103  CD2       74.0090  231.2630   32.5770 C.3   223  LEU223      0.0001
    104  N         72.2510  224.5910   31.8440 N.3   226  ARG226     -0.1245
    105  CA        73.5710  224.0840   31.4860 C.3   226  ARG226      0.1563
    106  C         73.8240  222.7470   32.1610 C.2   226  ARG226      0.2260
    107  O         74.2310  221.7690   31.5140 O.2   226  ARG226     -0.2867
    108  CB        74.6560  225.0930   31.8690 C.3   226  ARG226      0.0307
    109  CG        74.5970  226.4410   31.1220 C.3   226  ARG226      0.0489
    110  CD        75.6150  227.4710   31.6760 C.3   226  ARG226      0.2205
    111  NE        75.3210  227.8190   33.0600 N.pl3 226  ARG226     -0.0865
    112  CZ        76.0070  228.6900   33.7980 C.cat 226  ARG226      0.5346
    113  NH1       75.6400  228.9200   35.0510 N.pl3 226  ARG226      0.1354
    114  NH2       77.0440  229.3430   33.2920 N.pl3 226  ARG226      0.1354
@<TRIPOS>BOND
     1    86    85    2
     2    85    84    1
     3    84    83    1
     4    84    87    1
     5    87    89    1
     6    87    88    1
     7    73    74    2
     8    73    72    1
     9    79    77   ar
    10    79    81   ar
    11    77    76   ar
    12    72    71    1
    13    72    75    1
    14    82    81    1
    15    81    80   ar
    16   109   110    1
    17   109   108    1
    18    90    91    1
    19    76    75    1
    20    76    78   ar
    21   105   104    1
    22   105   108    1
    23   105   106    1
    24   107   106    2
    25   110   111    1
    26    80    78   ar
    27    91    92    1
    28    91    94    1
    29   103   101    1
    30    96    97    1
    31    92    93    2
    32   111   112    2
    33    97    98    1
    34    97   100    1
    35   114   112    1
    36    94    95    1
    37   101   100    1
    38   101   102    1
    39    66    67    2
    40    66    65    1
    41    99    98    2
    42   112   113    1
    43    65    68    1
    44    65    64    1
    45    68    70    1
    46    68    69    1
    47    62    61    1
    48    63    61    1
    49    61    58    1
    50    56    55    1
    51    58    59    1
    52    58    57    1
    53    60    59    2
    54    29    28   ar
    55    29    27   ar
    56    55    52    1
    57    28    26   ar
    58    27    25   ar
    59    54    53    2
    60     8     6    1
    61    52    53    1
    62    52    51    1
    63     6     5    1
    64    26    23   ar
    65    25    23   ar
    66    25    24   ar
    67    23    21   ar
    68    51    41   am
    69    24    22   ar
    70     5     7    1
    71     5     2    1
    72    42    41    2
    73     1     2    1
    74    41    40    1
    75     2     3    1
    76    21    22   ar
    77    21    20    1
    78    33    32    2
    79    32    39   am
    80    32    31    1
    81    40    39    1
    82    40    43    1
    83    30    31    1
    84    31    34    1
    85    20    17    1
    86     3     4    2
    87    43    44    1
    88    14    13    1
    89    17    16    1
    90    17    18    1
    91    34    35    1
    92    16    11   am
    93    44    45   ar
    94    44    46   ar
    95    35    36    1
    96    45    47   ar
    97    18    19    2
    98     9    10    1
    99    13    10    1
   100    13    15    1
   101    11    10    1
   102    11    12    2
   103    46    48   ar
   104    47    49   ar
   105    36    37    1
   106    37    38    1
   107    48    49   ar
   108    49    50    1
