@<TRIPOS>MOLECULE
tmp/5qa5C00.pdb
 116 111 0 0 0
SMALL
GASTEIGER

@<TRIPOS>ATOM
      1  N         77.0600  241.5040   41.2050 N.3    79  ILE79      -0.1245
      2  CA        76.9480  240.1390   41.7210 C.3    79  ILE79       0.1561
      3  C         77.4110  240.1500   43.1720 C.2    79  ILE79       0.2260
      4  O         78.6070  240.2850   43.4570 O.2    79  ILE79      -0.2867
      5  CB        77.7480  239.1510   40.8630 C.3    79  ILE79       0.0252
      6  CG1       77.2380  239.2550   39.4170 C.3    79  ILE79       0.0019
      7  CG2       77.6260  237.7150   41.4090 C.3    79  ILE79       0.0019
      8  CD1       77.9180  238.3780   38.4790 C.3    79  ILE79       0.0001
      9  N         78.0080  238.0760   45.5240 N.3    81  THR81      -0.1203
     10  CA        79.0520  237.1820   46.0300 C.3    81  THR81       0.1994
     11  C         80.4460  237.6470   45.6380 C.2    81  THR81       0.2617
     12  O         81.4340  237.0920   46.1340 O.2    81  THR81      -0.2717
     13  CB        78.8400  235.7430   45.5420 C.3    81  THR81       0.1784
     14  OG1       78.8050  235.7200   44.1210 O.3    81  THR81      -0.2211
     15  CG2       77.5350  235.1610   46.0810 C.3    81  THR81       0.0376
     16  N         80.5460  238.6100   44.7270 N.am   82  TRP82      -0.1975
     17  CA        81.8330  239.1810   44.3610 C.3    82  TRP82       0.1640
     18  C         82.2880  240.2500   45.3430 C.2    82  TRP82       0.2290
     19  O         83.4840  240.5630   45.3910 O.2    82  TRP82      -0.2864
     20  CB        81.7600  239.7720   42.9500 C.3    82  TRP82       0.0576
     21  CG        81.5420  238.7640   41.8370 C.ar   82  TRP82       0.0006
     22  CD1       81.3100  237.4160   41.9660 C.ar   82  TRP82       0.0946
     23  CD2       81.5600  239.0280   40.4200 C.ar   82  TRP82       0.0152
     24  NE1       81.1840  236.8360   40.7130 N.ar   82  TRP82      -0.2442
     25  CE2       81.3300  237.8040   39.7560 C.ar   82  TRP82       0.0810
     26  CE3       81.7460  240.1810   39.6510 C.ar   82  TRP82       0.0012
     27  CZ2       81.2820  237.7070   38.3630 C.ar   82  TRP82       0.0191
     28  CZ3       81.6860  240.0810   38.2710 C.ar   82  TRP82       0.0001
     29  CH2       81.4580  238.8590   37.6440 C.ar   82  TRP82       0.0015
     30  N         84.4210  228.9490   42.5680 N.3    93  LYS93      -0.1231
     31  CA        83.0330  228.5800   42.8470 C.3    93  LYS93       0.1693
     32  C         82.0570  229.6650   42.4050 C.2    93  LYS93       0.2592
     33  O         81.0290  229.3730   41.7840 O.2    93  LYS93      -0.2718
     34  CB        82.8910  228.3150   44.3550 C.3    93  LYS93       0.0285
     35  CG        81.4720  227.9550   44.8450 C.3    93  LYS93       0.0035
     36  CD        81.4490  227.6680   46.3570 C.3    93  LYS93       0.0206
     37  CE        80.0530  227.3140   46.8880 C.3    93  LYS93       0.1093
     38  NZ        80.0630  227.0760   48.3650 N.3    93  LYS93      -0.1314
     39  N         82.3560  230.9210   42.7370 N.am   94  TYR94      -0.1962
     40  CA        81.4800  232.0540   42.4540 C.3    94  TYR94       0.1771
     41  C         81.8970  232.8120   41.1980 C.2    94  TYR94       0.2620
     42  O         81.3480  233.8810   40.9140 O.2    94  TYR94      -0.2715
     43  CB        81.4300  232.9800   43.6690 C.3    94  TYR94       0.0574
     44  CG        80.8000  232.3170   44.8790 C.ar   94  TYR94      -0.0198
     45  CD1       79.4160  232.1290   44.9630 C.ar   94  TYR94      -0.0009
     46  CD2       81.5880  231.8330   45.9140 C.ar   94  TYR94      -0.0009
     47  CE1       78.8380  231.5100   46.0800 C.ar   94  TYR94       0.0417
     48  CE2       81.0220  231.2110   47.0270 C.ar   94  TYR94       0.0417
     49  CZ        79.6430  231.0460   47.1020 C.ar   94  TYR94       0.1957
     50  OH        79.0660  230.4470   48.2160 O.3    94  TYR94      -0.2866
     51  N         82.8660  232.2730   40.4620 N.am   95  SER95      -0.1950
     52  CA        83.2900  232.8070   39.1760 C.3    95  SER95       0.1924
     53  C         83.5780  234.3060   39.2880 C.2    95  SER95       0.2314
     54  O         82.9990  235.1390   38.5770 O.2    95  SER95      -0.2863
     55  CB        82.2310  232.5020   38.1140 C.3    95  SER95       0.2116
     56  OG        82.8230  232.3480   36.8600 O.3    95  SER95      -0.2180
     57  N         81.8310  226.3660   34.9920 N.3   186  THR186     -0.1218
     58  CA        80.8330  227.0290   34.1720 C.3   186  THR186      0.1862
     59  C         81.4330  228.2360   33.4570 C.2   186  THR186      0.2287
     60  O         82.4470  228.8080   33.8710 O.2   186  THR186     -0.2866
     61  CB        79.6610  227.5040   35.0360 C.3   186  THR186      0.1770
     62  OG1       80.1850  228.3520   36.0740 O.3   186  THR186     -0.2211
     63  CG2       78.9060  226.3300   35.6490 C.3   186  THR186      0.0375
     64  N         79.9120  231.8530   31.0670 N.3   188  TYR188     -0.1241
     65  CA        78.7970  232.6640   30.5820 C.3   188  TYR188      0.1605
     66  C         79.3810  233.8090   29.7710 C.2   188  TYR188      0.2264
     67  O         79.9630  234.7340   30.3480 O.2   188  TYR188     -0.2867
     68  CB        77.9880  233.1890   31.7550 C.3   188  TYR188      0.0534
     69  CG        76.7370  233.9540   31.4200 C.ar  188  TYR188     -0.0201
     70  CD1       76.0960  233.8020   30.2000 C.ar  188  TYR188     -0.0009
     71  CD2       76.1680  234.8010   32.3640 C.ar  188  TYR188     -0.0009
     72  CE1       74.9170  234.5090   29.9190 C.ar  188  TYR188      0.0417
     73  CE2       75.0220  235.5120   32.0910 C.ar  188  TYR188      0.0417
     74  CZ        74.4010  235.3610   30.8780 C.ar  188  TYR188      0.1957
     75  OH        73.2430  236.0660   30.6420 O.3   188  TYR188     -0.2866
     76  N         78.8270  236.9500   27.4800 N.3   190  THR190     -0.1218
     77  CA        77.7930  237.9230   27.1740 C.3   190  THR190      0.1862
     78  C         78.2730  239.1610   26.4430 C.2   190  THR190      0.2287
     79  O         77.4370  240.0030   26.1220 O.2   190  THR190     -0.2866
     80  CB        77.1170  238.4080   28.4570 C.3   190  THR190      0.1770
     81  OG1       78.1020  239.0540   29.2700 O.3   190  THR190     -0.2211
     82  CG2       76.4970  237.2300   29.2140 C.3   190  THR190      0.0375
     83  N         70.0110  235.5560   31.1150 N.3   221  SER221     -0.1217
     84  CA        70.5470  234.8160   32.2510 C.3   221  SER221      0.1889
     85  C         69.5490  233.8180   32.8370 C.2   221  SER221      0.2288
     86  O         69.9390  233.0340   33.7130 O.2   221  SER221     -0.2866
     87  CB        70.9880  235.7860   33.3370 C.3   221  SER221      0.2089
     88  OG        69.8940  236.5630   33.7650 O.3   221  SER221     -0.2183
     89  N         70.5020  229.8970   32.7490 N.3   224  LEU224     -0.1245
     90  CA        71.8380  229.4330   33.1060 C.3   224  LEU224      0.1561
     91  C         71.8000  228.0410   33.7360 C.2   224  LEU224      0.2260
     92  O         72.7060  227.2280   33.5210 O.2   224  LEU224     -0.2867
     93  CB        72.5030  230.4320   34.0580 C.3   224  LEU224      0.0270
     94  CG        73.0070  231.7270   33.4150 C.3   224  LEU224      0.0019
     95  CD1       73.4360  232.7070   34.4860 C.3   224  LEU224      0.0001
     96  CD2       74.1640  231.4600   32.4490 C.3   224  LEU224      0.0001
     97  N         72.5380  224.7350   31.7330 N.3   227  ARG227     -0.1231
     98  CA        73.8480  224.2070   31.3600 C.3   227  ARG227      0.1694
     99  C         74.0800  222.8660   32.0410 C.2   227  ARG227      0.2591
    100  O         74.4170  221.8630   31.3860 O.2   227  ARG227     -0.2718
    101  CB        74.9540  225.1940   31.7290 C.3   227  ARG227      0.0321
    102  CG        74.8940  226.5320   30.9590 C.3   227  ARG227      0.0489
    103  CD        75.8470  227.5550   31.5550 C.3   227  ARG227      0.2205
    104  NE        75.5060  227.8940   32.9380 N.pl3 227  ARG227     -0.0865
    105  CZ        76.1890  228.7420   33.6980 C.cat 227  ARG227      0.5346
    106  NH1       75.7970  228.9760   34.9400 N.pl3 227  ARG227      0.1354
    107  NH2       77.2320  229.3900   33.2130 N.pl3 227  ARG227      0.1354
    108  N         73.8820  222.8310   33.3620 N.am  228  GLN228     -0.1979
    109  CA        74.0510  221.5960   34.1270 C.3   228  GLN228      0.1601
    110  C         72.8650  220.6460   33.9370 C.2   228  GLN228      0.2287
    111  O         73.0470  219.4220   33.9180 O.2   228  GLN228     -0.2864
    112  CB        74.2350  221.9120   35.6150 C.3   228  GLN228      0.0394
    113  CG        75.4510  222.7790   35.9540 C.3   228  GLN228      0.0908
    114  CD        75.1170  224.2530   36.0960 C.2   228  GLN228      0.2608
    115  OE1       74.1710  224.7750   35.4690 O.2   228  GLN228     -0.2717
    116  NE2       75.9220  224.9570   36.8880 N.am  228  GLN228     -0.0878
@<TRIPOS>BOND
     1    79    78    2
     2    78    77    1
     3    77    76    1
     4    77    80    1
     5    80    82    1
     6    80    81    1
     7    66    67    2
     8    66    65    1
     9    72    70   ar
    10    72    74   ar
    11    70    69   ar
    12    65    64    1
    13    65    68    1
    14    75    74    1
    15    74    73   ar
    16   102   103    1
    17   102   101    1
    18    83    84    1
    19    98   101    1
    20    98    97    1
    21    98    99    1
    22   100    99    2
    23    69    68    1
    24    69    71   ar
    25   103   104    1
    26    99   108   am
    27    73    71   ar
    28    84    85    1
    29    84    87    1
    30    96    94    1
    31    89    90    1
    32    85    86    2
    33   104   105    2
    34    90    91    1
    35    90    93    1
    36   107   105    1
    37    87    88    1
    38   108   109    1
    39    94    93    1
    40    94    95    1
    41    59    60    2
    42    59    58    1
    43    92    91    2
    44   105   106    1
    45   111   110    2
    46   110   109    1
    47   109   112    1
    48    58    57    1
    49    58    61    1
    50    61    63    1
    51    61    62    1
    52   115   114    2
    53   112   113    1
    54   113   114    1
    55   114   116   am
    56    56    55    1
    57    29    28   ar
    58    29    27   ar
    59    55    52    1
    60    28    26   ar
    61    27    25   ar
    62     8     6    1
    63    54    53    2
    64    52    53    1
    65    52    51    1
    66     6     5    1
    67    26    23   ar
    68    25    23   ar
    69    25    24   ar
    70    23    21   ar
    71    51    41   am
    72    24    22   ar
    73     5     7    1
    74     5     2    1
    75    42    41    2
    76    41    40    1
    77     1     2    1
    78     2     3    1
    79    33    32    2
    80    21    22   ar
    81    21    20    1
    82    32    39   am
    83    32    31    1
    84    40    39    1
    85    40    43    1
    86    30    31    1
    87    31    34    1
    88    20    17    1
    89     3     4    2
    90    43    44    1
    91    14    13    1
    92    34    35    1
    93    17    16    1
    94    17    18    1
    95    16    11   am
    96    35    36    1
    97    44    45   ar
    98    44    46   ar
    99    45    47   ar
   100    18    19    2
   101     9    10    1
   102    13    10    1
   103    13    15    1
   104    11    10    1
   105    11    12    2
   106    46    48   ar
   107    47    49   ar
   108    36    37    1
   109    37    38    1
   110    48    49   ar
   111    49    50    1
