@<TRIPOS>MOLECULE
tmp/5qa6D00.pdb
 123 117 0 0 0
SMALL
GASTEIGER

@<TRIPOS>ATOM
      1  N        121.1120  246.3210   41.1190 N.3    78  ILE78      -0.1245
      2  CA       120.9880  244.9650   41.6310 C.3    78  ILE78       0.1561
      3  C        121.4570  244.9640   43.0760 C.2    78  ILE78       0.2260
      4  O        122.6430  245.1730   43.3600 O.2    78  ILE78      -0.2867
      5  CB       121.7490  243.9690   40.7530 C.3    78  ILE78       0.0252
      6  CG1      121.1700  244.0750   39.3320 C.3    78  ILE78       0.0019
      7  CG2      121.6380  242.5650   41.3200 C.3    78  ILE78       0.0019
      8  CD1      121.8370  243.2390   38.3320 C.3    78  ILE78       0.0001
      9  N        122.0560  242.8820   45.4680 N.3    80  THR80      -0.1203
     10  CA       123.1200  242.0150   45.9610 C.3    80  THR80       0.1994
     11  C        124.5060  242.5160   45.5790 C.2    80  THR80       0.2617
     12  O        125.4990  242.0360   46.1420 O.2    80  THR80      -0.2717
     13  CB       122.9460  240.5880   45.4250 C.3    80  THR80       0.1784
     14  OG1      122.9580  240.5940   43.9990 O.3    80  THR80      -0.2211
     15  CG2      121.6300  239.9790   45.9110 C.3    80  THR80       0.0376
     16  N        124.6040  243.4550   44.6370 N.am   81  TRP81      -0.1975
     17  CA       125.8990  244.0110   44.2760 C.3    81  TRP81       0.1640
     18  C        126.3720  245.0700   45.2550 C.2    81  TRP81       0.2290
     19  O        127.5730  245.3570   45.3100 O.2    81  TRP81      -0.2864
     20  CB       125.8420  244.6210   42.8760 C.3    81  TRP81       0.0576
     21  CG       125.6520  243.6320   41.7570 C.ar   81  TRP81       0.0006
     22  CD1      125.4580  242.2890   41.8650 C.ar   81  TRP81       0.0946
     23  CD2      125.6490  243.9230   40.3500 C.ar   81  TRP81       0.0152
     24  NE1      125.3350  241.7220   40.6110 N.ar   81  TRP81      -0.2442
     25  CE2      125.4460  242.7080   39.6700 C.ar   81  TRP81       0.0810
     26  CE3      125.7930  245.0930   39.6060 C.ar   81  TRP81       0.0012
     27  CZ2      125.3810  242.6330   38.2880 C.ar   81  TRP81       0.0191
     28  CZ3      125.7270  245.0110   38.2290 C.ar   81  TRP81       0.0001
     29  CH2      125.5290  243.7990   37.5890 C.ar   81  TRP81       0.0015
     30  N        128.5130  233.8230   42.5820 N.3    92  LYS92      -0.1231
     31  CA       127.1320  233.4330   42.8580 C.3    92  LYS92       0.1693
     32  C        126.1460  234.5010   42.4090 C.2    92  LYS92       0.2592
     33  O        125.1210  234.1950   41.7840 O.2    92  LYS92      -0.2718
     34  CB       126.9750  233.1610   44.3670 C.3    92  LYS92       0.0285
     35  CG       125.5600  232.8000   44.8280 C.3    92  LYS92       0.0035
     36  CD       125.5130  232.5090   46.3550 C.3    92  LYS92       0.0206
     37  CE       124.1170  232.1770   46.8520 C.3    92  LYS92       0.1093
     38  NZ       124.1210  231.9250   48.3380 N.3    92  LYS92      -0.1314
     39  N        126.4410  235.7600   42.7150 N.am   93  TYR93      -0.1962
     40  CA       125.5550  236.8710   42.4000 C.3    93  TYR93       0.1771
     41  C        125.9840  237.6180   41.1430 C.2    93  TYR93       0.2620
     42  O        125.4230  238.6720   40.8410 O.2    93  TYR93      -0.2715
     43  CB       125.4880  237.8280   43.5900 C.3    93  TYR93       0.0574
     44  CG       124.9120  237.1730   44.8280 C.ar   93  TYR93      -0.0198
     45  CD1      123.5580  236.8820   44.9090 C.ar   93  TYR93      -0.0009
     46  CD2      125.7240  236.8190   45.8960 C.ar   93  TYR93      -0.0009
     47  CE1      123.0230  236.2710   46.0190 C.ar   93  TYR93       0.0417
     48  CE2      125.1990  236.1970   47.0190 C.ar   93  TYR93       0.0417
     49  CZ       123.8430  235.9230   47.0730 C.ar   93  TYR93       0.1957
     50  OH       123.2800  235.3190   48.1840 O.3    93  TYR93      -0.2866
     51  N        126.9700  237.0980   40.4160 N.am   94  SER94      -0.1950
     52  CA       127.4030  237.6510   39.1340 C.3    94  SER94       0.1924
     53  C        127.6930  239.1530   39.2430 C.2    94  SER94       0.2314
     54  O        127.1260  239.9830   38.5300 O.2    94  SER94      -0.2863
     55  CB       126.3570  237.3620   38.0520 C.3    94  SER94       0.2116
     56  OG       126.9770  237.2460   36.8010 O.3    94  SER94      -0.2180
     57  N        129.2140  242.1160   38.4880 N.3    96  VAL96      -0.1245
     58  CA       130.0170  242.7330   37.4150 C.3    96  VAL96       0.1561
     59  C        131.0850  243.6860   37.9580 C.2    96  VAL96       0.2260
     60  O        132.2520  243.5630   37.5580 O.2    96  VAL96      -0.2867
     61  CB       129.0970  243.4130   36.3940 C.3    96  VAL96       0.0252
     62  CG1      129.9040  244.2420   35.3860 C.3    96  VAL96       0.0019
     63  CG2      128.2520  242.3810   35.6630 C.3    96  VAL96       0.0019
     64  N        126.0140  231.2130   34.9350 N.3   185  THR185     -0.1218
     65  CA       125.0100  231.8660   34.1070 C.3   185  THR185      0.1862
     66  C        125.5990  233.0780   33.3940 C.2   185  THR185      0.2287
     67  O        126.6380  233.6200   33.7770 O.2   185  THR185     -0.2866
     68  CB       123.8050  232.3160   34.9420 C.3   185  THR185      0.1770
     69  OG1      124.2280  233.2280   35.9680 O.3   185  THR185     -0.2211
     70  CG2      123.1080  231.1190   35.5790 C.3   185  THR185      0.0375
     71  N        124.0860  236.6640   30.9300 N.3   187  TYR187     -0.1241
     72  CA       122.9590  237.4320   30.4330 C.3   187  TYR187      0.1605
     73  C        123.5250  238.5960   29.6300 C.2   187  TYR187      0.2264
     74  O        124.0520  239.5460   30.2120 O.2   187  TYR187     -0.2867
     75  CB       122.1030  237.9180   31.5880 C.3   187  TYR187      0.0534
     76  CG       120.8480  238.6560   31.2160 C.ar  187  TYR187     -0.0201
     77  CD1      120.2420  238.4800   29.9810 C.ar  187  TYR187     -0.0009
     78  CD2      120.2430  239.5130   32.1260 C.ar  187  TYR187     -0.0009
     79  CE1      119.0740  239.1530   29.6630 C.ar  187  TYR187      0.0417
     80  CE2      119.0830  240.1850   31.8090 C.ar  187  TYR187      0.0417
     81  CZ       118.5060  239.9980   30.5850 C.ar  187  TYR187      0.1957
     82  OH       117.3490  240.6770   30.2760 O.3   187  TYR187     -0.2866
     83  N        122.9630  241.7610   27.3630 N.3   189  THR189     -0.1218
     84  CA       121.9470  242.7510   27.0350 C.3   189  THR189      0.1862
     85  C        122.4790  243.9900   26.3370 C.2   189  THR189      0.2287
     86  O        121.6690  244.8090   25.8920 O.2   189  THR189     -0.2866
     87  CB       121.1960  243.2120   28.2920 C.3   189  THR189      0.1770
     88  OG1      122.1210  243.8110   29.1980 O.3   189  THR189     -0.2211
     89  CG2      120.4910  242.0360   28.9560 C.3   189  THR189      0.0375
     90  N        114.1000  240.2000   30.9950 N.3   220  SER220     -0.1217
     91  CA       114.6540  239.4840   32.1380 C.3   220  SER220      0.1889
     92  C        113.6690  238.4960   32.7510 C.2   220  SER220      0.2288
     93  O        114.0660  237.7120   33.6200 O.2   220  SER220     -0.2866
     94  CB       115.1110  240.4760   33.2120 C.3   220  SER220      0.2089
     95  OG       114.0370  241.2920   33.6490 O.3   220  SER220     -0.2183
     96  N        114.6310  234.5780   32.5920 N.3   223  LEU223     -0.1245
     97  CA       115.9700  234.1440   32.9640 C.3   223  LEU223      0.1561
     98  C        115.9650  232.7620   33.6020 C.2   223  LEU223      0.2260
     99  O        116.9260  232.0080   33.4340 O.2   223  LEU223     -0.2867
    100  CB       116.6070  235.1770   33.8910 C.3   223  LEU223      0.0270
    101  CG       117.0970  236.4510   33.2010 C.3   223  LEU223      0.0019
    102  CD1      117.4700  237.5080   34.2270 C.3   223  LEU223      0.0001
    103  CD2      118.2770  236.1600   32.2800 C.3   223  LEU223      0.0001
    104  N        116.8290  229.4260   31.5600 N.3   226  ARG226     -0.1231
    105  CA       118.1670  228.9360   31.2450 C.3   226  ARG226      0.1694
    106  C        118.4270  227.6070   31.9340 C.2   226  ARG226      0.2591
    107  O        118.8740  226.6410   31.3020 O.2   226  ARG226     -0.2718
    108  CB       119.2260  229.9610   31.6520 C.3   226  ARG226      0.0321
    109  CG       119.1380  231.3070   30.8870 C.3   226  ARG226      0.0489
    110  CD       120.0630  232.3680   31.4910 C.3   226  ARG226      0.2205
    111  NE       119.6900  232.7070   32.8540 N.pl3 226  ARG226     -0.0865
    112  CZ       120.3530  233.5650   33.6210 C.cat 226  ARG226      0.5346
    113  NH1      119.9270  233.8020   34.8380 N.pl3 226  ARG226      0.1354
    114  NH2      121.4300  234.1930   33.1740 N.pl3 226  ARG226      0.1354
    115  N        118.1880  227.5560   33.2430 N.am  227  GLN227     -0.1979
    116  CA       118.3660  226.3210   34.0000 C.3   227  GLN227      0.1601
    117  C        117.1980  225.3630   33.7880 C.2   227  GLN227      0.2287
    118  O        117.4050  224.1510   33.6770 O.2   227  GLN227     -0.2864
    119  CB       118.5300  226.6330   35.4940 C.3   227  GLN227      0.0394
    120  CG       119.7300  227.5160   35.8150 C.3   227  GLN227      0.0908
    121  CD       119.3700  228.9910   35.9490 C.2   227  GLN227      0.2608
    122  OE1      118.4000  229.4680   35.3560 O.2   227  GLN227     -0.2717
    123  NE2      120.1740  229.7240   36.7160 N.am  227  GLN227     -0.0878
@<TRIPOS>BOND
     1    86    85    2
     2    85    84    1
     3    84    83    1
     4    84    87    1
     5    87    89    1
     6    87    88    1
     7    73    74    2
     8    73    72    1
     9    79    77   ar
    10    79    81   ar
    11    77    76   ar
    12    82    81    1
    13    72    71    1
    14    72    75    1
    15    81    80   ar
    16   109   110    1
    17   109   108    1
    18    90    91    1
    19    76    75    1
    20    76    78   ar
    21   105   104    1
    22   105   108    1
    23   105   106    1
    24   107   106    2
    25   110   111    1
    26    80    78   ar
    27   106   115   am
    28    91    92    1
    29    91    94    1
    30   103   101    1
    31    96    97    1
    32    92    93    2
    33   111   112    2
    34    97    98    1
    35    97   100    1
    36   114   112    1
    37   101   100    1
    38   101   102    1
    39    94    95    1
    40   115   116    1
    41    66    67    2
    42    66    65    1
    43    99    98    2
    44   112   113    1
    45   118   117    2
    46   117   116    1
    47   116   119    1
    48    65    64    1
    49    65    68    1
    50    68    70    1
    51    68    69    1
    52   122   121    2
    53    62    61    1
    54   119   120    1
    55    63    61    1
    56   120   121    1
    57   121   123   am
    58    61    58    1
    59    56    55    1
    60    58    59    1
    61    58    57    1
    62    60    59    2
    63    29    28   ar
    64    29    27   ar
    65    55    52    1
    66    28    26   ar
    67    27    25   ar
    68     8     6    1
    69    54    53    2
    70    52    53    1
    71    52    51    1
    72     6     5    1
    73    26    23   ar
    74    25    23   ar
    75    25    24   ar
    76    23    21   ar
    77    51    41   am
    78    24    22   ar
    79     5     7    1
    80     5     2    1
    81    42    41    2
    82     1     2    1
    83    41    40    1
    84     2     3    1
    85    21    22   ar
    86    21    20    1
    87    33    32    2
    88    40    39    1
    89    40    43    1
    90    32    39   am
    91    32    31    1
    92    30    31    1
    93    31    34    1
    94    20    17    1
    95     3     4    2
    96    43    44    1
    97    14    13    1
    98    17    16    1
    99    17    18    1
   100    34    35    1
   101    16    11   am
   102    35    36    1
   103    44    45   ar
   104    44    46   ar
   105    45    47   ar
   106    18    19    2
   107    13    15    1
   108    13    10    1
   109     9    10    1
   110    11    10    1
   111    11    12    2
   112    46    48   ar
   113    47    49   ar
   114    36    37    1
   115    37    38    1
   116    48    49   ar
   117    49    50    1
