@<TRIPOS>MOLECULE
tmp/5qa7D00.pdb
 116 111 0 0 0
SMALL
GASTEIGER

@<TRIPOS>ATOM
      1  N        120.7760  245.3760   41.0660 N.3    78  ILE78      -0.1245
      2  CA       120.6880  244.0090   41.5600 C.3    78  ILE78       0.1561
      3  C        121.1370  244.0230   43.0120 C.2    78  ILE78       0.2260
      4  O        122.3160  244.2560   43.3090 O.2    78  ILE78      -0.2867
      5  CB       121.5230  243.0530   40.7040 C.3    78  ILE78       0.0252
      6  CG1      120.9970  243.1090   39.2620 C.3    78  ILE78       0.0019
      7  CG2      121.4540  241.6270   41.2690 C.3    78  ILE78       0.0019
      8  CD1      121.8610  242.4260   38.2710 C.3    78  ILE78       0.0001
      9  N        121.7140  241.8950   45.4010 N.3    80  THR80      -0.1203
     10  CA       122.7780  241.0300   45.9020 C.3    80  THR80       0.1994
     11  C        124.1600  241.5500   45.5340 C.2    80  THR80       0.2617
     12  O        125.1520  241.1210   46.1330 O.2    80  THR80      -0.2717
     13  CB       122.6130  239.5990   45.3730 C.3    80  THR80       0.1784
     14  OG1      122.5290  239.6150   43.9460 O.3    80  THR80      -0.2211
     15  CG2      121.3600  238.9460   45.9530 C.3    80  THR80       0.0376
     16  N        124.2490  242.4650   44.5690 N.am   81  TRP81      -0.1975
     17  CA       125.5310  243.0500   44.2000 C.3    81  TRP81       0.1640
     18  C        125.9740  244.1350   45.1670 C.2    81  TRP81       0.2290
     19  O        127.1660  244.4560   45.2090 O.2    81  TRP81      -0.2864
     20  CB       125.4530  243.6490   42.7950 C.3    81  TRP81       0.0576
     21  CG       125.2720  242.6510   41.6950 C.ar   81  TRP81       0.0006
     22  CD1      125.0480  241.3150   41.8220 C.ar   81  TRP81       0.0946
     23  CD2      125.3150  242.9200   40.2880 C.ar   81  TRP81       0.0152
     24  NE1      124.9470  240.7320   40.5760 N.ar   81  TRP81      -0.2442
     25  CE2      125.1050  241.7000   39.6210 C.ar   81  TRP81       0.0810
     26  CE3      125.5070  244.0780   39.5310 C.ar   81  TRP81       0.0012
     27  CZ2      125.0820  241.6020   38.2290 C.ar   81  TRP81       0.0191
     28  CZ3      125.4810  243.9810   38.1450 C.ar   81  TRP81       0.0001
     29  CH2      125.2760  242.7520   37.5120 C.ar   81  TRP81       0.0015
     30  N        128.2420  232.8880   42.6220 N.3    92  LYS92      -0.1231
     31  CA       126.8580  232.5070   42.9010 C.3    92  LYS92       0.1693
     32  C        125.8770  233.5790   42.4480 C.2    92  LYS92       0.2592
     33  O        124.8370  233.2700   41.8520 O.2    92  LYS92      -0.2718
     34  CB       126.6900  232.2450   44.4060 C.3    92  LYS92       0.0285
     35  CG       125.2610  231.9320   44.8620 C.3    92  LYS92       0.0035
     36  CD       125.2150  231.6420   46.3670 C.3    92  LYS92       0.0206
     37  CE       123.8060  231.3640   46.8690 C.3    92  LYS92       0.1093
     38  NZ       123.7790  231.0920   48.3500 N.3    92  LYS92      -0.1314
     39  N        126.1850  234.8420   42.7220 N.am   93  TYR93      -0.1962
     40  CA       125.2800  235.9390   42.4070 C.3    93  TYR93       0.1771
     41  C        125.6880  236.6710   41.1370 C.2    93  TYR93       0.2620
     42  O        125.0810  237.6940   40.8020 O.2    93  TYR93      -0.2715
     43  CB       125.1940  236.9000   43.5940 C.3    93  TYR93       0.0574
     44  CG       124.5870  236.2410   44.8200 C.ar   93  TYR93      -0.0198
     45  CD1      123.2250  235.9540   44.8790 C.ar   93  TYR93      -0.0009
     46  CD2      125.3760  235.8810   45.9050 C.ar   93  TYR93      -0.0009
     47  CE1      122.6680  235.3390   45.9910 C.ar   93  TYR93       0.0417
     48  CE2      124.8270  235.2620   47.0190 C.ar   93  TYR93       0.0417
     49  CZ       123.4750  234.9930   47.0570 C.ar   93  TYR93       0.1957
     50  OH       122.9280  234.3800   48.1660 O.3    93  TYR93      -0.2866
     51  N        126.6850  236.1520   40.4200 N.am   94  SER94      -0.1950
     52  CA       127.1180  236.6750   39.1260 C.3    94  SER94       0.1924
     53  C        127.3950  238.1780   39.2160 C.2    94  SER94       0.2314
     54  O        126.8510  239.0010   38.4680 O.2    94  SER94      -0.2863
     55  CB       126.0860  236.3430   38.0420 C.3    94  SER94       0.2116
     56  OG       126.6900  236.3340   36.7650 O.3    94  SER94      -0.2180
     57  N        125.7620  230.1660   34.9360 N.3   185  THR185     -0.1218
     58  CA       124.7820  230.8080   34.0690 C.3   185  THR185      0.1862
     59  C        125.3730  232.0310   33.3620 C.2   185  THR185      0.2287
     60  O        126.3460  232.6440   33.8130 O.2   185  THR185     -0.2866
     61  CB       123.5630  231.2890   34.8600 C.3   185  THR185      0.1770
     62  OG1      123.9890  232.2100   35.8750 O.3   185  THR185     -0.2211
     63  CG2      122.7780  230.1220   35.4870 C.3   185  THR185      0.0375
     64  N        123.8260  235.6040   30.8760 N.3   187  TYR187     -0.1241
     65  CA       122.6940  236.3720   30.3630 C.3   187  TYR187      0.1605
     66  C        123.2780  237.5300   29.5670 C.2   187  TYR187      0.2264
     67  O        123.8550  238.4530   30.1550 O.2   187  TYR187     -0.2867
     68  CB       121.8200  236.8670   31.5190 C.3   187  TYR187      0.0534
     69  CG       120.5630  237.6140   31.1450 C.ar  187  TYR187     -0.0201
     70  CD1      119.9550  237.4480   29.9040 C.ar  187  TYR187     -0.0009
     71  CD2      119.9720  238.4840   32.0540 C.ar  187  TYR187     -0.0009
     72  CE1      118.7840  238.1380   29.5840 C.ar  187  TYR187      0.0417
     73  CE2      118.8200  239.1720   31.7450 C.ar  187  TYR187      0.0417
     74  CZ       118.2310  238.9980   30.5160 C.ar  187  TYR187      0.1957
     75  OH       117.0800  239.6970   30.2320 O.3   187  TYR187     -0.2866
     76  N        122.7120  240.6620   27.2520 N.3   189  THR189     -0.1218
     77  CA       121.6840  241.6420   26.9200 C.3   189  THR189      0.1862
     78  C        122.1950  242.8810   26.2030 C.2   189  THR189      0.2287
     79  O        121.3720  243.6730   25.7300 O.2   189  THR189     -0.2866
     80  CB       120.9550  242.1040   28.1900 C.3   189  THR189      0.1770
     81  OG1      121.8910  242.7480   29.0610 O.3   189  THR189     -0.2211
     82  CG2      120.3210  240.9210   28.9120 C.3   189  THR189      0.0375
     83  N        113.8520  239.1250   30.8140 N.3   220  SER220     -0.1217
     84  CA       114.4160  238.4360   31.9700 C.3   220  SER220      0.1889
     85  C        113.4470  237.4470   32.6050 C.2   220  SER220      0.2288
     86  O        113.8650  236.6530   33.4540 O.2   220  SER220     -0.2866
     87  CB       114.8590  239.4560   33.0240 C.3   220  SER220      0.2089
     88  OG       113.7580  240.2330   33.4760 O.3   220  SER220     -0.2183
     89  N        114.4350  233.5650   32.4800 N.3   223  LEU223     -0.1245
     90  CA       115.7790  233.1270   32.8530 C.3   223  LEU223      0.1561
     91  C        115.7700  231.7440   33.4890 C.2   223  LEU223      0.2260
     92  O        116.7170  230.9780   33.3020 O.2   223  LEU223     -0.2867
     93  CB       116.4210  234.1400   33.8060 C.3   223  LEU223      0.0270
     94  CG       116.8790  235.4530   33.1680 C.3   223  LEU223      0.0019
     95  CD1      117.2790  236.4600   34.2380 C.3   223  LEU223      0.0001
     96  CD2      118.0320  235.2080   32.1900 C.3   223  LEU223      0.0001
     97  N        116.6490  228.4000   31.5100 N.3   226  ARG226     -0.1231
     98  CA       117.9910  227.9140   31.2040 C.3   226  ARG226      0.1694
     99  C        118.2520  226.5890   31.9090 C.2   226  ARG226      0.2591
    100  O        118.6720  225.6060   31.2860 O.2   226  ARG226     -0.2718
    101  CB       119.0410  228.9590   31.6040 C.3   226  ARG226      0.0321
    102  CG       118.9520  230.2670   30.8020 C.3   226  ARG226      0.0489
    103  CD       119.8570  231.3400   31.3920 C.3   226  ARG226      0.2205
    104  NE       119.4840  231.6760   32.7630 N.pl3 226  ARG226     -0.0865
    105  CZ       120.1240  232.5670   33.5150 C.cat 226  ARG226      0.5346
    106  NH1      119.7190  232.8040   34.7510 N.pl3 226  ARG226      0.1354
    107  NH2      121.1670  233.2300   33.0280 N.pl3 226  ARG226      0.1354
    108  N        117.9960  226.5430   33.2130 N.am  227  GLN227     -0.1979
    109  CA       118.1870  225.3100   33.9650 C.3   227  GLN227      0.1601
    110  C        117.0420  224.3290   33.7360 C.2   227  GLN227      0.2287
    111  O        117.2730  223.1190   33.6330 O.2   227  GLN227     -0.2864
    112  CB       118.3240  225.6280   35.4580 C.3   227  GLN227      0.0394
    113  CG       119.5140  226.5300   35.7980 C.3   227  GLN227      0.0908
    114  CD       119.1290  227.9950   35.9260 C.2   227  GLN227      0.2608
    115  OE1      118.2180  228.4790   35.2430 O.2   227  GLN227     -0.2717
    116  NE2      119.8290  228.7140   36.8020 N.am  227  GLN227     -0.0878
@<TRIPOS>BOND
     1    79    78    2
     2    78    77    1
     3    77    76    1
     4    77    80    1
     5    80    82    1
     6    80    81    1
     7    66    67    2
     8    66    65    1
     9    72    70   ar
    10    72    74   ar
    11    70    69   ar
    12    75    74    1
    13    65    64    1
    14    65    68    1
    15    74    73   ar
    16   102   103    1
    17   102   101    1
    18    83    84    1
    19    69    68    1
    20    69    71   ar
    21    98    97    1
    22    98   101    1
    23    98    99    1
    24   100    99    2
    25   103   104    1
    26    73    71   ar
    27    99   108   am
    28    84    85    1
    29    84    87    1
    30    96    94    1
    31    89    90    1
    32    85    86    2
    33   104   105    2
    34    90    91    1
    35    90    93    1
    36    87    88    1
    37   107   105    1
    38    94    93    1
    39    94    95    1
    40   108   109    1
    41    92    91    2
    42    59    60    2
    43    59    58    1
    44   105   106    1
    45   111   110    2
    46   110   109    1
    47   109   112    1
    48    58    61    1
    49    58    57    1
    50    61    63    1
    51    61    62    1
    52   115   114    2
    53   112   113    1
    54   113   114    1
    55   114   116   am
    56    56    55    1
    57    29    28   ar
    58    29    27   ar
    59    55    52    1
    60    28    26   ar
    61    27    25   ar
    62     8     6    1
    63    54    53    2
    64    52    53    1
    65    52    51    1
    66     6     5    1
    67    26    23   ar
    68    25    23   ar
    69    25    24   ar
    70    23    21   ar
    71    51    41   am
    72    24    22   ar
    73     5     7    1
    74     5     2    1
    75    42    41    2
    76     1     2    1
    77    41    40    1
    78     2     3    1
    79    21    22   ar
    80    21    20    1
    81    33    32    2
    82    40    39    1
    83    40    43    1
    84    32    39   am
    85    32    31    1
    86    30    31    1
    87    20    17    1
    88    31    34    1
    89     3     4    2
    90    43    44    1
    91    14    13    1
    92    17    16    1
    93    17    18    1
    94    34    35    1
    95    16    11   am
    96    44    45   ar
    97    44    46   ar
    98    35    36    1
    99    45    47   ar
   100    18    19    2
   101    13    10    1
   102    13    15    1
   103     9    10    1
   104    11    10    1
   105    11    12    2
   106    46    48   ar
   107    47    49   ar
   108    36    37    1
   109    37    38    1
   110    48    49   ar
   111    49    50    1
