@<TRIPOS>MOLECULE
tmp/5qa8C00.pdb
 123 117 0 0 0
SMALL
GASTEIGER

@<TRIPOS>ATOM
      1  N          1.9580  -44.1840   16.7740 N.3    47  SER47      -0.1217
      2  CA         3.3010  -43.9430   16.2580 C.3    47  SER47       0.1889
      3  C          3.3200  -43.5760   14.7790 C.2    47  SER47       0.2288
      4  O          4.3420  -43.0730   14.3000 O.2    47  SER47      -0.2866
      5  CB         4.1770  -45.1730   16.4940 C.3    47  SER47       0.2089
      6  OG         4.3150  -45.4390   17.8800 O.3    47  SER47      -0.2183
      7  N         10.5250  -49.5560   29.9550 N.3    77  ASP77      -0.1225
      8  CA        10.3240  -50.9860   29.7500 C.3    77  ASP77       0.1805
      9  C         10.7760  -51.4630   28.3770 C.2    77  ASP77       0.2597
     10  O         10.8880  -52.6760   28.1700 O.2    77  ASP77      -0.2718
     11  CB         8.8530  -51.3520   29.9570 C.3    77  ASP77       0.1424
     12  CG         7.9220  -50.5450   29.0810 C.2    77  ASP77       0.3668
     13  OD1        8.4080  -49.6520   28.3570 O.co2  77  ASP77      -0.2456
     14  OD2        6.7010  -50.8060   29.1190 O.co2  77  ASP77      -0.2456
     15  N         11.0320  -50.5550   27.4420 N.am   78  ILE78      -0.1980
     16  CA        11.4280  -50.9070   26.0840 C.3    78  ILE78       0.1595
     17  C         12.9190  -50.6300   25.9620 C.2    78  ILE78       0.2287
     18  O         13.3500  -49.4700   25.9480 O.2    78  ILE78      -0.2864
     19  CB        10.6140  -50.1290   25.0430 C.3    78  ILE78       0.0276
     20  CG1        9.1370  -50.5190   25.1570 C.3    78  ILE78       0.0022
     21  CG2       11.1330  -50.4010   23.6360 C.3    78  ILE78       0.0022
     22  CD1        8.2000  -49.5900   24.4330 C.3    78  ILE78       0.0001
     23  N         15.2290  -50.7490   23.6330 N.3    80  THR80      -0.1203
     24  CA        15.7630  -49.9170   22.5610 C.3    80  THR80       0.1994
     25  C         15.5430  -48.4340   22.8220 C.2    80  THR80       0.2617
     26  O         16.1950  -47.6010   22.1830 O.2    80  THR80      -0.2717
     27  CB        15.1360  -50.3030   21.2180 C.3    80  THR80       0.1784
     28  OG1       13.7270  -50.0520   21.2500 O.3    80  THR80      -0.2211
     29  CG2       15.3810  -51.7760   20.9120 C.3    80  THR80       0.0376
     30  N         14.6450  -48.0820   23.7440 N.am   81  TRP81      -0.1975
     31  CA        14.4520  -46.6820   24.0980 C.3    81  TRP81       0.1640
     32  C         15.5350  -46.1690   25.0390 C.2    81  TRP81       0.2290
     33  O         15.7220  -44.9510   25.1420 O.2    81  TRP81      -0.2864
     34  CB        13.0770  -46.4810   24.7430 C.3    81  TRP81       0.0576
     35  CG        11.9240  -46.6990   23.8080 C.ar   81  TRP81       0.0006
     36  CD1       11.9750  -47.2050   22.5400 C.ar   81  TRP81       0.0946
     37  CD2       10.5460  -46.4030   24.0650 C.ar   81  TRP81       0.0152
     38  NE1       10.7130  -47.2490   21.9960 N.ar   81  TRP81      -0.2442
     39  CE2        9.8190  -46.7600   22.9110 C.ar   81  TRP81       0.0810
     40  CE3        9.8570  -45.8700   25.1580 C.ar   81  TRP81       0.0012
     41  CZ2        8.4400  -46.6020   22.8220 C.ar   81  TRP81       0.0191
     42  CZ3        8.4890  -45.7170   25.0680 C.ar   81  TRP81       0.0001
     43  CH2        7.7940  -46.0800   23.9080 C.ar   81  TRP81       0.0015
     44  N         12.6240  -47.6630   15.8470 N.3    93  TYR93      -0.1227
     45  CA        12.2060  -48.2540   17.1090 C.3    93  TYR93       0.1736
     46  C         11.0330  -47.5190   17.7440 C.2    93  TYR93       0.2596
     47  O         10.7040  -47.7870   18.9050 O.2    93  TYR93      -0.2718
     48  CB        13.3910  -48.3050   18.0720 C.3    93  TYR93       0.0548
     49  CG        14.4990  -49.2040   17.5810 C.ar   93  TYR93      -0.0200
     50  CD1       14.3610  -50.5830   17.6300 C.ar   93  TYR93      -0.0009
     51  CD2       15.6690  -48.6800   17.0500 C.ar   93  TYR93      -0.0009
     52  CE1       15.3580  -51.4160   17.1790 C.ar   93  TYR93       0.0417
     53  CE2       16.6760  -49.5090   16.5930 C.ar   93  TYR93       0.0417
     54  CZ        16.5120  -50.8760   16.6600 C.ar   93  TYR93       0.1957
     55  OH        17.5040  -51.7140   16.2100 O.3    93  TYR93      -0.2866
     56  N         10.3880  -46.6190   17.0090 N.am   94  SER94      -0.1952
     57  CA         9.2050  -45.9070   17.4840 C.3    94  SER94       0.1924
     58  C          9.4200  -45.4170   18.9140 C.2    94  SER94       0.2314
     59  O          8.6770  -45.7410   19.8390 O.2    94  SER94      -0.2863
     60  CB         7.9670  -46.7960   17.3800 C.3    94  SER94       0.2116
     61  OG         6.7820  -46.0450   17.5550 O.3    94  SER94      -0.2180
     62  N          9.0750  -43.2360   21.6010 N.3    96  VAL96      -0.1245
     63  CA         8.1410  -42.1730   21.9770 C.3    96  VAL96       0.1561
     64  C          8.8310  -41.0240   22.7040 C.2    96  VAL96       0.2260
     65  O          8.5590  -39.8600   22.3680 O.2    96  VAL96      -0.2867
     66  CB         6.9780  -42.7680   22.7930 C.3    96  VAL96       0.0252
     67  CG1        6.0760  -41.6710   23.3500 C.3    96  VAL96       0.0019
     68  CG2        6.1710  -43.7290   21.9290 C.3    96  VAL96       0.0019
     69  N          5.0000  -48.0170   11.6190 N.3   185  THR185     -0.1203
     70  CA         4.0990  -48.8250   12.4260 C.3   185  THR185      0.1994
     71  C          3.3890  -47.9600   13.4650 C.2   185  THR185      0.2618
     72  O          3.8020  -46.8360   13.7680 O.2   185  THR185     -0.2717
     73  CB         4.8550  -49.9570   13.1240 C.3   185  THR185      0.1784
     74  OG1        5.9400  -49.4150   13.8850 O.3   185  THR185     -0.2211
     75  CG2        5.3940  -50.9510   12.1100 C.3   185  THR185      0.0376
     76  N          2.3120  -48.5100   14.0200 N.am  186  GLY186     -0.1942
     77  CA         1.5580  -47.8360   15.0590 C.3   186  GLY186      0.2014
     78  C          0.9020  -48.8120   16.0110 C.2   186  GLY186      0.2638
     79  O          0.4760  -49.8970   15.6030 O.2   186  GLY186     -0.2714
     80  N          0.8280  -48.4430   17.2880 N.am  187  TYR187     -0.1973
     81  CA         0.2410  -49.2960   18.3180 C.3   187  TYR187      0.1639
     82  C         -0.5190  -48.4010   19.2880 C.2   187  TYR187      0.2290
     83  O          0.0960  -47.6780   20.0780 O.2   187  TYR187     -0.2864
     84  CB         1.3280  -50.0990   19.0340 C.3   187  TYR187      0.0560
     85  CG         0.8360  -51.1310   20.0280 C.ar  187  TYR187     -0.0198
     86  CD1       -0.4460  -51.6590   19.9510 C.ar  187  TYR187     -0.0009
     87  CD2        1.6660  -51.5790   21.0450 C.ar  187  TYR187     -0.0009
     88  CE1       -0.8820  -52.6050   20.8600 C.ar  187  TYR187      0.0417
     89  CE2        1.2380  -52.5200   21.9560 C.ar  187  TYR187      0.0417
     90  CZ        -0.0350  -53.0290   21.8620 C.ar  187  TYR187      0.1957
     91  OH        -0.4560  -53.9680   22.7760 O.3   187  TYR187     -0.2866
     92  N         -3.0560  -48.1270   22.3940 N.3   189  THR189     -0.1218
     93  CA        -3.5800  -48.8840   23.5230 C.3   189  THR189      0.1862
     94  C         -4.3250  -48.0470   24.5540 C.2   189  THR189      0.2287
     95  O         -5.0860  -48.6170   25.3430 O.2   189  THR189     -0.2866
     96  CB        -2.4450  -49.6230   24.2510 C.3   189  THR189      0.1770
     97  OG1       -1.4840  -48.6760   24.7340 O.3   189  THR189     -0.2211
     98  CG2       -1.7620  -50.6080   23.3200 C.3   189  THR189      0.0375
     99  N         -0.1370  -57.2720   22.7790 N.3   220  SER220     -0.1217
    100  CA         1.0120  -57.0020   21.9230 C.3   220  SER220      0.1889
    101  C          1.5250  -58.2510   21.2190 C.2   220  SER220      0.2288
    102  O          2.3940  -58.1350   20.3490 O.2   220  SER220     -0.2866
    103  CB         2.1460  -56.3750   22.7400 C.3   220  SER220      0.2089
    104  OG         2.4660  -57.1640   23.8740 O.3   220  SER220     -0.2183
    105  N          1.3190  -58.1650   17.2370 N.3   223  LEU223     -0.1245
    106  CA         1.7680  -56.9710   16.5260 C.3   223  LEU223      0.1561
    107  C          2.4040  -57.3140   15.1860 C.2   223  LEU223      0.2260
    108  O          2.3640  -56.5010   14.2550 O.2   223  LEU223     -0.2867
    109  CB         2.7510  -56.1810   17.3890 C.3   223  LEU223      0.0270
    110  CG         2.1260  -55.3350   18.5000 C.3   223  LEU223      0.0019
    111  CD1        3.2040  -54.8160   19.4330 C.3   223  LEU223      0.0001
    112  CD2        1.3160  -54.1800   17.9250 C.3   223  LEU223      0.0001
    113  N          0.4530  -57.0790   11.7070 N.3   226  ARG226     -0.1245
    114  CA         0.3140  -55.8380   10.9530 C.3   226  ARG226      0.1563
    115  C          1.0630  -55.9230    9.6300 C.2   226  ARG226      0.2260
    116  O          0.5030  -55.6450    8.5640 O.2   226  ARG226     -0.2867
    117  CB         0.8350  -54.6670   11.7810 C.3   226  ARG226      0.0307
    118  CG         0.0860  -54.4230   13.0710 C.3   226  ARG226      0.0489
    119  CD         0.8030  -53.3780   13.9010 C.3   226  ARG226      0.2205
    120  NE         2.1360  -53.8330   14.2850 N.pl3 226  ARG226     -0.0865
    121  CZ         3.0060  -53.1090   14.9790 C.cat 226  ARG226      0.5346
    122  NH1        4.1960  -53.6150   15.2770 N.pl3 226  ARG226      0.1354
    123  NH2        2.6910  -51.8840   15.3790 N.pl3 226  ARG226      0.1354
@<TRIPOS>BOND
     1   116   115    2
     2   115   114    1
     3   114   113    1
     4   114   117    1
     5    69    70    1
     6   117   118    1
     7    75    73    1
     8    70    73    1
     9    70    71    1
    10   118   119    1
    11    73    74    1
    12    71    72    2
    13    71    76   am
    14   119   120    1
    15    76    77    1
    16   108   107    2
    17   120   121    2
    18     4     3    2
    19     3     2    1
    20   121   122    1
    21   121   123    1
    22    77    78    1
    23   107   106    1
    24    79    78    2
    25    44    45    1
    26    78    80   am
    27    55    54    1
    28     2     5    1
    29     2     1    1
    30     5     6    1
    31   106   105    1
    32   106   109    1
    33    53    54   ar
    34    53    51   ar
    35    54    52   ar
    36    56    57    1
    37    56    46   am
    38    51    49   ar
    39    45    46    1
    40    45    48    1
    41    52    50   ar
    42    80    81    1
    43    60    57    1
    44    60    61    1
    45   109   110    1
    46    57    58    1
    47    49    50   ar
    48    49    48    1
    49    46    47    2
    50   112   110    1
    51    81    84    1
    52    81    82    1
    53   110   111    1
    54    58    59    2
    55    84    85    1
    56    82    83    2
    57    86    85   ar
    58    86    88   ar
    59    85    87   ar
    60   102   101    2
    61    88    90   ar
    62    29    27    1
    63    87    89   ar
    64    27    28    1
    65    27    24    1
    66   101   100    1
    67    62    63    1
    68    90    89   ar
    69    90    91    1
    70   100   103    1
    71   100    99    1
    72    68    66    1
    73    63    64    1
    74    63    66    1
    75    38    36   ar
    76    38    39   ar
    77    26    25    2
    78    65    64    2
    79    92    93    1
    80    36    35   ar
    81    24    25    1
    82    24    23    1
    83   103   104    1
    84    66    67    1
    85    25    30   am
    86    41    39   ar
    87    41    43   ar
    88    39    37   ar
    89    98    96    1
    90    93    96    1
    91    93    94    1
    92    21    19    1
    93    30    31    1
    94    35    37   ar
    95    35    34    1
    96    43    42   ar
    97    37    40   ar
    98    31    34    1
    99    31    32    1
   100    96    97    1
   101    22    20    1
   102    94    95    2
   103    32    33    2
   104    19    20    1
   105    19    16    1
   106    42    40   ar
   107    18    17    2
   108    17    16    1
   109    16    15    1
   110    15     9   am
   111    10     9    2
   112    13    12   ar
   113     9     8    1
   114    12    14   ar
   115    12    11    1
   116     8     7    1
   117     8    11    1
