@<TRIPOS>MOLECULE
tmp/5qaaA00.pdb
 141 134 0 0 0
SMALL
GASTEIGER

@<TRIPOS>ATOM
      1  N         90.0680  254.8680    2.2170 N.3    47  SER47      -0.1217
      2  CA        89.7950  255.4070    3.5480 C.3    47  SER47       0.1889
      3  C         89.5230  256.9110    3.5630 C.2    47  SER47       0.2288
      4  O         89.0860  257.4180    4.6040 O.2    47  SER47      -0.2866
      5  CB        90.9420  255.0700    4.4990 C.3    47  SER47       0.2089
      6  OG        91.0280  253.6580    4.7040 O.3    47  SER47      -0.2183
      7  N         96.3890  244.3700   11.2410 N.3    78  ILE78      -0.1245
      8  CA        96.8010  245.7140   11.6340 C.3    78  ILE78       0.1561
      9  C         96.5640  245.8330   13.1320 C.2    78  ILE78       0.2260
     10  O         95.4160  245.8850   13.5940 O.2    78  ILE78      -0.2867
     11  CB        96.0650  246.7940   10.8360 C.3    78  ILE78       0.0252
     12  CG1       96.3640  246.5690    9.3480 C.3    78  ILE78       0.0019
     13  CG2       96.4930  248.1830   11.3130 C.3    78  ILE78       0.0019
     14  CD1       95.8210  247.5820    8.4540 C.3    78  ILE78       0.0001
     15  N         96.7750  248.0620   15.4410 N.3    80  THR80      -0.1203
     16  CA        95.9940  249.1460   16.0260 C.3    80  THR80       0.1994
     17  C         94.5000  248.9410   15.8430 C.2    80  THR80       0.2617
     18  O         93.7130  249.6330   16.4970 O.2    80  THR80      -0.2717
     19  CB        96.3880  250.5030   15.4240 C.3    80  THR80       0.1784
     20  OG1       96.2650  250.4530   14.0000 O.3    80  THR80      -0.2211
     21  CG2       97.8230  250.8760   15.8040 C.3    80  THR80       0.0376
     22  N         94.0900  248.0310   14.9560 N.am   81  TRP81      -0.1975
     23  CA        92.6730  247.7410   14.7850 C.3    81  TRP81       0.1640
     24  C         92.1320  246.7770   15.8340 C.2    81  TRP81       0.2290
     25  O         90.9120  246.7140   16.0120 O.2    81  TRP81      -0.2864
     26  CB        92.4030  247.1490   13.4000 C.3    81  TRP81       0.0576
     27  CG        92.6210  248.0960   12.2590 C.ar   81  TRP81       0.0006
     28  CD1       93.0900  249.3780   12.3180 C.ar   81  TRP81       0.0946
     29  CD2       92.3830  247.8160   10.8750 C.ar   81  TRP81       0.0152
     30  NE1       93.1610  249.9130   11.0460 N.ar   81  TRP81      -0.2442
     31  CE2       92.7300  248.9720   10.1450 C.ar   81  TRP81       0.0810
     32  CE3       91.9100  246.6940   10.1820 C.ar   81  TRP81       0.0012
     33  CZ2       92.6090  249.0410    8.7570 C.ar   81  TRP81       0.0191
     34  CZ3       91.7950  246.7640    8.8060 C.ar   81  TRP81       0.0001
     35  CH2       92.1420  247.9310    8.1080 C.ar   81  TRP81       0.0015
     36  N         92.0300  258.2670   13.0060 N.3    92  LYS92      -0.1231
     37  CA        93.4850  258.3270   13.0790 C.3    92  LYS92       0.1693
     38  C         94.1230  257.0500   12.5520 C.2    92  LYS92       0.2592
     39  O         95.1320  257.0990   11.8390 O.2    92  LYS92      -0.2718
     40  CB        93.9090  258.5650   14.5250 C.3    92  LYS92       0.0285
     41  CG        95.4110  258.6540   14.7540 C.3    92  LYS92       0.0035
     42  CD        95.7310  258.8840   16.2250 C.3    92  LYS92       0.0206
     43  CE        97.2350  258.9230   16.4590 C.3    92  LYS92       0.1093
     44  NZ        97.5680  259.0970   17.8990 N.3    92  LYS92      -0.1314
     45  N         93.5810  255.8950   12.9300 N.am   93  TYR93      -0.1962
     46  CA        94.1630  254.6180   12.5480 C.3    93  TYR93       0.1771
     47  C         93.4230  253.9490   11.3890 C.2    93  TYR93       0.2620
     48  O         93.6660  252.7680   11.1170 O.2    93  TYR93      -0.2715
     49  CB        94.2280  253.6940   13.7710 C.3    93  TYR93       0.0574
     50  CG        95.1460  254.2180   14.8660 C.ar   93  TYR93      -0.0198
     51  CD1       96.5270  254.1840   14.7180 C.ar   93  TYR93      -0.0009
     52  CD2       94.6310  254.7650   16.0330 C.ar   93  TYR93      -0.0009
     53  CE1       97.3780  254.6710   15.7150 C.ar   93  TYR93       0.0417
     54  CE2       95.4690  255.2510   17.0370 C.ar   93  TYR93       0.0417
     55  CZ        96.8380  255.2090   16.8680 C.ar   93  TYR93       0.1957
     56  OH        97.6760  255.6880   17.8500 O.3    93  TYR93      -0.2866
     57  N         92.5490  254.6750   10.6890 N.am   94  SER94      -0.1950
     58  CA        91.8630  254.1620    9.4970 C.3    94  SER94       0.1924
     59  C         91.2450  252.7920    9.7630 C.2    94  SER94       0.2314
     60  O         91.4360  251.8360    9.0030 O.2    94  SER94      -0.2863
     61  CB        92.8130  254.0790    8.2980 C.3    94  SER94       0.2116
     62  OG        93.1340  255.3440    7.7880 O.3    94  SER94      -0.2180
     63  N         89.1090  250.3040    9.3290 N.3    96  VAL96      -0.1245
     64  CA        88.0750  249.8580    8.3910 C.3    96  VAL96       0.1561
     65  C         86.9300  249.1180    9.0840 C.2    96  VAL96       0.2260
     66  O         85.7660  249.4380    8.8130 O.2    96  VAL96      -0.2867
     67  CB        88.7120  249.0250    7.2670 C.3    96  VAL96       0.0252
     68  CG1       87.6470  248.4480    6.3570 C.3    96  VAL96       0.0019
     69  CG2       89.7280  249.8660    6.4570 C.3    96  VAL96       0.0019
     70  N         86.0400  250.4840   -1.0370 N.3   134  LEU134     -0.1245
     71  CA        87.2910  249.7630   -1.2150 C.3   134  LEU134      0.1561
     72  C         87.3210  248.9260   -2.4860 C.2   134  LEU134      0.2260
     73  O         88.3880  248.7750   -3.0790 O.2   134  LEU134     -0.2867
     74  CB        87.5410  248.8380   -0.0180 C.3   134  LEU134      0.0270
     75  CG        87.5870  249.5000    1.3620 C.3   134  LEU134      0.0019
     76  CD1       87.5420  248.4520    2.4770 C.3   134  LEU134      0.0001
     77  CD2       88.8140  250.3960    1.4960 C.3   134  LEU134      0.0001
     78  N         94.0120  260.2510    5.2120 N.3   185  THR185     -0.1203
     79  CA        94.7570  259.4240    4.2790 C.3   185  THR185      0.1994
     80  C         93.8690  258.3440    3.6790 C.2   185  THR185      0.2618
     81  O         92.8250  257.9740    4.2220 O.2   185  THR185     -0.2717
     82  CB        95.9280  258.7480    4.9680 C.3   185  THR185      0.1784
     83  OG1       95.4140  257.9650    6.0420 O.3   185  THR185     -0.2211
     84  CG2       96.9160  259.7580    5.4930 C.3   185  THR185      0.0376
     85  N         94.3130  257.8310    2.5450 N.am  186  GLY186     -0.1942
     86  CA        93.6550  256.7100    1.9130 C.3   186  GLY186      0.2014
     87  C         94.6820  255.8150    1.2550 C.2   186  GLY186      0.2638
     88  O         95.7560  256.2610    0.8450 O.2   186  GLY186     -0.2714
     89  N         94.3320  254.5330    1.1580 N.am  187  TYR187     -0.1973
     90  CA        95.2180  253.5230    0.5820 C.3   187  TYR187      0.1639
     91  C         94.3490  252.4980   -0.1460 C.2   187  TYR187      0.2290
     92  O         93.6920  251.6760    0.4980 O.2   187  TYR187     -0.2864
     93  CB        96.0480  252.8800    1.6830 C.3   187  TYR187      0.0560
     94  CG        97.0530  251.8460    1.2280 C.ar  187  TYR187     -0.0198
     95  CD1       97.4910  251.7760   -0.0950 C.ar  187  TYR187     -0.0009
     96  CD2       97.5640  250.9350    2.1370 C.ar  187  TYR187     -0.0009
     97  CE1       98.4210  250.8150   -0.4900 C.ar  187  TYR187      0.0417
     98  CE2       98.4810  249.9810    1.7560 C.ar  187  TYR187      0.0417
     99  CZ        98.9090  249.9240    0.4500 C.ar  187  TYR187      0.1957
    100  OH        99.8250  248.9580    0.1170 O.3   187  TYR187     -0.2866
    101  N         94.0360  249.3580   -2.6460 N.3   189  THR189     -0.1218
    102  CA        94.7900  248.2340   -3.1920 C.3   189  THR189      0.1862
    103  C         93.9410  247.1900   -3.9130 C.2   189  THR189      0.2287
    104  O         94.5080  246.3450   -4.6150 O.2   189  THR189     -0.2866
    105  CB        95.5530  247.4890   -2.0860 C.3   189  THR189      0.1770
    106  OG1       94.6140  246.9000   -1.1900 O.3   189  THR189     -0.2211
    107  CG2       96.4730  248.4290   -1.3160 C.3   189  THR189      0.0375
    108  N        103.1790  248.9600    0.1490 N.3   220  SER220     -0.1217
    109  CA       102.9880  249.7870    1.3310 C.3   220  SER220      0.1889
    110  C        104.2590  250.5170    1.7490 C.2   220  SER220      0.2288
    111  O        104.1860  251.4060    2.6020 O.2   220  SER220     -0.2866
    112  CB       102.4850  248.9130    2.4840 C.3   220  SER220      0.2089
    113  OG       103.4220  247.8930    2.7840 O.3   220  SER220     -0.2183
    114  N        104.0470  254.5380    1.6110 N.3   223  LEU223     -0.1245
    115  CA       102.8750  255.2460    2.1190 C.3   223  LEU223      0.1561
    116  C        103.2430  256.6030    2.7120 C.2   223  LEU223      0.2260
    117  O        102.4900  257.5740    2.5720 O.2   223  LEU223     -0.2867
    118  CB       102.1540  254.3850    3.1600 C.3   223  LEU223      0.0270
    119  CG       101.3180  253.2290    2.6130 C.3   223  LEU223      0.0019
    120  CD1      100.8490  252.3350    3.7640 C.3   223  LEU223      0.0001
    121  CD2      100.1330  253.7420    1.8170 C.3   223  LEU223      0.0001
    122  N        102.9650  259.9980    0.7740 N.3   226  ARG226     -0.1231
    123  CA       101.7430  260.7710    0.6000 C.3   226  ARG226      0.1694
    124  C        101.8670  262.1220    1.2910 C.2   226  ARG226      0.2591
    125  O        101.6460  263.1730    0.6740 O.2   226  ARG226     -0.2718
    126  CB       100.5510  259.9880    1.1540 C.3   226  ARG226      0.0321
    127  CG       100.2840  258.6460    0.4380 C.3   226  ARG226      0.0489
    128  CD        99.2670  257.8000    1.1740 C.3   226  ARG226      0.2205
    129  NE        99.7380  257.4450    2.5080 N.pl3 226  ARG226     -0.0865
    130  CZ        99.0360  256.7480    3.3910 C.cat 226  ARG226      0.5346
    131  NH1       99.5510  256.4900    4.5890 N.pl3 226  ARG226      0.1354
    132  NH2       97.8190  256.3240    3.0880 N.pl3 226  ARG226      0.1354
    133  N        102.2620  262.1100    2.5710 N.am  227  GLN227     -0.1979
    134  CA       102.4400  263.3450    3.3240 C.3   227  GLN227      0.1601
    135  C        103.7350  264.0440    2.9400 C.2   227  GLN227      0.2287
    136  O        103.7700  265.2760    2.8340 O.2   227  GLN227     -0.2864
    137  CB       102.4210  263.0580    4.8320 C.3   227  GLN227      0.0394
    138  CG       101.1150  262.4540    5.3650 C.3   227  GLN227      0.0908
    139  CD       101.1400  260.9330    5.4370 C.2   227  GLN227      0.2608
    140  OE1      101.9140  260.2750    4.7370 O.2   227  GLN227     -0.2717
    141  NE2      100.2860  260.3690    6.2900 N.am  227  GLN227     -0.0878
@<TRIPOS>BOND
     1   104   103    2
     2   103   102    1
     3   102   101    1
     4   102   105    1
     5    73    72    2
     6    72    71    1
     7   105   107    1
     8   105   106    1
     9    71    70    1
    10    71    74    1
    11    97    95   ar
    12    97    99   ar
    13    91    92    2
    14    91    90    1
    15    95    94   ar
    16    74    75    1
    17   100    99    1
    18   108   109    1
    19   127   126    1
    20   127   128    1
    21    99    98   ar
    22    90    89    1
    23    90    93    1
    24   123   122    1
    25   123   126    1
    26   123   124    1
    27   125   124    2
    28    88    87    2
    29    89    87   am
    30   128   129    1
    31    94    93    1
    32    94    96   ar
    33    87    86    1
    34   124   133   am
    35   109   110    1
    36   109   112    1
    37    75    77    1
    38    75    76    1
    39   114   115    1
    40   110   111    2
    41    98    96   ar
    42   121   119    1
    43    86    85    1
    44   115   116    1
    45   115   118    1
    46     1     2    1
    47   112   113    1
    48   129   130    2
    49    85    80   am
    50   133   134    1
    51   117   116    2
    52   119   118    1
    53   119   120    1
    54   136   135    2
    55   135   134    1
    56   132   130    1
    57   134   137    1
    58   130   131    1
    59     2     3    1
    60     2     5    1
    61     3     4    2
    62    80    81    2
    63    80    79    1
    64    79    82    1
    65    79    78    1
    66     5     6    1
    67   140   139    2
    68   137   138    1
    69    82    84    1
    70    82    83    1
    71   138   139    1
    72   139   141   am
    73    68    67    1
    74    69    67    1
    75    67    64    1
    76    62    61    1
    77    35    33   ar
    78    35    34   ar
    79    61    58    1
    80    64    65    1
    81    64    63    1
    82    14    12    1
    83    33    31   ar
    84    34    32   ar
    85    66    65    2
    86    60    59    2
    87    12    11    1
    88    58    59    1
    89    58    57    1
    90    31    29   ar
    91    31    30   ar
    92    32    29   ar
    93    57    47   am
    94    11    13    1
    95    11     8    1
    96    29    27   ar
    97    30    28   ar
    98    48    47    2
    99     7     8    1
   100    47    46    1
   101     8     9    1
   102    39    38    2
   103    27    28   ar
   104    27    26    1
   105    46    45    1
   106    46    49    1
   107    38    45   am
   108    38    37    1
   109    36    37    1
   110    37    40    1
   111     9    10    2
   112    26    23    1
   113    49    50    1
   114    20    19    1
   115    40    41    1
   116    51    50   ar
   117    51    53   ar
   118    41    42    1
   119    23    22    1
   120    23    24    1
   121    50    52   ar
   122    22    17   am
   123    19    21    1
   124    19    16    1
   125    15    16    1
   126    53    55   ar
   127    24    25    2
   128    17    16    1
   129    17    18    2
   130    52    54   ar
   131    42    43    1
   132    43    44    1
   133    55    54   ar
   134    55    56    1
