@<TRIPOS>MOLECULE
tmp/5qabB00.pdb
 125 120 0 0 0
SMALL
GASTEIGER

@<TRIPOS>ATOM
      1  N         88.5750  226.6010   -1.9600 N.3    46  SER46      -0.1217
      2  CA        88.3360  226.1080   -3.3130 C.3    46  SER46       0.1889
      3  C         88.0360  224.6140   -3.3760 C.2    46  SER46       0.2288
      4  O         87.5930  224.1430   -4.4290 O.2    46  SER46      -0.2866
      5  CB        89.5330  226.4220   -4.2110 C.3    46  SER46       0.2089
      6  OG        89.6880  227.8220   -4.3970 O.3    46  SER46      -0.2183
      7  N         93.9330  239.8600  -10.7540 N.3    76  ASP76      -0.1225
      8  CA        95.3760  239.6560  -10.6360 C.3    76  ASP76       0.1805
      9  C         95.8150  238.2370  -10.9830 C.2    76  ASP76       0.2597
     10  O         97.0230  237.9780  -11.0110 O.2    76  ASP76      -0.2718
     11  CB        95.8540  240.0200   -9.2280 C.3    76  ASP76       0.1424
     12  CG        95.1720  239.2090   -8.1440 C.2    76  ASP76       0.3668
     13  OD1       94.3330  238.3470   -8.4740 O.co2  76  ASP76      -0.2456
     14  OD2       95.4740  239.4410   -6.9540 O.co2  76  ASP76      -0.2456
     15  N         94.8890  237.3200  -11.2410 N.am   77  ILE77      -0.1980
     16  CA        95.2200  235.9610  -11.6520 C.3    77  ILE77       0.1595
     17  C         95.0020  235.9120  -13.1600 C.2    77  ILE77       0.2287
     18  O         93.8640  235.8690  -13.6350 O.2    77  ILE77      -0.2864
     19  CB        94.3720  234.9170  -10.9190 C.3    77  ILE77       0.0276
     20  CG1       94.5250  235.0510   -9.4000 C.3    77  ILE77       0.0022
     21  CG2       94.7380  233.5120  -11.3820 C.3    77  ILE77       0.0022
     22  CD1       95.9210  234.7670   -8.8850 C.3    77  ILE77       0.0001
     23  N         95.1990  233.7140  -15.4720 N.3    79  THR79      -0.1203
     24  CA        94.3830  232.6340  -16.0090 C.3    79  THR79       0.1994
     25  C         92.8980  232.8010  -15.6990 C.2    79  THR79       0.2617
     26  O         92.0800  232.0890  -16.2930 O.2    79  THR79      -0.2717
     27  CB        94.8870  231.2830  -15.4900 C.3    79  THR79       0.1784
     28  OG1       94.2560  230.2260  -16.2180 O.3    79  THR79      -0.2211
     29  CG2       94.6040  231.1130  -14.0100 C.3    79  THR79       0.0376
     30  N         92.5290  233.7030  -14.7830 N.am   80  TRP80      -0.1975
     31  CA        91.1190  234.0000  -14.5440 C.3    80  TRP80       0.1640
     32  C         90.5340  234.9490  -15.5860 C.2    80  TRP80       0.2290
     33  O         89.3080  235.0020  -15.7390 O.2    80  TRP80      -0.2864
     34  CB        90.9220  234.6120  -13.1530 C.3    80  TRP80       0.0576
     35  CG        91.1390  233.6590  -12.0170 C.ar   80  TRP80       0.0006
     36  CD1       91.6100  232.3810  -12.0930 C.ar   80  TRP80       0.0946
     37  CD2       90.8820  233.9090  -10.6290 C.ar   80  TRP80       0.0152
     38  NE1       91.6650  231.8200  -10.8390 N.ar   80  TRP80      -0.2442
     39  CE2       91.2220  232.7380   -9.9230 C.ar   80  TRP80       0.0810
     40  CE3       90.3970  235.0110   -9.9160 C.ar   80  TRP80       0.0012
     41  CZ2       91.0970  232.6370   -8.5390 C.ar   80  TRP80       0.0191
     42  CZ3       90.2730  234.9080   -8.5420 C.ar   80  TRP80       0.0001
     43  CH2       90.6220  233.7310   -7.8680 C.ar   80  TRP80       0.0015
     44  N         90.4590  223.4840  -12.9470 N.3    91  LYS91      -0.1231
     45  CA        91.9130  223.3970  -13.0250 C.3    91  LYS91       0.1693
     46  C         92.5760  224.6410  -12.4490 C.2    91  LYS91       0.2592
     47  O         93.5390  224.5480  -11.6800 O.2    91  LYS91      -0.2718
     48  CB        92.3290  223.1940  -14.4820 C.3    91  LYS91       0.0285
     49  CG        93.8240  223.1240  -14.7110 C.3    91  LYS91       0.0035
     50  CD        94.1180  222.9220  -16.1850 C.3    91  LYS91       0.0206
     51  CE        95.6060  222.8950  -16.4720 C.3    91  LYS91       0.1093
     52  NZ        95.8630  222.7670  -17.9360 N.3    91  LYS91      -0.1314
     53  N         92.0800  225.8180  -12.8190 N.am   92  TYR92      -0.1962
     54  CA        92.6620  227.0780  -12.3820 C.3    92  TYR92       0.1771
     55  C         91.9120  227.6980  -11.2090 C.2    92  TYR92       0.2620
     56  O         92.1730  228.8530  -10.8590 O.2    92  TYR92      -0.2715
     57  CB        92.7260  228.0440  -13.5630 C.3    92  TYR92       0.0574
     58  CG        93.6000  227.5150  -14.6780 C.ar   92  TYR92      -0.0198
     59  CD1       94.9800  227.4750  -14.5340 C.ar   92  TYR92      -0.0009
     60  CD2       93.0500  227.0390  -15.8610 C.ar   92  TYR92      -0.0009
     61  CE1       95.7900  226.9870  -15.5380 C.ar   92  TYR92       0.0417
     62  CE2       93.8550  226.5450  -16.8750 C.ar   92  TYR92       0.0417
     63  CZ        95.2250  226.5210  -16.7050 C.ar   92  TYR92       0.1957
     64  OH        96.0390  226.0330  -17.7000 O.3    92  TYR92      -0.2866
     65  N         90.9930  226.9540  -10.5950 N.am   93  SER93      -0.1950
     66  CA        90.3080  227.3820   -9.3790 C.3    93  SER93       0.1924
     67  C         89.7640  228.8020   -9.5410 C.2    93  SER93       0.2314
     68  O         90.0930  229.7230   -8.7910 O.2    93  SER93      -0.2863
     69  CB        91.2490  227.2770   -8.1760 C.3    93  SER93       0.2116
     70  OG        90.5290  227.2730   -6.9570 O.3    93  SER93      -0.2180
     71  N         92.5310  221.3580   -5.0570 N.3   184  THR184     -0.1203
     72  CA        93.2820  222.1790   -4.1220 C.3   184  THR184      0.1994
     73  C         92.3800  223.2160   -3.4560 C.2   184  THR184      0.2618
     74  O         91.3010  223.5560   -3.9500 O.2   184  THR184     -0.2717
     75  CB        94.4290  222.9030   -4.8300 C.3   184  THR184      0.1784
     76  OG1       93.8990  223.7280   -5.8750 O.3   184  THR184     -0.2211
     77  CG2       95.4280  221.9150   -5.4120 C.3   184  THR184      0.0376
     78  N         92.8450  223.7190   -2.3210 N.am  185  GLY185     -0.1942
     79  CA        92.1690  224.8050   -1.6350 C.3   185  GLY185      0.2014
     80  C         93.1710  225.7380   -0.9900 C.2   185  GLY185      0.2638
     81  O         94.2590  225.3280   -0.5800 O.2   185  GLY185     -0.2714
     82  N         92.7900  227.0130   -0.9110 N.am  186  TYR186     -0.1973
     83  CA        93.6340  228.0510   -0.3200 C.3   186  TYR186      0.1639
     84  C         92.7300  229.0390    0.4090 C.2   186  TYR186      0.2290
     85  O         92.0180  229.8180   -0.2320 O.2   186  TYR186     -0.2864
     86  CB        94.4610  228.7470   -1.4020 C.3   186  TYR186      0.0560
     87  CG        95.4700  229.7660   -0.9130 C.ar  186  TYR186     -0.0198
     88  CD1       95.9730  229.7360    0.3830 C.ar  186  TYR186     -0.0009
     89  CD2       95.9160  230.7670   -1.7630 C.ar  186  TYR186     -0.0009
     90  CE1       96.8990  230.6770    0.8120 C.ar  186  TYR186      0.0417
     91  CE2       96.8330  231.7080   -1.3470 C.ar  186  TYR186      0.0417
     92  CZ        97.3220  231.6620   -0.0610 C.ar  186  TYR186      0.1957
     93  OH        98.2370  232.6100    0.3380 O.3   186  TYR186     -0.2866
     94  N         92.3440  232.1840    2.9690 N.3   188  THR188     -0.1218
     95  CA        93.0940  233.3220    3.4910 C.3   188  THR188      0.1862
     96  C         92.2730  234.3410    4.2710 C.2   188  THR188      0.2287
     97  O         92.8630  235.1200    5.0270 O.2   188  THR188     -0.2866
     98  CB        93.7940  234.0780    2.3480 C.3   188  THR188      0.1770
     99  OG1       92.8160  234.5690    1.4230 O.3   188  THR188     -0.2211
    100  CG2       94.7770  233.1820    1.6210 C.3   188  THR188      0.0375
    101  N        101.6040  232.5750    0.2450 N.3   219  SER219     -0.1217
    102  CA       101.3880  231.7570   -0.9390 C.3   219  SER219      0.1889
    103  C        102.6590  231.0690   -1.4200 C.2   219  SER219      0.2288
    104  O        102.5800  230.2230   -2.3170 O.2   219  SER219     -0.2866
    105  CB       100.8100  232.6150   -2.0660 C.3   219  SER219      0.2089
    106  OG       101.6100  233.7620   -2.2900 O.3   219  SER219     -0.2183
    107  N        102.4920  227.0770   -1.2860 N.3   222  LEU222     -0.1245
    108  CA       101.3350  226.3560   -1.8090 C.3   222  LEU222      0.1561
    109  C        101.7200  225.0140   -2.4160 C.2   222  LEU222      0.2260
    110  O        100.9380  224.0590   -2.3490 O.2   222  LEU222     -0.2867
    111  CB       100.6180  227.2210   -2.8460 C.3   222  LEU222      0.0270
    112  CG        99.8390  228.4100   -2.2840 C.3   222  LEU222      0.0019
    113  CD1       99.3950  229.3220   -3.4110 C.3   222  LEU222      0.0001
    114  CD2       98.6330  227.9330   -1.4910 C.3   222  LEU222      0.0001
    115  N        101.4460  221.5670   -0.5100 N.3   225  ARG225     -0.1245
    116  CA       100.2040  220.8090   -0.4030 C.3   225  ARG225      0.1563
    117  C        100.3220  219.4740   -1.1270 C.2   225  ARG225      0.2260
    118  O        100.0280  218.4160   -0.5590 O.2   225  ARG225     -0.2867
    119  CB        99.0450  221.6260   -0.9720 C.3   225  ARG225      0.0307
    120  CG        98.7620  222.9110   -0.2110 C.3   225  ARG225      0.0489
    121  CD        97.7360  223.7670   -0.9300 C.3   225  ARG225      0.2205
    122  NE        98.1680  224.1270   -2.2770 N.pl3 225  ARG225     -0.0865
    123  CZ        97.4640  224.8840   -3.1120 C.cat 225  ARG225      0.5346
    124  NH1       97.9370  225.1530   -4.3220 N.pl3 225  ARG225      0.1354
    125  NH2       96.2920  225.3800   -2.7370 N.pl3 225  ARG225      0.1354
@<TRIPOS>BOND
     1    52    51    1
     2    64    63    1
     3    62    63   ar
     4    62    60   ar
     5    63    61   ar
     6    51    50    1
     7    26    25    2
     8    28    27    1
     9    50    49    1
    10    24    25    1
    11    24    27    1
    12    24    23    1
    13    60    58   ar
    14    33    32    2
    15    25    30   am
    16    32    31    1
    17    61    59   ar
    18    27    29    1
    19    30    31    1
    20    49    48    1
    21    58    59   ar
    22    58    57    1
    23    31    34    1
    24    48    45    1
    25    18    17    2
    26    57    54    1
    27    17    16    1
    28    34    35    1
    29    45    44    1
    30    45    46    1
    31    53    46   am
    32    53    54    1
    33    46    47    2
    34    54    55    1
    35    36    35   ar
    36    36    38   ar
    37    35    37   ar
    38    16    15    1
    39    16    19    1
    40    21    19    1
    41    15     9   am
    42    55    56    2
    43    55    65   am
    44    10     9    2
    45     9     8    1
    46    19    20    1
    47    38    39   ar
    48     7     8    1
    49     8    11    1
    50    37    39   ar
    51    37    40   ar
    52    65    66    1
    53    39    41   ar
    54    40    42   ar
    55    67    66    1
    56    67    68    2
    57    20    22    1
    58    66    69    1
    59    11    12    1
    60    42    43   ar
    61    41    43   ar
    62    13    12   ar
    63    69    70    1
    64    12    14   ar
    65    76    75    1
    66    77    75    1
    67    71    72    1
    68    75    72    1
    69     4     3    2
    70     6     5    1
    71   124   123    1
    72     5     2    1
    73    72    73    1
    74    74    73    2
    75    73    78   am
    76   113   112    1
    77     3     2    1
    78     2     1    1
    79   123   125    1
    80   123   122    2
    81   111   112    1
    82   111   108    1
    83   109   110    2
    84   109   108    1
    85    78    79    1
    86   104   103    2
    87   106   105    1
    88   112   114    1
    89   122   121    1
    90   105   102    1
    91   108   107    1
    92    89    91   ar
    93    89    87   ar
    94    79    80    1
    95   103   102    1
    96    86    87    1
    97    86    83    1
    98    91    92   ar
    99   117   118    2
   100   117   116    1
   101    80    82   am
   102    80    81    2
   103   119   116    1
   104   119   120    1
   105   102   101    1
   106   121   120    1
   107    87    88   ar
   108    82    83    1
   109   115   116    1
   110    83    84    1
   111    85    84    2
   112    92    93    1
   113    92    90   ar
   114    88    90   ar
   115    99    98    1
   116   100    98    1
   117    98    95    1
   118    94    95    1
   119    95    96    1
   120    96    97    2
