@<TRIPOS>MOLECULE
tmp/5qacB00.pdb
 123 117 0 0 0
SMALL
GASTEIGER

@<TRIPOS>ATOM
      1  N        -56.4370  -23.3790   21.6120 N.3    78  ILE78      -0.1245
      2  CA       -56.4980  -22.0270   21.0630 C.3    78  ILE78       0.1561
      3  C        -56.0550  -22.0960   19.6060 C.2    78  ILE78       0.2260
      4  O        -54.8730  -22.3180   19.3140 O.2    78  ILE78      -0.2867
      5  CB       -55.6430  -21.0480   21.8810 C.3    78  ILE78       0.0252
      6  CG1      -56.1450  -21.0120   23.3290 C.3    78  ILE78       0.0019
      7  CG2      -55.6700  -19.6530   21.2790 C.3    78  ILE78       0.0019
      8  CD1      -55.1300  -20.5370   24.3030 C.3    78  ILE78       0.0001
      9  N        -55.5490  -19.9690   17.1690 N.3    80  THR80      -0.1203
     10  CA       -54.4890  -19.0910   16.6910 C.3    80  THR80       0.1994
     11  C        -53.1090  -19.5590   17.1300 C.2    80  THR80       0.2617
     12  O        -52.1120  -19.0730   16.5860 O.2    80  THR80      -0.2717
     13  CB       -54.7140  -17.6580   17.1780 C.3    80  THR80       0.1784
     14  OG1      -54.7640  -17.6340   18.6120 O.3    80  THR80      -0.2211
     15  CG2      -56.0140  -17.1010   16.6060 C.3    80  THR80       0.0376
     16  N        -53.0250  -20.4760   18.1000 N.am   81  TRP81      -0.1975
     17  CA       -51.7430  -21.0530   18.4930 C.3    81  TRP81       0.1640
     18  C        -51.2800  -22.1540   17.5480 C.2    81  TRP81       0.2290
     19  O        -50.0870  -22.4750   17.5250 O.2    81  TRP81      -0.2864
     20  CB       -51.8250  -21.6490   19.8990 C.3    81  TRP81       0.0576
     21  CG       -51.9820  -20.6640   21.0060 C.ar   81  TRP81       0.0006
     22  CD1      -52.2170  -19.3240   20.8960 C.ar   81  TRP81       0.0946
     23  CD2      -51.9040  -20.9470   22.4060 C.ar   81  TRP81       0.0152
     24  NE1      -52.2870  -18.7550   22.1460 N.ar   81  TRP81      -0.2442
     25  CE2      -52.1000  -19.7320   23.0900 C.ar   81  TRP81       0.0810
     26  CE3      -51.6840  -22.1140   23.1490 C.ar   81  TRP81       0.0012
     27  CZ2      -52.0850  -19.6490   24.4800 C.ar   81  TRP81       0.0191
     28  CZ3      -51.6720  -22.0320   24.5300 C.ar   81  TRP81       0.0001
     29  CH2      -51.8720  -20.8080   25.1820 C.ar   81  TRP81       0.0015
     30  N        -49.0960  -10.8690   19.8840 N.3    92  LYS92      -0.1231
     31  CA       -50.4850  -10.5150   19.6080 C.3    92  LYS92       0.1693
     32  C        -51.4560  -11.5820   20.1000 C.2    92  LYS92       0.2592
     33  O        -52.5010  -11.2580   20.6780 O.2    92  LYS92      -0.2718
     34  CB       -50.6510  -10.2900   18.1050 C.3    92  LYS92       0.0285
     35  CG       -52.0540   -9.9290   17.6520 C.3    92  LYS92       0.0035
     36  CD       -52.0810   -9.7390   16.1490 C.3    92  LYS92       0.0206
     37  CE       -53.4750   -9.4830   15.6200 C.3    92  LYS92       0.1093
     38  NZ       -53.4510   -9.3630   14.1390 N.3    92  LYS92      -0.1314
     39  N        -51.1450  -12.8560   19.8570 N.am   93  TYR93      -0.1962
     40  CA       -52.0360  -13.9590   20.1940 C.3    93  TYR93       0.1771
     41  C        -51.6150  -14.6800   21.4680 C.2    93  TYR93       0.2620
     42  O        -52.1300  -15.7680   21.7490 O.2    93  TYR93      -0.2715
     43  CB       -52.1050  -14.9400   19.0180 C.3    93  TYR93       0.0574
     44  CG       -52.6870  -14.3160   17.7700 C.ar   93  TYR93      -0.0198
     45  CD1      -54.0460  -14.0520   17.6680 C.ar   93  TYR93      -0.0009
     46  CD2      -51.8680  -13.9560   16.7050 C.ar   93  TYR93      -0.0009
     47  CE1      -54.5790  -13.4670   16.5300 C.ar   93  TYR93       0.0417
     48  CE2      -52.3880  -13.3730   15.5660 C.ar   93  TYR93       0.0417
     49  CZ       -53.7440  -13.1270   15.4830 C.ar   93  TYR93       0.1957
     50  OH       -54.2670  -12.5440   14.3490 O.3    93  TYR93      -0.2866
     51  N        -50.7040  -14.0880   22.2420 N.am   94  SER94      -0.1950
     52  CA       -50.2430  -14.6290   23.5200 C.3    94  SER94       0.1924
     53  C        -49.8840  -16.1030   23.4040 C.2    94  SER94       0.2314
     54  O        -50.3640  -16.9390   24.1690 O.2    94  SER94      -0.2863
     55  CB       -51.2840  -14.4240   24.6210 C.3    94  SER94       0.2116
     56  OG       -51.4570  -13.0590   24.9230 O.3    94  SER94      -0.2180
     57  N        -48.3260  -18.9900   24.1890 N.3    96  VAL96      -0.1245
     58  CA       -47.5150  -19.5810   25.2550 C.3    96  VAL96       0.1561
     59  C        -46.4860  -20.5750   24.7220 C.2    96  VAL96       0.2260
     60  O        -45.3170  -20.4900   25.1190 O.2    96  VAL96      -0.2867
     61  CB       -48.4250  -20.1960   26.3280 C.3    96  VAL96       0.0252
     62  CG1      -47.5950  -20.9760   27.3750 C.3    96  VAL96       0.0019
     63  CG2      -49.2560  -19.1020   26.9840 C.3    96  VAL96       0.0019
     64  N        -51.5970   -8.0800   27.5020 N.3   185  THR185     -0.1218
     65  CA       -52.5740   -8.6920   28.3830 C.3   185  THR185      0.1862
     66  C        -51.9600   -9.8800   29.1160 C.2   185  THR185      0.2287
     67  O        -50.9640  -10.4680   28.6860 O.2   185  THR185     -0.2866
     68  CB       -53.7960   -9.1720   27.5980 C.3   185  THR185      0.1770
     69  OG1      -53.3660  -10.0570   26.5550 O.3   185  THR185     -0.2211
     70  CG2      -54.5870   -7.9970   27.0090 C.3   185  THR185      0.0375
     71  N        -53.4040  -13.4490   31.5980 N.3   187  TYR187     -0.1241
     72  CA       -54.5060  -14.2360   32.1430 C.3   187  TYR187      0.1605
     73  C        -53.9020  -15.3600   32.9730 C.2   187  TYR187      0.2264
     74  O        -53.3090  -16.2940   32.4240 O.2   187  TYR187     -0.2867
     75  CB       -55.3940  -14.7750   31.0220 C.3   187  TYR187      0.0534
     76  CG       -56.6380  -15.5210   31.4590 C.ar  187  TYR187     -0.0201
     77  CD1      -57.1970  -15.3230   32.7180 C.ar  187  TYR187     -0.0009
     78  CD2      -57.2690  -16.4130   30.5950 C.ar  187  TYR187     -0.0009
     79  CE1      -58.3450  -15.9960   33.1030 C.ar  187  TYR187      0.0417
     80  CE2      -58.4090  -17.0930   30.9750 C.ar  187  TYR187      0.0417
     81  CZ       -58.9430  -16.8780   32.2280 C.ar  187  TYR187      0.1957
     82  OH       -60.0780  -17.5510   32.6070 O.3   187  TYR187     -0.2866
     83  N        -54.4940  -18.4260   35.3880 N.3   189  THR189     -0.1218
     84  CA       -55.5300  -19.3910   35.7160 C.3   189  THR189      0.1862
     85  C        -55.0290  -20.5830   36.5110 C.2   189  THR189      0.2287
     86  O        -55.8530  -21.3140   37.0680 O.2   189  THR189     -0.2866
     87  CB       -56.1860  -19.9300   34.4340 C.3   189  THR189      0.1770
     88  OG1      -55.1930  -20.5930   33.6390 O.3   189  THR189     -0.2211
     89  CG2      -56.8030  -18.8000   33.6260 C.3   189  THR189      0.0375
     90  N        -63.2130  -17.0770   31.8500 N.3   220  SER220     -0.1217
     91  CA       -62.7290  -16.3740   30.6700 C.3   220  SER220      0.1889
     92  C        -63.7550  -15.4000   30.0970 C.2   220  SER220      0.2288
     93  O        -63.3900  -14.5840   29.2420 O.2   220  SER220     -0.2866
     94  CB       -62.3240  -17.3890   29.6030 C.3   220  SER220      0.2089
     95  OG       -63.4120  -18.2420   29.2880 O.3   220  SER220     -0.2183
     96  N        -62.7590  -11.5320   30.0710 N.3   223  LEU223     -0.1245
     97  CA       -61.4290  -11.1020   29.6530 C.3   223  LEU223      0.1561
     98  C        -61.4730   -9.7410   28.9720 C.2   223  LEU223      0.2260
     99  O        -60.5490   -8.9360   29.1250 O.2   223  LEU223     -0.2867
    100  CB       -60.8040  -12.1410   28.7220 C.3   223  LEU223      0.0270
    101  CG       -60.2620  -13.4070   29.3810 C.3   223  LEU223      0.0019
    102  CD1      -59.8100  -14.3850   28.3110 C.3   223  LEU223      0.0001
    103  CD2      -59.1090  -13.0660   30.3110 C.3   223  LEU223      0.0001
    104  N        -60.7210   -6.4010   30.9000 N.3   226  ARG226     -0.1231
    105  CA       -59.3860   -5.8770   31.1650 C.3   226  ARG226      0.1694
    106  C        -59.1640   -4.5740   30.4070 C.2   226  ARG226      0.2591
    107  O        -58.7810   -3.5540   30.9960 O.2   226  ARG226     -0.2718
    108  CB       -58.3320   -6.9190   30.8010 C.3   226  ARG226      0.0321
    109  CG       -58.4420   -8.2020   31.6040 C.3   226  ARG226      0.0489
    110  CD       -57.4870   -9.2510   31.0750 C.3   226  ARG226      0.2205
    111  NE       -57.8340   -9.6360   29.7170 N.pl3 226  ARG226     -0.0865
    112  CZ       -57.1480  -10.4960   28.9730 C.cat 226  ARG226      0.5346
    113  NH1      -57.5630  -10.7630   27.7470 N.pl3 226  ARG226      0.1354
    114  NH2      -56.0540  -11.0850   29.4450 N.pl3 226  ARG226      0.1354
    115  N        -59.4330   -4.5800   29.0980 N.am  227  GLN227     -0.1979
    116  CA       -59.2690   -3.3670   28.3040 C.3   227  GLN227      0.1601
    117  C        -60.4240   -2.3890   28.5130 C.2   227  GLN227      0.2287
    118  O        -60.2050   -1.1740   28.5740 O.2   227  GLN227     -0.2864
    119  CB       -59.1320   -3.7260   26.8200 C.3   227  GLN227      0.0394
    120  CG       -57.9140   -4.5760   26.5100 C.3   227  GLN227      0.0908
    121  CD       -58.2160   -6.0640   26.4340 C.2   227  GLN227      0.2608
    122  OE1      -59.1150   -6.5750   27.1100 O.2   227  GLN227     -0.2717
    123  NE2      -57.4430   -6.7720   25.6210 N.am  227  GLN227     -0.0878
@<TRIPOS>BOND
     1    38    37    1
     2    50    49    1
     3    49    48   ar
     4    49    47   ar
     5    48    46   ar
     6    37    36    1
     7    36    35    1
     8    47    45   ar
     9    12    11    2
    10    15    13    1
    11    10    11    1
    12    10     9    1
    13    10    13    1
    14    46    44   ar
    15    11    16   am
    16    13    14    1
    17    19    18    2
    18    18    17    1
    19    35    34    1
    20    45    44   ar
    21    44    43    1
    22    16    17    1
    23    34    31    1
    24    17    20    1
    25    43    40    1
    26     4     3    2
    27     3     2    1
    28    31    30    1
    29    31    32    1
    30    39    32   am
    31    39    40    1
    32    20    21    1
    33    32    33    2
    34    40    41    1
    35    22    21   ar
    36    22    24   ar
    37    21    23   ar
    38     2     1    1
    39     2     5    1
    40     7     5    1
    41    41    42    2
    42    41    51   am
    43     5     6    1
    44    24    25   ar
    45    51    52    1
    46    23    25   ar
    47    23    26   ar
    48    25    27   ar
    49    26    28   ar
    50     6     8    1
    51    53    52    1
    52    53    54    2
    53    52    55    1
    54    57    58    1
    55    27    29   ar
    56    28    29   ar
    57    55    56    1
    58    59    60    2
    59    59    58    1
    60    58    61    1
    61   123   121   am
    62    61    63    1
    63    61    62    1
    64   121   120    1
    65   121   122    2
    66   120   119    1
    67    69    68    1
    68   119   116    1
    69    70    68    1
    70    64    65    1
    71    68    65    1
    72   113   112    1
    73   116   117    1
    74   116   115    1
    75   102   101    1
    76    65    66    1
    77   117   118    2
    78    67    66    2
    79   100   101    1
    80   100    97    1
    81    98    99    2
    82    98    97    1
    83   112   114    1
    84   112   111    2
    85   115   106   am
    86    93    92    2
    87    95    94    1
    88   101   103    1
    89    94    91    1
    90    97    96    1
    91   111   110    1
    92    92    91    1
    93   106   107    2
    94   106   105    1
    95    78    80   ar
    96    78    76   ar
    97    91    90    1
    98   108   105    1
    99   108   109    1
   100   104   105    1
   101    80    81   ar
   102    75    76    1
   103    75    72    1
   104   110   109    1
   105    76    77   ar
   106    71    72    1
   107    72    73    1
   108    81    82    1
   109    81    79   ar
   110    74    73    2
   111    77    79   ar
   112    89    87    1
   113    88    87    1
   114    87    84    1
   115    83    84    1
   116    84    85    1
   117    85    86    2
