@<TRIPOS>MOLECULE
tmp/5qadD00.pdb
 127 122 0 0 0
SMALL
GASTEIGER

@<TRIPOS>ATOM
      1  N        121.0750  246.2410   41.1080 N.3    78  ILE78      -0.1245
      2  CA       121.0270  244.8700   41.6000 C.3    78  ILE78       0.1561
      3  C        121.3660  244.9100   43.0840 C.2    78  ILE78       0.2260
      4  O        122.5160  245.1650   43.4570 O.2    78  ILE78      -0.2867
      5  CB       121.9960  243.9590   40.8370 C.3    78  ILE78       0.0252
      6  CG1      121.7780  244.0650   39.3220 C.3    78  ILE78       0.0019
      7  CG2      121.8390  242.5190   41.3050 C.3    78  ILE78       0.0019
      8  CD1      120.3980  243.6640   38.8590 C.3    78  ILE78       0.0001
      9  N        121.8540  242.7600   45.4690 N.3    80  THR80      -0.1203
     10  CA       122.9220  241.9050   45.9790 C.3    80  THR80       0.1994
     11  C        124.3110  242.4010   45.5990 C.2    80  THR80       0.2617
     12  O        125.2970  241.9290   46.1750 O.2    80  THR80      -0.2717
     13  CB       122.7460  240.4640   45.4800 C.3    80  THR80       0.1784
     14  OG1      122.7170  240.4420   44.0490 O.3    80  THR80      -0.2211
     15  CG2      121.4600  239.8550   46.0210 C.3    80  THR80       0.0376
     16  N        124.4170  243.3290   44.6450 N.am   81  TRP81      -0.1975
     17  CA       125.7100  243.8960   44.2860 C.3    81  TRP81       0.1640
     18  C        126.1620  244.9800   45.2550 C.2    81  TRP81       0.2290
     19  O        127.3500  245.3230   45.2660 O.2    81  TRP81      -0.2864
     20  CB       125.6600  244.4860   42.8740 C.3    81  TRP81       0.0576
     21  CG       125.4720  243.4850   41.7620 C.ar   81  TRP81       0.0006
     22  CD1      125.2750  242.1390   41.8810 C.ar   81  TRP81       0.0946
     23  CD2      125.4740  243.7660   40.3570 C.ar   81  TRP81       0.0152
     24  NE1      125.1520  241.5670   40.6340 N.ar   81  TRP81      -0.2442
     25  CE2      125.2700  242.5470   39.6830 C.ar   81  TRP81       0.0810
     26  CE3      125.6240  244.9350   39.6040 C.ar   81  TRP81       0.0012
     27  CZ2      125.2120  242.4620   38.2920 C.ar   81  TRP81       0.0191
     28  CZ3      125.5660  244.8490   38.2220 C.ar   81  TRP81       0.0001
     29  CH2      125.3640  243.6220   37.5830 C.ar   81  TRP81       0.0015
     30  N        128.3520  233.6930   42.6470 N.3    92  LYS92      -0.1231
     31  CA       126.9670  233.3200   42.9230 C.3    92  LYS92       0.1693
     32  C        125.9920  234.3950   42.4620 C.2    92  LYS92       0.2592
     33  O        124.9470  234.0890   41.8720 O.2    92  LYS92      -0.2718
     34  CB       126.8000  233.0660   44.4240 C.3    92  LYS92       0.0285
     35  CG       125.3760  232.7290   44.8600 C.3    92  LYS92       0.0035
     36  CD       125.2830  232.5080   46.3700 C.3    92  LYS92       0.0206
     37  CE       123.8490  232.2510   46.8030 C.3    92  LYS92       0.1093
     38  NZ       123.6850  232.1170   48.2840 N.3    92  LYS92      -0.1314
     39  N        126.3050  235.6580   42.7340 N.am   93  TYR93      -0.1962
     40  CA       125.4180  236.7670   42.4160 C.3    93  TYR93       0.1771
     41  C        125.8470  237.5090   41.1560 C.2    93  TYR93       0.2620
     42  O        125.2890  238.5680   40.8530 O.2    93  TYR93      -0.2715
     43  CB       125.3410  237.7250   43.6050 C.3    93  TYR93       0.0574
     44  CG       124.7380  237.0760   44.8390 C.ar   93  TYR93      -0.0198
     45  CD1      123.3760  236.8070   44.9150 C.ar   93  TYR93      -0.0009
     46  CD2      125.5350  236.7090   45.9150 C.ar   93  TYR93      -0.0009
     47  CE1      122.8240  236.2020   46.0320 C.ar   93  TYR93       0.0417
     48  CE2      124.9910  236.1030   47.0390 C.ar   93  TYR93       0.0417
     49  CZ       123.6360  235.8510   47.0900 C.ar   93  TYR93       0.1957
     50  OH       123.0880  235.2510   48.2040 O.3    93  TYR93      -0.2866
     51  N        126.8210  236.9750   40.4240 N.am   94  SER94      -0.1950
     52  CA       127.2530  237.5220   39.1380 C.3    94  SER94       0.1924
     53  C        127.5280  239.0220   39.2480 C.2    94  SER94       0.2314
     54  O        126.9710  239.8500   38.5220 O.2    94  SER94      -0.2863
     55  CB       126.2180  237.2230   38.0500 C.3    94  SER94       0.2116
     56  OG       126.8420  237.1150   36.7830 O.3    94  SER94      -0.2180
     57  N        129.0750  241.9840   38.4990 N.3    96  VAL96      -0.1245
     58  CA       129.8860  242.6030   37.4470 C.3    96  VAL96       0.1561
     59  C        130.9280  243.5720   37.9910 C.2    96  VAL96       0.2260
     60  O        132.0990  243.4620   37.6010 O.2    96  VAL96      -0.2867
     61  CB       128.9590  243.2710   36.4010 C.3    96  VAL96       0.0252
     62  CG1      129.7750  244.0490   35.3650 C.3    96  VAL96       0.0019
     63  CG2      128.0980  242.2230   35.7180 C.3    96  VAL96       0.0019
     64  N        125.8750  231.0420   34.9570 N.3   185  THR185     -0.1203
     65  CA       124.8780  231.6850   34.1130 C.3   185  THR185      0.1994
     66  C        125.4600  232.9100   33.4070 C.2   185  THR185      0.2618
     67  O        126.4430  233.5090   33.8480 O.2   185  THR185     -0.2717
     68  CB       123.6680  232.1310   34.9330 C.3   185  THR185      0.1784
     69  OG1      124.0980  233.0340   35.9620 O.3   185  THR185     -0.2211
     70  CG2      122.9500  230.9410   35.5450 C.3   185  THR185      0.0376
     71  N        124.8110  233.2910   32.3160 N.am  186  GLY186     -0.1942
     72  CA       125.1430  234.5210   31.6210 C.3   186  GLY186      0.2014
     73  C        123.8890  235.1670   31.0760 C.2   186  GLY186      0.2638
     74  O        122.9020  234.4960   30.7670 O.2   186  GLY186     -0.2714
     75  N        123.9440  236.4920   30.9520 N.am  187  TYR187     -0.1973
     76  CA       122.8160  237.2760   30.4560 C.3   187  TYR187      0.1639
     77  C        123.4000  238.4360   29.6620 C.2   187  TYR187      0.2290
     78  O        123.9860  239.3510   30.2500 O.2   187  TYR187     -0.2864
     79  CB       121.9520  237.7680   31.6180 C.3   187  TYR187      0.0560
     80  CG       120.7010  238.5350   31.2480 C.ar  187  TYR187     -0.0198
     81  CD1      120.0910  238.3780   30.0070 C.ar  187  TYR187     -0.0009
     82  CD2      120.1200  239.4130   32.1560 C.ar  187  TYR187     -0.0009
     83  CE1      118.9390  239.0810   29.6860 C.ar  187  TYR187      0.0417
     84  CE2      118.9780  240.1180   31.8420 C.ar  187  TYR187      0.0417
     85  CZ       118.3900  239.9490   30.6110 C.ar  187  TYR187      0.1957
     86  OH       117.2500  240.6590   30.3100 O.3   187  TYR187     -0.2866
     87  N        122.8180  241.5980   27.3540 N.3   189  THR189     -0.1218
     88  CA       121.7880  242.5760   27.0310 C.3   189  THR189      0.1862
     89  C        122.2920  243.8230   26.3220 C.2   189  THR189      0.2287
     90  O        121.4630  244.6020   25.8410 O.2   189  THR189     -0.2866
     91  CB       121.0560  243.0270   28.3050 C.3   189  THR189      0.1770
     92  OG1      121.9790  243.6880   29.1780 O.3   189  THR189     -0.2211
     93  CG2      120.4420  241.8390   29.0160 C.3   189  THR189      0.0375
     94  N        113.8880  240.0010   30.9580 N.3   220  SER220     -0.1217
     95  CA       114.4520  239.2790   32.0930 C.3   220  SER220      0.1889
     96  C        113.4710  238.2980   32.7230 C.2   220  SER220      0.2288
     97  O        113.8850  237.4840   33.5560 O.2   220  SER220     -0.2866
     98  CB       114.9330  240.2720   33.1540 C.3   220  SER220      0.2089
     99  OG       113.8670  241.0860   33.6120 O.3   220  SER220     -0.2183
    100  N        114.5370  234.4460   32.5910 N.3   223  LEU223     -0.1245
    101  CA       115.8740  234.0070   32.9760 C.3   223  LEU223      0.1561
    102  C        115.8560  232.6180   33.6000 C.2   223  LEU223      0.2260
    103  O        116.8100  231.8520   33.4230 O.2   223  LEU223     -0.2867
    104  CB       116.5000  235.0170   33.9390 C.3   223  LEU223      0.0270
    105  CG       116.9510  236.3340   33.3030 C.3   223  LEU223      0.0019
    106  CD1      117.3420  237.3450   34.3720 C.3   223  LEU223      0.0001
    107  CD2      118.1140  236.0970   32.3400 C.3   223  LEU223      0.0001
    108  N        116.6840  229.3020   31.5870 N.3   226  ARG226     -0.1231
    109  CA       118.0270  228.8170   31.2910 C.3   226  ARG226      0.1694
    110  C        118.2800  227.4870   31.9890 C.2   226  ARG226      0.2591
    111  O        118.6710  226.4990   31.3550 O.2   226  ARG226     -0.2718
    112  CB       119.0680  229.8600   31.7110 C.3   226  ARG226      0.0321
    113  CG       118.9780  231.1820   30.9490 C.3   226  ARG226      0.0489
    114  CD       119.9150  232.2360   31.5320 C.3   226  ARG226      0.2205
    115  NE       119.5630  232.5750   32.9080 N.pl3 226  ARG226     -0.0865
    116  CZ       120.2150  233.4570   33.6590 C.cat 226  ARG226      0.5346
    117  NH1      119.8180  233.6890   34.9010 N.pl3 226  ARG226      0.1354
    118  NH2      121.2680  234.1060   33.1780 N.pl3 226  ARG226      0.1354
    119  N        118.0440  227.4400   33.3000 N.am  227  GLN227     -0.1979
    120  CA       118.2420  226.2090   34.0560 C.3   227  GLN227      0.1601
    121  C        117.0990  225.2250   33.8390 C.2   227  GLN227      0.2287
    122  O        117.3300  224.0140   33.7560 O.2   227  GLN227     -0.2864
    123  CB       118.3870  226.5310   35.5460 C.3   227  GLN227      0.0394
    124  CG       119.5660  227.4370   35.8750 C.3   227  GLN227      0.0908
    125  CD       119.1790  228.9050   35.9790 C.2   227  GLN227      0.2608
    126  OE1      118.2380  229.3650   35.3280 O.2   227  GLN227     -0.2717
    127  NE2      119.9150  229.6500   36.7990 N.am  227  GLN227     -0.0878
@<TRIPOS>BOND
     1    90    89    2
     2    89    88    1
     3    88    87    1
     4    88    91    1
     5    91    93    1
     6    91    92    1
     7    77    78    2
     8    77    76    1
     9    83    81   ar
    10    83    85   ar
    11    81    80   ar
    12    86    85    1
    13    76    75    1
    14    76    79    1
    15    85    84   ar
    16    74    73    2
    17   113   114    1
    18   113   112    1
    19    75    73   am
    20    94    95    1
    21    73    72    1
    22    80    79    1
    23    80    82   ar
    24   109   108    1
    25   109   112    1
    26   109   110    1
    27   111   110    2
    28   114   115    1
    29    72    71    1
    30    84    82   ar
    31   110   119   am
    32    95    96    1
    33    95    98    1
    34    71    66   am
    35   107   105    1
    36   100   101    1
    37    96    97    2
    38   115   116    2
    39   101   102    1
    40   101   104    1
    41    98    99    1
    42   118   116    1
    43   119   120    1
    44   105   104    1
    45   105   106    1
    46    66    67    2
    47    66    65    1
    48   103   102    2
    49   116   117    1
    50   122   121    2
    51   121   120    1
    52   120   123    1
    53    65    68    1
    54    65    64    1
    55    68    70    1
    56    68    69    1
    57   126   125    2
    58    62    61    1
    59   123   124    1
    60    63    61    1
    61   124   125    1
    62   125   127   am
    63    61    58    1
    64    56    55    1
    65    58    59    1
    66    58    57    1
    67    29    28   ar
    68    29    27   ar
    69    60    59    2
    70    55    52    1
    71    28    26   ar
    72    27    25   ar
    73    54    53    2
    74     8     6    1
    75    52    53    1
    76    52    51    1
    77     6     5    1
    78    26    23   ar
    79    25    23   ar
    80    25    24   ar
    81    23    21   ar
    82    51    41   am
    83    24    22   ar
    84     5     7    1
    85     5     2    1
    86    42    41    2
    87     1     2    1
    88    41    40    1
    89     2     3    1
    90    21    22   ar
    91    21    20    1
    92    33    32    2
    93    40    39    1
    94    40    43    1
    95    32    39   am
    96    32    31    1
    97    30    31    1
    98    20    17    1
    99    31    34    1
   100     3     4    2
   101    43    44    1
   102    14    13    1
   103    17    16    1
   104    17    18    1
   105    34    35    1
   106    16    11   am
   107    44    45   ar
   108    44    46   ar
   109    35    36    1
   110    45    47   ar
   111    18    19    2
   112     9    10    1
   113    13    10    1
   114    13    15    1
   115    11    10    1
   116    11    12    2
   117    46    48   ar
   118    47    49   ar
   119    36    37    1
   120    37    38    1
   121    48    49   ar
   122    49    50    1
