@<TRIPOS>MOLECULE
tmp/5qaeA00.pdb
 115 110 0 0 0
SMALL
GASTEIGER

@<TRIPOS>ATOM
      1  N         95.4730  243.1130   11.0940 N.3    77  ASP77      -0.1225
      2  CA        96.9070  243.2700   10.8680 C.3    77  ASP77       0.1805
      3  C         97.4110  244.6780   11.1530 C.2    77  ASP77       0.2597
      4  O         98.6200  244.9130   11.0590 O.2    77  ASP77      -0.2718
      5  CB        97.2800  242.8530    9.4420 C.3    77  ASP77       0.1424
      6  CG        96.6820  243.7440    8.3810 C.2    77  ASP77       0.3668
      7  OD1       95.8790  244.6420    8.7050 O.co2  77  ASP77      -0.2456
      8  OD2       97.0250  243.5270    7.2010 O.co2  77  ASP77      -0.2456
      9  N         96.5300  245.6130   11.4870 N.am   78  ILE78      -0.1980
     10  CA        96.9210  246.9640   11.8670 C.3    78  ILE78       0.1595
     11  C         96.7400  247.0500   13.3780 C.2    78  ILE78       0.2287
     12  O         95.6090  247.0510   13.8820 O.2    78  ILE78      -0.2864
     13  CB        96.0850  248.0250   11.1410 C.3    78  ILE78       0.0276
     14  CG1       96.1890  247.8570    9.6220 C.3    78  ILE78       0.0022
     15  CG2       96.5360  249.4180   11.5470 C.3    78  ILE78       0.0022
     16  CD1       97.5940  247.9420    9.0580 C.3    78  ILE78       0.0001
     17  N         96.9680  249.3060   15.6990 N.3    80  THR80      -0.1203
     18  CA        96.1640  250.3850   16.2710 C.3    80  THR80       0.1994
     19  C         94.6690  250.1680   16.0740 C.2    80  THR80       0.2617
     20  O         93.8660  250.8570   16.7130 O.2    80  THR80      -0.2717
     21  CB        96.5640  251.7390   15.6700 C.3    80  THR80       0.1784
     22  OG1       96.4170  251.7140   14.2430 O.3    80  THR80      -0.2211
     23  CG2       98.0050  252.0820   16.0390 C.3    80  THR80       0.0376
     24  N         94.2740  249.2620   15.1780 N.am   81  TRP81      -0.1975
     25  CA        92.8600  248.9690   14.9820 C.3    81  TRP81       0.1640
     26  C         92.2970  248.0210   16.0360 C.2    81  TRP81       0.2290
     27  O         91.0740  247.9610   16.1990 O.2    81  TRP81      -0.2864
     28  CB        92.6340  248.3680   13.5910 C.3    81  TRP81       0.0576
     29  CG        92.8530  249.3200   12.4510 C.ar   81  TRP81       0.0006
     30  CD1       93.3020  250.6080   12.5220 C.ar   81  TRP81       0.0946
     31  CD2       92.6410  249.0440   11.0590 C.ar   81  TRP81       0.0152
     32  NE1       93.3790  251.1530   11.2580 N.ar   81  TRP81      -0.2442
     33  CE2       92.9770  250.2120   10.3440 C.ar   81  TRP81       0.0810
     34  CE3       92.1960  247.9230   10.3500 C.ar   81  TRP81       0.0012
     35  CZ2       92.8810  250.2920    8.9540 C.ar   81  TRP81       0.0191
     36  CZ3       92.1010  248.0060    8.9580 C.ar   81  TRP81       0.0001
     37  CH2       92.4410  249.1800    8.2820 C.ar   81  TRP81       0.0015
     38  N         92.1740  259.5380   13.0990 N.3    92  LYS92      -0.1231
     39  CA        93.6250  259.6310   13.1860 C.3    92  LYS92       0.1693
     40  C         94.3000  258.3620   12.6560 C.2    92  LYS92       0.2592
     41  O         95.2870  258.4400   11.9160 O.2    92  LYS92      -0.2718
     42  CB        94.0260  259.8790   14.6390 C.3    92  LYS92       0.0285
     43  CG        95.5280  259.9390   14.8820 C.3    92  LYS92       0.0035
     44  CD        95.8490  260.1590   16.3560 C.3    92  LYS92       0.0206
     45  CE        97.3380  260.1790   16.6040 C.3    92  LYS92       0.1093
     46  NZ        97.6430  260.3640   18.0580 N.3    92  LYS92      -0.1314
     47  N         93.7970  257.1870   13.0340 N.am   93  TYR93      -0.1962
     48  CA        94.3870  255.9090   12.6340 C.3    93  TYR93       0.1771
     49  C         93.6530  255.2380   11.4720 C.2    93  TYR93       0.2620
     50  O         93.8780  254.0500   11.2260 O.2    93  TYR93      -0.2715
     51  CB        94.4450  254.9450   13.8310 C.3    93  TYR93       0.0574
     52  CG        95.3300  255.4550   14.9500 C.ar   93  TYR93      -0.0198
     53  CD1       96.7120  255.4190   14.8330 C.ar   93  TYR93      -0.0009
     54  CD2       94.7870  256.0080   16.1020 C.ar   93  TYR93      -0.0009
     55  CE1       97.5340  255.9050   15.8350 C.ar   93  TYR93       0.0417
     56  CE2       95.6060  256.4990   17.1190 C.ar   93  TYR93       0.0417
     57  CZ        96.9780  256.4450   16.9720 C.ar   93  TYR93       0.1957
     58  OH        97.8070  256.9250   17.9580 O.3    93  TYR93      -0.2866
     59  N         92.7770  255.9590   10.7690 N.am   94  SER94      -0.1950
     60  CA        92.0670  255.4570    9.5850 C.3    94  SER94       0.1924
     61  C         91.4770  254.0700    9.8440 C.2    94  SER94       0.2314
     62  O         91.7440  253.1010    9.1310 O.2    94  SER94      -0.2863
     63  CB        92.9800  255.4310    8.3520 C.3    94  SER94       0.2116
     64  OG        93.3720  256.7300    7.9740 O.3    94  SER94      -0.2180
     65  N         94.2930  261.5760    5.1650 N.3   185  THR185     -0.1218
     66  CA        95.0480  260.7680    4.2170 C.3   185  THR185      0.1862
     67  C         94.1610  259.6920    3.5960 C.2   185  THR185      0.2287
     68  O         93.0950  259.3520    4.1140 O.2   185  THR185     -0.2866
     69  CB        96.2380  260.0900    4.8930 C.3   185  THR185      0.1770
     70  OG1       95.7690  259.2470    5.9470 O.3   185  THR185     -0.2211
     71  CG2       97.2130  261.1150    5.4440 C.3   185  THR185      0.0375
     72  N         94.5790  255.8180    1.1140 N.3   187  TYR187     -0.1241
     73  CA        95.4440  254.7820    0.5460 C.3   187  TYR187      0.1605
     74  C         94.5580  253.7670   -0.1670 C.2   187  TYR187      0.2264
     75  O         93.8880  252.9640    0.4870 O.2   187  TYR187     -0.2867
     76  CB        96.2740  254.1170    1.6460 C.3   187  TYR187      0.0534
     77  CG        97.2540  253.0530    1.1850 C.ar  187  TYR187     -0.0201
     78  CD1       97.7720  253.0500   -0.1040 C.ar  187  TYR187     -0.0009
     79  CD2       97.6530  252.0400    2.0500 C.ar  187  TYR187     -0.0009
     80  CE1       98.6720  252.0720   -0.5130 C.ar  187  TYR187      0.0417
     81  CE2       98.5390  251.0670    1.6530 C.ar  187  TYR187      0.0417
     82  CZ        99.0450  251.0830    0.3720 C.ar  187  TYR187      0.1957
     83  OH        99.9270  250.1030   -0.0130 O.3   187  TYR187     -0.2866
     84  N         94.1870  250.6190   -2.7430 N.3   189  THR189     -0.1218
     85  CA        94.9450  249.5090   -3.3250 C.3   189  THR189      0.1862
     86  C         94.1040  248.4670   -4.0600 C.2   189  THR189      0.2287
     87  O         94.6740  247.6820   -4.8280 O.2   189  THR189     -0.2866
     88  CB        95.7480  248.7750   -2.2410 C.3   189  THR189      0.1770
     89  OG1       94.8490  248.1610   -1.3150 O.3   189  THR189     -0.2211
     90  CG2       96.6590  249.7270   -1.4980 C.3   189  THR189      0.0375
     91  N        103.3990  250.2160    0.0410 N.3   220  SER220     -0.1217
     92  CA       103.1660  251.0330    1.2210 C.3   220  SER220      0.1889
     93  C        104.4220  251.7650    1.6760 C.2   220  SER220      0.2288
     94  O        104.3280  252.6220    2.5590 O.2   220  SER220     -0.2866
     95  CB       102.6280  250.1670    2.3650 C.3   220  SER220      0.2089
     96  OG       103.5510  249.1460    2.7030 O.3   220  SER220     -0.2183
     97  N        104.2440  255.8100    1.6100 N.3   223  LEU223     -0.1245
     98  CA       103.0880  256.5300    2.1310 C.3   223  LEU223      0.1561
     99  C        103.4720  257.8680    2.7510 C.2   223  LEU223      0.2260
    100  O        102.6940  258.8250    2.6840 O.2   223  LEU223     -0.2867
    101  CB       102.3500  255.6600    3.1480 C.3   223  LEU223      0.0270
    102  CG       101.5610  254.5040    2.5340 C.3   223  LEU223      0.0019
    103  CD1      101.0370  253.5770    3.6070 C.3   223  LEU223      0.0001
    104  CD2      100.4040  255.0320    1.6800 C.3   223  LEU223      0.0001
    105  N        103.1250  261.2740    0.7010 N.3   226  ARG226     -0.1245
    106  CA       101.8990  262.0410    0.5330 C.3   226  ARG226      0.1563
    107  C        102.0120  263.3830    1.2390 C.2   226  ARG226      0.2260
    108  O        101.8010  264.4390    0.6320 O.2   226  ARG226     -0.2867
    109  CB       100.7140  261.2470    1.0710 C.3   226  ARG226      0.0307
    110  CG       100.4730  259.9300    0.3500 C.3   226  ARG226      0.0489
    111  CD        99.4350  259.0840    1.0880 C.3   226  ARG226      0.2205
    112  NE        99.8890  258.7020    2.4270 N.pl3 226  ARG226     -0.0865
    113  CZ        99.1670  257.9910    3.2900 C.cat 226  ARG226      0.5346
    114  NH1       99.6510  257.6950    4.4880 N.pl3 226  ARG226      0.1354
    115  NH2       97.9500  257.5850    2.9640 N.pl3 226  ARG226      0.1354
@<TRIPOS>BOND
     1    87    86    2
     2    86    85    1
     3    85    84    1
     4    85    88    1
     5    88    90    1
     6    88    89    1
     7    80    78   ar
     8    80    82   ar
     9    74    75    2
    10    74    73    1
    11    78    77   ar
    12    83    82    1
    13    91    92    1
    14   110   109    1
    15   110   111    1
    16    82    81   ar
    17   106   105    1
    18   106   109    1
    19   106   107    1
    20    73    72    1
    21    73    76    1
    22   108   107    2
    23   111   112    1
    24    77    76    1
    25    77    79   ar
    26    92    93    1
    27    92    95    1
    28    97    98    1
    29    81    79   ar
    30    93    94    2
    31   104   102    1
    32    98    99    1
    33    98   101    1
    34    95    96    1
    35   112   113    2
    36   102   101    1
    37   102   103    1
    38   100    99    2
    39   115   113    1
    40   113   114    1
    41    67    68    2
    42    67    66    1
    43    66    69    1
    44    66    65    1
    45    69    71    1
    46    69    70    1
    47     8     6   ar
    48    64    63    1
    49    37    35   ar
    50    37    36   ar
    51    63    60    1
    52     6     7   ar
    53     6     5    1
    54    35    33   ar
    55    36    34   ar
    56    16    14    1
    57    62    61    2
    58     5     2    1
    59    60    61    1
    60    60    59    1
    61    14    13    1
    62    33    31   ar
    63    33    32   ar
    64    34    31   ar
    65    59    49   am
    66     2     1    1
    67     2     3    1
    68    31    29   ar
    69     4     3    2
    70    13    15    1
    71    13    10    1
    72     3     9   am
    73    50    49    2
    74    32    30   ar
    75    49    48    1
    76     9    10    1
    77    10    11    1
    78    41    40    2
    79    29    30   ar
    80    29    28    1
    81    48    47    1
    82    48    51    1
    83    40    47   am
    84    40    39    1
    85    38    39    1
    86    39    42    1
    87    11    12    2
    88    28    25    1
    89    51    52    1
    90    22    21    1
    91    42    43    1
    92    53    52   ar
    93    53    55   ar
    94    43    44    1
    95    52    54   ar
    96    25    24    1
    97    25    26    1
    98    24    19   am
    99    21    23    1
   100    21    18    1
   101    17    18    1
   102    55    57   ar
   103    26    27    2
   104    19    18    1
   105    19    20    2
   106    54    56   ar
   107    44    45    1
   108    45    46    1
   109    57    56   ar
   110    57    58    1
