@<TRIPOS>MOLECULE
tmp/5qafD00.pdb
 118 114 0 0 0
SMALL
GASTEIGER

@<TRIPOS>ATOM
      1  N        -44.3050   17.0630    2.0000 N.3    47  SER47      -0.1217
      2  CA       -44.0870   16.5370    3.3460 C.3    47  SER47       0.1889
      3  C        -43.7860   15.0440    3.3810 C.2    47  SER47       0.2288
      4  O        -43.3710   14.5480    4.4330 O.2    47  SER47      -0.2866
      5  CB       -45.3060   16.8260    4.2260 C.3    47  SER47       0.2089
      6  OG       -45.5060   18.2200    4.3840 O.3    47  SER47      -0.2183
      7  N        -49.6210   30.1460   10.7440 N.3    77  ASP77      -0.1225
      8  CA       -51.0680   29.9820   10.6190 C.3    77  ASP77       0.1805
      9  C        -51.5600   28.5930   11.0080 C.2    77  ASP77       0.2597
     10  O        -52.7740   28.4070   11.1460 O.2    77  ASP77      -0.2718
     11  CB       -51.5310   30.3100    9.1970 C.3    77  ASP77       0.1424
     12  CG       -50.9810   29.3540    8.1630 C.2    77  ASP77       0.3668
     13  OD1      -50.1230   28.5200    8.5150 O.co2  77  ASP77      -0.2456
     14  OD2      -51.4130   29.4360    6.9940 O.co2  77  ASP77      -0.2456
     15  N        -50.6730   27.6200   11.1680 N.am   78  ILE78      -0.1980
     16  CA       -51.0500   26.2810   11.6070 C.3    78  ILE78       0.1595
     17  C        -50.7750   26.2050   13.1020 C.2    78  ILE78       0.2287
     18  O        -49.6190   26.2420   13.5390 O.2    78  ILE78      -0.2864
     19  CB       -50.3090   25.1900   10.8210 C.3    78  ILE78       0.0276
     20  CG1      -50.5850   25.3440    9.3200 C.3    78  ILE78       0.0022
     21  CG2      -50.7000   23.7980   11.3080 C.3    78  ILE78       0.0022
     22  CD1      -49.6500   24.5670    8.4440 C.3    78  ILE78       0.0001
     23  N        -50.8660   23.9310   15.4280 N.3    80  THR80      -0.1203
     24  CA       -50.0170   22.8850   15.9860 C.3    80  THR80       0.1994
     25  C        -48.5420   23.0980   15.6760 C.2    80  THR80       0.2617
     26  O        -47.7020   22.4090   16.2650 O.2    80  THR80      -0.2717
     27  CB       -50.4530   21.5070   15.4820 C.3    80  THR80       0.1784
     28  OG1      -50.4290   21.4830   14.0490 O.3    80  THR80      -0.2211
     29  CG2      -51.8540   21.1680   15.9860 C.3    80  THR80       0.0376
     30  N        -48.2030   24.0230   14.7730 N.am   81  TRP81      -0.1975
     31  CA       -46.8050   24.3580   14.5380 C.3    81  TRP81       0.1640
     32  C        -46.2490   25.3120   15.5880 C.2    81  TRP81       0.2290
     33  O        -45.0280   25.3670   15.7710 O.2    81  TRP81      -0.2864
     34  CB       -46.6260   24.9880   13.1530 C.3    81  TRP81       0.0576
     35  CG       -46.8290   24.0440   12.0020 C.ar   81  TRP81       0.0006
     36  CD1      -47.3030   22.7650   12.0570 C.ar   81  TRP81       0.0946
     37  CD2      -46.5460   24.3070   10.6230 C.ar   81  TRP81       0.0152
     38  NE1      -47.3380   22.2190   10.7950 N.ar   81  TRP81      -0.2442
     39  CE2      -46.8780   23.1460    9.8980 C.ar   81  TRP81       0.0810
     40  CE3      -46.0460   25.4150    9.9310 C.ar   81  TRP81       0.0012
     41  CZ2      -46.7250   23.0600    8.5150 C.ar   81  TRP81       0.0191
     42  CZ3      -45.8980   25.3290    8.5600 C.ar   81  TRP81       0.0001
     43  CH2      -46.2360   24.1590    7.8660 C.ar   81  TRP81       0.0015
     44  N        -46.2170   13.8560   12.8660 N.3    92  LYS92      -0.1231
     45  CA       -47.6720   13.7720   12.9440 C.3    92  LYS92       0.1693
     46  C        -48.3270   15.0290   12.3860 C.2    92  LYS92       0.2592
     47  O        -49.2670   14.9530   11.5870 O.2    92  LYS92      -0.2718
     48  CB       -48.0880   13.5410   14.3960 C.3    92  LYS92       0.0285
     49  CG       -49.5840   13.4540   14.6320 C.3    92  LYS92       0.0035
     50  CD       -49.8690   13.2130   16.1110 C.3    92  LYS92       0.0206
     51  CE       -51.3560   13.1740   16.4070 C.3    92  LYS92       0.1093
     52  NZ       -51.6110   12.9690   17.8610 N.3    92  LYS92      -0.1314
     53  N        -47.8410   16.1980   12.7950 N.am   93  TYR93      -0.1962
     54  CA       -48.4120   17.4650   12.3650 C.3    93  TYR93       0.1771
     55  C        -47.6540   18.0760   11.1930 C.2    93  TYR93       0.2620
     56  O        -47.9000   19.2360   10.8480 O.2    93  TYR93      -0.2715
     57  CB       -48.4620   18.4390   13.5440 C.3    93  TYR93       0.0574
     58  CG       -49.3390   17.9320   14.6650 C.ar   93  TYR93      -0.0198
     59  CD1      -50.7170   17.8720   14.5160 C.ar   93  TYR93      -0.0009
     60  CD2      -48.7910   17.5020   15.8660 C.ar   93  TYR93      -0.0009
     61  CE1      -51.5260   17.4000   15.5280 C.ar   93  TYR93       0.0417
     62  CE2      -49.5940   17.0290   16.8880 C.ar   93  TYR93       0.0417
     63  CZ       -50.9600   16.9810   16.7110 C.ar   93  TYR93       0.1957
     64  OH       -51.7700   16.5150   17.7180 O.3    93  TYR93      -0.2866
     65  N        -46.7440   17.3230   10.5770 N.am   94  SER94      -0.1950
     66  CA       -46.0550   17.7450    9.3600 C.3    94  SER94       0.1924
     67  C        -45.4850   19.1530    9.5280 C.2    94  SER94       0.2314
     68  O        -45.7810   20.0760    8.7660 O.2    94  SER94      -0.2863
     69  CB       -46.9970   17.6620    8.1570 C.3    94  SER94       0.2116
     70  OG       -46.2720   17.6290    6.9440 O.3    94  SER94      -0.2180
     71  N        -48.2540   11.7620    4.9790 N.3   185  THR185     -0.1203
     72  CA       -49.0210   12.5820    4.0580 C.3   185  THR185      0.1994
     73  C        -48.1300   13.6400    3.4160 C.2   185  THR185      0.2618
     74  O        -47.0660   13.9930    3.9310 O.2   185  THR185     -0.2717
     75  CB       -50.1870   13.2550    4.7820 C.3   185  THR185      0.1784
     76  OG1      -49.6900   14.0470    5.8680 O.3   185  THR185     -0.2211
     77  CG2      -51.1660   12.2140    5.3110 C.3   185  THR185      0.0376
     78  N        -48.5830   14.1400    2.2750 N.am  186  GLY186     -0.1942
     79  CA       -47.9040   15.2280    1.5980 C.3   186  GLY186      0.2014
     80  C        -48.9070   16.1620    0.9590 C.2   186  GLY186      0.2638
     81  O        -49.9850   15.7480    0.5270 O.2   186  GLY186     -0.2714
     82  N        -48.5440   17.4430    0.9190 N.am  187  TYR187     -0.1973
     83  CA       -49.3900   18.4750    0.3260 C.3   187  TYR187      0.1639
     84  C        -48.4860   19.4560   -0.4120 C.2   187  TYR187      0.2290
     85  O        -47.7880   20.2550    0.2210 O.2   187  TYR187     -0.2864
     86  CB       -50.2130   19.1770    1.4090 C.3   187  TYR187      0.0560
     87  CG       -51.2440   20.1700    0.9170 C.ar  187  TYR187     -0.0198
     88  CD1      -51.7440   20.1170   -0.3770 C.ar  187  TYR187     -0.0009
     89  CD2      -51.7290   21.1580    1.7640 C.ar  187  TYR187     -0.0009
     90  CE1      -52.6930   21.0220   -0.8120 C.ar  187  TYR187      0.0417
     91  CE2      -52.6720   22.0660    1.3370 C.ar  187  TYR187      0.0417
     92  CZ       -53.1500   21.9940    0.0500 C.ar  187  TYR187      0.1957
     93  OH       -54.0920   22.9020   -0.3710 O.3   187  TYR187     -0.2866
     94  N        -57.3420   22.9480   -0.1270 N.3   220  SER220     -0.1217
     95  CA       -57.1330   22.1330    1.0630 C.3   220  SER220      0.1889
     96  C        -58.3960   21.4010    1.4980 C.2   220  SER220      0.2288
     97  O        -58.3060   20.4910    2.3280 O.2   220  SER220     -0.2866
     98  CB       -56.6120   23.0070    2.2070 C.3   220  SER220      0.2089
     99  OG       -57.5350   24.0340    2.5210 O.3   220  SER220     -0.2183
    100  N        -58.2250   17.4540    1.3580 N.3   223  LEU223     -0.1245
    101  CA       -57.0580   16.7430    1.8730 C.3   223  LEU223      0.1561
    102  C        -57.4380   15.3900    2.4640 C.2   223  LEU223      0.2260
    103  O        -56.6820   14.4190    2.3450 O.2   223  LEU223     -0.2867
    104  CB       -56.3470   17.6070    2.9160 C.3   223  LEU223      0.0270
    105  CG       -55.5470   18.7890    2.3650 C.3   223  LEU223      0.0019
    106  CD1      -55.0390   19.6530    3.5030 C.3   223  LEU223      0.0001
    107  CD2      -54.3760   18.3100    1.5150 C.3   223  LEU223      0.0001
    108  N        -57.1330   11.9510    0.5330 N.3   226  ARG226     -0.1245
    109  CA       -55.8980   11.1880    0.3930 C.3   226  ARG226      0.1563
    110  C        -56.0040    9.8530    1.1190 C.2   226  ARG226      0.2260
    111  O        -55.6780    8.7980    0.5630 O.2   226  ARG226     -0.2867
    112  CB       -54.7250   12.0030    0.9340 C.3   226  ARG226      0.0307
    113  CG       -54.4640   13.2950    0.1760 C.3   226  ARG226      0.0489
    114  CD       -53.4310   14.1460    0.8910 C.3   226  ARG226      0.2205
    115  NE       -53.8710   14.5150    2.2340 N.pl3 226  ARG226     -0.0865
    116  CZ       -53.1560   15.2430    3.0850 C.cat 226  ARG226      0.5346
    117  NH1      -53.6440   15.5240    4.2870 N.pl3 226  ARG226      0.1354
    118  NH2      -51.9570   15.6910    2.7390 N.pl3 226  ARG226      0.1354
@<TRIPOS>BOND
     1    90    88   ar
     2    90    92   ar
     3    84    85    2
     4    84    83    1
     5    88    87   ar
     6    93    92    1
     7    94    95    1
     8    92    91   ar
     9   113   114    1
    10   113   112    1
    11    83    82    1
    12    83    86    1
    13   109   108    1
    14   109   112    1
    15   109   110    1
    16    81    80    2
    17   111   110    2
    18   114   115    1
    19    87    86    1
    20    87    89   ar
    21    82    80   am
    22    80    79    1
    23    95    96    1
    24    95    98    1
    25    91    89   ar
    26   100   101    1
    27    96    97    2
    28   107   105    1
    29    79    78    1
    30   101   102    1
    31   101   104    1
    32     1     2    1
    33    98    99    1
    34   115   116    2
    35    78    73   am
    36   103   102    2
    37   105   104    1
    38   105   106    1
    39   118   116    1
    40   116   117    1
    41     2     3    1
    42     2     5    1
    43     3     4    2
    44    73    74    2
    45    73    72    1
    46    72    75    1
    47    72    71    1
    48     5     6    1
    49    75    77    1
    50    75    76    1
    51    70    69    1
    52    14    12   ar
    53    43    41   ar
    54    43    42   ar
    55    69    66    1
    56    12    13   ar
    57    12    11    1
    58    22    20    1
    59    41    39   ar
    60    42    40   ar
    61    68    67    2
    62    11     8    1
    63    20    19    1
    64    66    67    1
    65    66    65    1
    66    39    37   ar
    67    39    38   ar
    68    40    37   ar
    69    65    55   am
    70     8     7    1
    71     8     9    1
    72    37    35   ar
    73    38    36   ar
    74    19    21    1
    75    19    16    1
    76    56    55    2
    77     9    10    2
    78     9    15   am
    79    15    16    1
    80    55    54    1
    81    47    46    2
    82    16    17    1
    83    35    36   ar
    84    35    34    1
    85    54    53    1
    86    54    57    1
    87    46    53   am
    88    46    45    1
    89    44    45    1
    90    45    48    1
    91    17    18    2
    92    34    31    1
    93    57    58    1
    94    28    27    1
    95    48    49    1
    96    59    58   ar
    97    59    61   ar
    98    31    30    1
    99    31    32    1
   100    49    50    1
   101    58    60   ar
   102    30    25   am
   103    23    24    1
   104    27    24    1
   105    27    29    1
   106    61    63   ar
   107    32    33    2
   108    25    24    1
   109    25    26    2
   110    60    62   ar
   111    50    51    1
   112    51    52    1
   113    63    62   ar
   114    63    64    1
