@<TRIPOS>MOLECULE
tmp/5qagA00.pdb
 132 125 0 0 0
SMALL
GASTEIGER

@<TRIPOS>ATOM
      1  N         90.4520  254.8320    2.1780 N.3    47  SER47      -0.1217
      2  CA        90.1980  255.3310    3.5240 C.3    47  SER47       0.1889
      3  C         89.9560  256.8350    3.5780 C.2    47  SER47       0.2288
      4  O         89.5860  257.3370    4.6450 O.2    47  SER47      -0.2866
      5  CB        91.3600  254.9650    4.4450 C.3    47  SER47       0.2089
      6  OG        91.4480  253.5590    4.5960 O.3    47  SER47      -0.2183
      7  N         96.9080  244.1430   11.1700 N.3    78  ILE78      -0.1245
      8  CA        97.2950  245.4910   11.5760 C.3    78  ILE78       0.1561
      9  C         97.0600  245.6030   13.0770 C.2    78  ILE78       0.2260
     10  O         95.9170  245.5530   13.5470 O.2    78  ILE78      -0.2867
     11  CB        96.5390  246.5630   10.7810 C.3    78  ILE78       0.0252
     12  CG1       96.9260  246.4400    9.3020 C.3    78  ILE78       0.0019
     13  CG2       96.8480  247.9560   11.3230 C.3    78  ILE78       0.0019
     14  CD1       96.2140  247.3840    8.3800 C.3    78  ILE78       0.0001
     15  N         97.2090  247.9450   15.4240 N.3    80  THR80      -0.1203
     16  CA        96.3800  249.0030   15.9940 C.3    80  THR80       0.1994
     17  C         94.8890  248.7770   15.7730 C.2    80  THR80       0.2617
     18  O         94.0800  249.4920   16.3740 O.2    80  THR80      -0.2717
     19  CB        96.7830  250.3650   15.4160 C.3    80  THR80       0.1784
     20  OG1       95.8930  251.3770   15.9070 O.3    80  THR80      -0.2211
     21  CG2       96.7400  250.3560   13.8900 C.3    80  THR80       0.0376
     22  N         94.5040  247.8130   14.9360 N.am   81  TRP81      -0.1975
     23  CA        93.0920  247.5110   14.7320 C.3    81  TRP81       0.1640
     24  C         92.5380  246.5650   15.7890 C.2    81  TRP81       0.2290
     25  O         91.3150  246.4740   15.9390 O.2    81  TRP81      -0.2864
     26  CB        92.8640  246.8930   13.3500 C.3    81  TRP81       0.0576
     27  CG        93.1300  247.8220   12.2010 C.ar   81  TRP81       0.0006
     28  CD1       93.6470  249.0830   12.2640 C.ar   81  TRP81       0.0946
     29  CD2       92.8750  247.5630   10.8140 C.ar   81  TRP81       0.0152
     30  NE1       93.7370  249.6230   11.0030 N.ar   81  TRP81      -0.2442
     31  CE2       93.2680  248.7110   10.0950 C.ar   81  TRP81       0.0810
     32  CE3       92.3540  246.4730   10.1100 C.ar   81  TRP81       0.0012
     33  CZ2       93.1560  248.7980    8.7080 C.ar   81  TRP81       0.0191
     34  CZ3       92.2460  246.5620    8.7320 C.ar   81  TRP81       0.0001
     35  CH2       92.6450  247.7160    8.0470 C.ar   81  TRP81       0.0015
     36  N         92.4560  258.1520   13.0390 N.3    92  LYS92      -0.1231
     37  CA        93.9090  258.2540   13.1060 C.3    92  LYS92       0.1693
     38  C         94.5870  256.9990   12.5700 C.2    92  LYS92       0.2592
     39  O         95.5780  257.0850   11.8340 O.2    92  LYS92      -0.2718
     40  CB        94.3220  258.5100   14.5560 C.3    92  LYS92       0.0285
     41  CG        95.8140  258.6020   14.8090 C.3    92  LYS92       0.0035
     42  CD        96.0720  258.8360   16.2890 C.3    92  LYS92       0.0206
     43  CE        97.5490  258.8250   16.6240 C.3    92  LYS92       0.1093
     44  NZ        97.7690  258.9640   18.0930 N.3    92  LYS92      -0.1314
     45  N         94.0700  255.8250   12.9280 N.am   93  TYR93      -0.1962
     46  CA        94.6560  254.5570   12.5180 C.3    93  TYR93       0.1771
     47  C         93.8910  253.9050   11.3760 C.2    93  TYR93       0.2620
     48  O         94.1210  252.7270   11.0850 O.2    93  TYR93      -0.2715
     49  CB        94.7380  253.6130   13.7180 C.3    93  TYR93       0.0574
     50  CG        95.6300  254.1540   14.8120 C.ar   93  TYR93      -0.0198
     51  CD1       97.0120  254.1470   14.6740 C.ar   93  TYR93      -0.0009
     52  CD2       95.0920  254.6960   15.9700 C.ar   93  TYR93      -0.0009
     53  CE1       97.8330  254.6490   15.6660 C.ar   93  TYR93       0.0417
     54  CE2       95.9040  255.2000   16.9680 C.ar   93  TYR93       0.0417
     55  CZ        97.2740  255.1760   16.8100 C.ar   93  TYR93       0.1957
     56  OH        98.0870  255.6780   17.7990 O.3    93  TYR93      -0.2866
     57  N         93.0040  254.6470   10.7200 N.am   94  SER94      -0.1950
     58  CA        92.2620  254.1730    9.5580 C.3    94  SER94       0.1924
     59  C         91.7490  252.7510    9.7840 C.2    94  SER94       0.2314
     60  O         92.0970  251.8060    9.0750 O.2    94  SER94      -0.2863
     61  CB        93.1360  254.2540    8.3080 C.3    94  SER94       0.2116
     62  OG        92.3430  254.2960    7.1410 O.3    94  SER94      -0.2180
     63  N         89.5690  250.2070    9.3110 N.3    96  VAL96      -0.1245
     64  CA        88.5340  249.7860    8.3630 C.3    96  VAL96       0.1561
     65  C         87.3960  249.0370    9.0480 C.2    96  VAL96       0.2260
     66  O         86.2280  249.3850    8.8140 O.2    96  VAL96      -0.2867
     67  CB        89.1650  248.9790    7.2230 C.3    96  VAL96       0.0252
     68  CG1       88.0960  248.4550    6.2650 C.3    96  VAL96       0.0019
     69  CG2       90.1940  249.8160    6.4670 C.3    96  VAL96       0.0019
     70  N         86.4440  250.3650   -1.1250 N.3   134  LEU134     -0.1245
     71  CA        87.7050  249.6550   -1.2940 C.3   134  LEU134      0.1561
     72  C         87.7680  248.8240   -2.5670 C.2   134  LEU134      0.2260
     73  O         88.8460  248.6950   -3.1490 O.2   134  LEU134     -0.2867
     74  CB        87.9560  248.7300   -0.0960 C.3   134  LEU134      0.0270
     75  CG        87.9400  249.4200    1.2690 C.3   134  LEU134      0.0019
     76  CD1       87.8950  248.3940    2.3940 C.3   134  LEU134      0.0001
     77  CD2       89.1350  250.3530    1.4250 C.3   134  LEU134      0.0001
     78  N         94.4100  260.1250    5.2260 N.3   185  THR185     -0.1203
     79  CA        95.1940  259.3220    4.3040 C.3   185  THR185      0.1994
     80  C         94.3190  258.2540    3.6580 C.2   185  THR185      0.2618
     81  O         93.2400  257.9160    4.1510 O.2   185  THR185     -0.2717
     82  CB        96.3670  258.6590    5.0230 C.3   185  THR185      0.1784
     83  OG1       95.8700  257.8080    6.0630 O.3   185  THR185     -0.2211
     84  CG2       97.2840  259.7120    5.6310 C.3   185  THR185      0.0376
     85  N         94.8070  257.7200    2.5490 N.am  186  GLY186     -0.1942
     86  CA        94.1290  256.6310    1.8720 C.3   186  GLY186      0.2014
     87  C         95.1320  255.7250    1.2010 C.2   186  GLY186      0.2638
     88  O         96.2060  256.1620    0.7750 O.2   186  GLY186     -0.2714
     89  N         94.7780  254.4440    1.1140 N.am  187  TYR187     -0.1973
     90  CA        95.6290  253.4350    0.4870 C.3   187  TYR187      0.1639
     91  C         94.7270  252.4630   -0.2610 C.2   187  TYR187      0.2290
     92  O         94.0780  251.6160    0.3590 O.2   187  TYR187     -0.2864
     93  CB        96.4730  252.7100    1.5370 C.3   187  TYR187      0.0560
     94  CG        97.5260  251.7660    0.9950 C.ar  187  TYR187     -0.0198
     95  CD1       97.9450  251.8320   -0.3290 C.ar  187  TYR187     -0.0009
     96  CD2       98.1080  250.8070    1.8160 C.ar  187  TYR187     -0.0009
     97  CE1       98.9110  250.9710   -0.8160 C.ar  187  TYR187      0.0417
     98  CE2       99.0710  249.9430    1.3370 C.ar  187  TYR187      0.0417
     99  CZ        99.4690  250.0280    0.0220 C.ar  187  TYR187      0.1957
    100  OH       100.4300  249.1670   -0.4550 O.3   187  TYR187     -0.2866
    101  N         94.4170  249.3980   -2.7420 N.3   189  THR189     -0.1218
    102  CA        95.1850  248.2660   -3.2400 C.3   189  THR189      0.1862
    103  C         94.3550  247.2220   -3.9710 C.2   189  THR189      0.2287
    104  O         94.9330  246.3910   -4.6790 O.2   189  THR189     -0.2866
    105  CB        95.9160  247.5590   -2.0870 C.3   189  THR189      0.1770
    106  OG1       94.9560  247.0320   -1.1610 O.3   189  THR189     -0.2211
    107  CG2       96.8410  248.5180   -1.3630 C.3   189  THR189      0.0375
    108  N        103.5400  248.9760    0.2040 N.3   220  SER220     -0.1217
    109  CA       103.2950  249.7880    1.3880 C.3   220  SER220      0.1889
    110  C        104.5370  250.5290    1.8630 C.2   220  SER220      0.2288
    111  O        104.4170  251.4190    2.7120 O.2   220  SER220     -0.2866
    112  CB       102.7610  248.9110    2.5210 C.3   220  SER220      0.2089
    113  OG       103.6950  247.9040    2.8690 O.3   220  SER220     -0.2183
    114  N        104.3590  254.5510    1.6900 N.3   223  LEU223     -0.1245
    115  CA       103.2140  255.3090    2.1890 C.3   223  LEU223      0.1561
    116  C        103.6440  256.6310    2.8120 C.2   223  LEU223      0.2260
    117  O        102.9350  257.6380    2.6980 O.2   223  LEU223     -0.2867
    118  CB       102.4230  254.4750    3.1980 C.3   223  LEU223      0.0270
    119  CG       101.6290  253.2990    2.6280 C.3   223  LEU223      0.0019
    120  CD1      101.0590  252.4480    3.7510 C.3   223  LEU223      0.0001
    121  CD2      100.5120  253.7950    1.7220 C.3   223  LEU223      0.0001
    122  N        103.4320  260.0450    0.8390 N.3   226  ARG226     -0.1245
    123  CA       102.2290  260.8510    0.6590 C.3   226  ARG226      0.1563
    124  C        102.3540  262.1860    1.3820 C.2   226  ARG226      0.2260
    125  O        102.1150  263.2470    0.7960 O.2   226  ARG226     -0.2867
    126  CB       101.0070  260.0780    1.1550 C.3   226  ARG226      0.0307
    127  CG       100.7490  258.7800    0.4050 C.3   226  ARG226      0.0489
    128  CD        99.6770  257.9490    1.0870 C.3   226  ARG226      0.2205
    129  NE       100.0760  257.5560    2.4360 N.pl3 226  ARG226     -0.0865
    130  CZ        99.3170  256.8520    3.2700 C.cat 226  ARG226      0.5346
    131  NH1       99.7720  256.5480    4.4770 N.pl3 226  ARG226      0.1354
    132  NH2       98.1070  256.4510    2.9020 N.pl3 226  ARG226      0.1354
@<TRIPOS>BOND
     1   104   103    2
     2   103   102    1
     3   102   101    1
     4   102   105    1
     5    73    72    2
     6    72    71    1
     7   105   107    1
     8   105   106    1
     9    71    70    1
    10    71    74    1
    11    97    95   ar
    12    97    99   ar
    13   100    99    1
    14    95    94   ar
    15    91    92    2
    16    91    90    1
    17    74    75    1
    18    99    98   ar
    19   108   109    1
    20   127   128    1
    21   127   126    1
    22    90    89    1
    23    90    93    1
    24   123   122    1
    25   123   126    1
    26   123   124    1
    27    88    87    2
    28   125   124    2
    29    94    93    1
    30    94    96   ar
    31   128   129    1
    32    89    87   am
    33    87    86    1
    34    75    77    1
    35    75    76    1
    36    98    96   ar
    37   109   110    1
    38   109   112    1
    39   114   115    1
    40   121   119    1
    41   110   111    2
    42    86    85    1
    43     1     2    1
    44   115   116    1
    45   115   118    1
    46   129   130    2
    47   112   113    1
    48    85    80   am
    49   119   118    1
    50   119   120    1
    51   117   116    2
    52   132   130    1
    53   130   131    1
    54     2     3    1
    55     2     5    1
    56     3     4    2
    57    80    81    2
    58    80    79    1
    59    79    82    1
    60    79    78    1
    61     5     6    1
    62    82    84    1
    63    82    83    1
    64    68    67    1
    65    69    67    1
    66    62    61    1
    67    67    64    1
    68    35    33   ar
    69    35    34   ar
    70    61    58    1
    71    64    65    1
    72    64    63    1
    73    14    12    1
    74    33    31   ar
    75    34    32   ar
    76    66    65    2
    77    60    59    2
    78    12    11    1
    79    58    59    1
    80    58    57    1
    81    31    29   ar
    82    31    30   ar
    83    32    29   ar
    84    57    47   am
    85    11    13    1
    86    11     8    1
    87    29    27   ar
    88    30    28   ar
    89    48    47    2
    90     7     8    1
    91    47    46    1
    92     8     9    1
    93    39    38    2
    94    27    28   ar
    95    27    26    1
    96    46    45    1
    97    46    49    1
    98    38    45   am
    99    38    37    1
   100    36    37    1
   101     9    10    2
   102    37    40    1
   103    26    23    1
   104    49    50    1
   105    21    19    1
   106    40    41    1
   107    51    50   ar
   108    51    53   ar
   109    23    22    1
   110    23    24    1
   111    41    42    1
   112    50    52   ar
   113    22    17   am
   114    19    20    1
   115    19    16    1
   116    15    16    1
   117    53    55   ar
   118    17    16    1
   119    17    18    2
   120    24    25    2
   121    52    54   ar
   122    42    43    1
   123    43    44    1
   124    55    54   ar
   125    55    56    1
