@<TRIPOS>MOLECULE
tmp/5qahD00.pdb
 104 96 0 0 0
SMALL
GASTEIGER

@<TRIPOS>ATOM
      1  N        129.6540  236.9930   31.2930 N.3    47  SER47      -0.1217
      2  CA       130.1870  236.6110   32.5910 C.3    47  SER47       0.1889
      3  C        130.7530  235.1950   32.6190 C.2    47  SER47       0.2288
      4  O        131.3620  234.8240   33.6270 O.2    47  SER47      -0.2866
      5  CB       129.1080  236.7690   33.6620 C.3    47  SER47       0.2089
      6  OG       128.7590  238.1400   33.8180 O.3    47  SER47      -0.2183
      7  N        122.5040  245.9990   40.9090 N.3    78  ILE78      -0.1245
      8  CA       122.4480  244.6450   41.4460 C.3    78  ILE78       0.1561
      9  C        122.8160  244.7350   42.9200 C.2    78  ILE78       0.2260
     10  O        123.9770  244.9870   43.2630 O.2    78  ILE78      -0.2867
     11  CB       123.3930  243.6940   40.6980 C.3    78  ILE78       0.0252
     12  CG1      123.1310  243.7090   39.1860 C.3    78  ILE78       0.0019
     13  CG2      123.2300  242.2720   41.2280 C.3    78  ILE78       0.0019
     14  CD1      121.7140  243.3650   38.7680 C.3    78  ILE78       0.0001
     15  N        125.8930  243.2090   44.4610 N.3    81  TRP81      -0.1241
     16  CA       127.1830  243.7890   44.1090 C.3    81  TRP81       0.1605
     17  C        127.6250  244.8670   45.0890 C.2    81  TRP81       0.2264
     18  O        128.8080  245.2250   45.1070 O.2    81  TRP81      -0.2867
     19  CB       127.1280  244.4000   42.7090 C.3    81  TRP81       0.0550
     20  CG       126.9380  243.4170   41.5850 C.ar   81  TRP81       0.0003
     21  CD1      126.7460  242.0710   41.6870 C.ar   81  TRP81       0.0946
     22  CD2      126.9170  243.7210   40.1860 C.ar   81  TRP81       0.0152
     23  NE1      126.6090  241.5160   40.4350 N.ar   81  TRP81      -0.2442
     24  CE2      126.7100  242.5100   39.4970 C.ar   81  TRP81       0.0810
     25  CE3      127.0530  244.9000   39.4490 C.ar   81  TRP81       0.0012
     26  CZ2      126.6370  242.4450   38.1080 C.ar   81  TRP81       0.0191
     27  CZ3      126.9800  244.8320   38.0670 C.ar   81  TRP81       0.0001
     28  CH2      126.7750  243.6140   37.4140 C.ar   81  TRP81       0.0015
     29  N        128.3190  236.9040   40.2330 N.3    94  SER94      -0.1217
     30  CA       128.7750  237.4680   38.9650 C.3    94  SER94       0.1889
     31  C        129.0330  238.9700   39.1010 C.2    94  SER94       0.2288
     32  O        128.4960  239.7950   38.3620 O.2    94  SER94      -0.2866
     33  CB       127.7610  237.1720   37.8560 C.3    94  SER94       0.2089
     34  OG       128.3450  237.3310   36.5750 O.3    94  SER94      -0.2183
     35  N        130.5060  241.9100   38.3720 N.3    96  VAL96      -0.1245
     36  CA       131.3030  242.5210   37.3030 C.3    96  VAL96       0.1561
     37  C        132.3560  243.4880   37.8370 C.2    96  VAL96       0.2260
     38  O        133.5240  243.3730   37.4410 O.2    96  VAL96      -0.2867
     39  CB       130.3750  243.1800   36.2710 C.3    96  VAL96       0.0252
     40  CG1      131.1720  244.0170   35.2690 C.3    96  VAL96       0.0019
     41  CG2      129.5570  242.1230   35.5440 C.3    96  VAL96       0.0019
     42  N        132.2680  241.9220   27.6090 N.3   134  LEU134     -0.1245
     43  CA       130.8870  242.3850   27.6130 C.3   134  LEU134      0.1561
     44  C        130.5130  243.1840   26.3790 C.2   134  LEU134      0.2260
     45  O        129.3590  243.1310   25.9540 O.2   134  LEU134     -0.2867
     46  CB       130.6240  243.2650   28.8420 C.3   134  LEU134      0.0270
     47  CG       130.9060  242.6330   30.2030 C.3   134  LEU134      0.0019
     48  CD1      130.8640  243.6820   31.3020 C.3   134  LEU134      0.0001
     49  CD2      129.8890  241.5450   30.4800 C.3   134  LEU134      0.0001
     50  N        127.2900  231.0530   34.8860 N.3   185  THR185     -0.1203
     51  CA       126.2770  231.6910   34.0610 C.3   185  THR185      0.1994
     52  C        126.8560  232.8990   33.3360 C.2   185  THR185      0.2618
     53  O        127.8830  233.4630   33.7280 O.2   185  THR185     -0.2717
     54  CB       125.0800  232.1530   34.8980 C.3   185  THR185      0.1784
     55  OG1      125.5180  233.0890   35.8950 O.3   185  THR185     -0.2211
     56  CG2      124.4000  230.9710   35.5720 C.3   185  THR185      0.0376
     57  N        126.1540  233.3120   32.2920 N.am  186  GLY186     -0.1942
     58  CA       126.5040  234.5190   31.5650 C.3   186  GLY186      0.2014
     59  C        125.2620  235.1630   30.9980 C.2   186  GLY186      0.2638
     60  O        124.2780  234.4880   30.6750 O.2   186  GLY186     -0.2714
     61  N        125.3130  236.4860   30.8710 N.am  187  TYR187     -0.1973
     62  CA       124.1910  237.2730   30.3690 C.3   187  TYR187      0.1639
     63  C        124.7750  238.4230   29.5590 C.2   187  TYR187      0.2290
     64  O        125.3430  239.3570   30.1330 O.2   187  TYR187     -0.2864
     65  CB       123.3270  237.7830   31.5230 C.3   187  TYR187      0.0560
     66  CG       122.0600  238.5140   31.1340 C.ar  187  TYR187     -0.0198
     67  CD1      121.4930  238.3640   29.8760 C.ar  187  TYR187     -0.0009
     68  CD2      121.4190  239.3430   32.0450 C.ar  187  TYR187     -0.0009
     69  CE1      120.3290  239.0300   29.5370 C.ar  187  TYR187      0.0417
     70  CE2      120.2600  240.0120   31.7130 C.ar  187  TYR187      0.0417
     71  CZ       119.7190  239.8520   30.4630 C.ar  187  TYR187      0.1957
     72  OH       118.5640  240.5230   30.1410 O.3   187  TYR187     -0.2866
     73  N        124.2000  241.5460   27.2830 N.3   189  THR189     -0.1218
     74  CA       123.1560  242.5270   27.0350 C.3   189  THR189      0.1862
     75  C        123.6270  243.7650   26.2870 C.2   189  THR189      0.2287
     76  O        122.7810  244.5280   25.8070 O.2   189  THR189     -0.2866
     77  CB       122.5310  242.9920   28.3600 C.3   189  THR189      0.1770
     78  OG1      123.5220  243.6620   29.1480 O.3   189  THR189     -0.2211
     79  CG2      121.9890  241.8150   29.1410 C.3   189  THR189      0.0375
     80  N        115.4120  239.9550   30.8730 N.3   220  SER220     -0.1217
     81  CA       115.9280  239.1950   32.0050 C.3   220  SER220      0.1889
     82  C        114.9110  238.2160   32.5740 C.2   220  SER220      0.2288
     83  O        115.2730  237.4090   33.4380 O.2   220  SER220     -0.2866
     84  CB       116.3780  240.1480   33.1150 C.3   220  SER220      0.2089
     85  OG       115.2990  240.9480   33.5650 O.3   220  SER220     -0.2183
     86  N        115.9430  234.3400   32.3800 N.3   223  LEU223     -0.1245
     87  CA       117.2720  233.8890   32.7800 C.3   223  LEU223      0.1561
     88  C        117.2280  232.5030   33.4140 C.2   223  LEU223      0.2260
     89  O        118.1220  231.6820   33.1850 O.2   223  LEU223     -0.2867
     90  CB       117.9000  234.8990   33.7420 C.3   223  LEU223      0.0270
     91  CG       118.3900  236.1990   33.1000 C.3   223  LEU223      0.0019
     92  CD1      118.7640  237.2130   34.1680 C.3   223  LEU223      0.0001
     93  CD2      119.5710  235.9470   32.1700 C.3   223  LEU223      0.0001
     94  N        118.0150  229.2030   31.4630 N.3   226  ARG226     -0.1245
     95  CA       119.3540  228.7120   31.1480 C.3   226  ARG226      0.1563
     96  C        119.6230  227.3930   31.8570 C.2   226  ARG226      0.2260
     97  O        120.0590  226.4150   31.2360 O.2   226  ARG226     -0.2867
     98  CB       120.4080  229.7470   31.5440 C.3   226  ARG226      0.0307
     99  CG       120.3350  231.0530   30.7780 C.3   226  ARG226      0.0489
    100  CD       121.2680  232.0960   31.3780 C.3   226  ARG226      0.2205
    101  NE       120.8940  232.4390   32.7460 N.pl3 226  ARG226     -0.0865
    102  CZ       121.5450  233.3150   33.5040 C.cat 226  ARG226      0.5346
    103  NH1      121.1270  233.5600   34.7370 N.pl3 226  ARG226      0.1354
    104  NH2      122.6080  233.9540   33.0300 N.pl3 226  ARG226      0.1354
@<TRIPOS>BOND
     1    76    75    2
     2    45    44    2
     3    75    74    1
     4    44    43    1
     5    74    73    1
     6    74    77    1
     7    42    43    1
     8    43    46    1
     9    77    79    1
    10    77    78    1
    11    46    47    1
    12    69    67   ar
    13    69    71   ar
    14    63    64    2
    15    63    62    1
    16    67    66   ar
    17    72    71    1
    18    47    49    1
    19    47    48    1
    20    62    61    1
    21    62    65    1
    22    71    70   ar
    23    60    59    2
    24    99   100    1
    25    99    98    1
    26    61    59   am
    27    80    81    1
    28    59    58    1
    29    66    65    1
    30    66    68   ar
    31    95    94    1
    32    95    98    1
    33    95    96    1
    34    97    96    2
    35     1     2    1
    36   100   101    1
    37    58    57    1
    38    70    68   ar
    39    81    82    1
    40    81    84    1
    41    93    91    1
    42    57    52   am
    43    86    87    1
    44    82    83    2
    45     2     3    1
    46     2     5    1
    47     3     4    2
    48   101   102    2
    49    87    88    1
    50    87    90    1
    51   104   102    1
    52    91    90    1
    53    91    92    1
    54    84    85    1
    55    89    88    2
    56    52    53    2
    57    52    51    1
    58   102   103    1
    59     5     6    1
    60    51    50    1
    61    51    54    1
    62    54    56    1
    63    54    55    1
    64    40    39    1
    65    41    39    1
    66    39    36    1
    67    34    33    1
    68    36    37    1
    69    36    35    1
    70    28    27   ar
    71    28    26   ar
    72    38    37    2
    73    33    30    1
    74    27    25   ar
    75    26    24   ar
    76    32    31    2
    77    14    12    1
    78    30    31    1
    79    30    29    1
    80    12    11    1
    81    25    22   ar
    82    24    22   ar
    83    24    23   ar
    84    22    20   ar
    85    23    21   ar
    86    11    13    1
    87    11     8    1
    88     7     8    1
    89     8     9    1
    90    20    21   ar
    91    20    19    1
    92    19    16    1
    93     9    10    2
    94    16    15    1
    95    16    17    1
    96    17    18    2
