@<TRIPOS>MOLECULE
tmp/5qaiA00.pdb
 131 125 0 0 0
SMALL
GASTEIGER

@<TRIPOS>ATOM
      1  N         94.5920  241.8680   11.0000 N.3    77  ASP77      -0.1225
      2  CA        96.0400  241.9910   10.8130 C.3    77  ASP77       0.1805
      3  C         96.5640  243.3970   11.0900 C.2    77  ASP77       0.2597
      4  O         97.7760  243.6130   11.0330 O.2    77  ASP77      -0.2718
      5  CB        96.4770  241.4920    9.4300 C.3    77  ASP77       0.1424
      6  CG        95.8760  242.2510    8.2920 C.2    77  ASP77       0.3668
      7  OD1       95.0820  243.1860    8.5110 O.co2  77  ASP77      -0.2456
      8  OD2       96.2270  241.8810    7.1470 O.co2  77  ASP77      -0.2456
      9  N         95.6930  244.3600   11.3390 N.am   78  ILE78      -0.1980
     10  CA        96.1050  245.6980   11.7500 C.3    78  ILE78       0.1595
     11  C         95.8520  245.8200   13.2530 C.2    78  ILE78       0.2287
     12  O         94.7060  245.8770   13.7090 O.2    78  ILE78      -0.2864
     13  CB        95.3820  246.7720   10.9320 C.3    78  ILE78       0.0276
     14  CG1       95.7540  246.5850    9.4670 C.3    78  ILE78       0.0022
     15  CG2       95.7490  248.1790   11.4170 C.3    78  ILE78       0.0022
     16  CD1       94.8780  247.2840    8.5760 C.3    78  ILE78       0.0001
     17  N         95.9790  248.0710   15.5520 N.3    80  THR80      -0.1203
     18  CA        95.1650  249.1470   16.1060 C.3    80  THR80       0.1994
     19  C         93.6730  248.9360   15.8800 C.2    80  THR80       0.2617
     20  O         92.8680  249.6200   16.5220 O.2    80  THR80      -0.2717
     21  CB        95.5840  250.4990   15.5180 C.3    80  THR80       0.1784
     22  OG1       94.8040  251.5460   16.1090 O.3    80  THR80      -0.2211
     23  CG2       95.3860  250.5230   14.0140 C.3    80  THR80       0.0376
     24  N         93.2800  248.0210   14.9890 N.am   81  TRP81      -0.1975
     25  CA        91.8600  247.7270   14.8120 C.3    81  TRP81       0.1640
     26  C         91.3170  246.7760   15.8830 C.2    81  TRP81       0.2290
     27  O         90.0970  246.7010   16.0660 O.2    81  TRP81      -0.2864
     28  CB        91.6040  247.1220   13.4310 C.3    81  TRP81       0.0576
     29  CG        91.8530  248.0600   12.2690 C.ar   81  TRP81       0.0006
     30  CD1       92.3180  249.3540   12.3270 C.ar   81  TRP81       0.0946
     31  CD2       91.6460  247.7720   10.8800 C.ar   81  TRP81       0.0152
     32  NE1       92.4040  249.8790   11.0640 N.ar   81  TRP81      -0.2442
     33  CE2       92.0020  248.9270   10.1560 C.ar   81  TRP81       0.0810
     34  CE3       91.1890  246.6440   10.1780 C.ar   81  TRP81       0.0012
     35  CZ2       91.9190  248.9910    8.7660 C.ar   81  TRP81       0.0191
     36  CZ3       91.1140  246.7080    8.7980 C.ar   81  TRP81       0.0001
     37  CH2       91.4720  247.8790    8.1060 C.ar   81  TRP81       0.0015
     38  N         91.2260  258.2780   12.8840 N.3    92  LYS92      -0.1231
     39  CA        92.6840  258.3470   12.9690 C.3    92  LYS92       0.1693
     40  C         93.3400  257.0680   12.4710 C.2    92  LYS92       0.2592
     41  O         94.3430  257.1190   11.7590 O.2    92  LYS92      -0.2718
     42  CB        93.0970  258.6240   14.4220 C.3    92  LYS92       0.0285
     43  CG        94.6100  258.7010   14.6630 C.3    92  LYS92       0.0035
     44  CD        94.9590  258.9300   16.1480 C.3    92  LYS92       0.0206
     45  CE        96.4690  258.9650   16.3800 C.3    92  LYS92       0.1093
     46  NZ        96.8200  259.2500   17.8220 N.3    92  LYS92      -0.1314
     47  N         92.8220  255.9120   12.8760 N.am   93  TYR93      -0.1962
     48  CA        93.4220  254.6380   12.5020 C.3    93  TYR93       0.1771
     49  C         92.7010  253.9610   11.3280 C.2    93  TYR93       0.2620
     50  O         92.9590  252.7810   11.0630 O.2    93  TYR93      -0.2715
     51  CB        93.4770  253.7190   13.7330 C.3    93  TYR93       0.0574
     52  CG        94.4120  254.2270   14.8100 C.ar   93  TYR93      -0.0198
     53  CD1       95.7880  254.1700   14.6370 C.ar   93  TYR93      -0.0009
     54  CD2       93.9280  254.7980   15.9880 C.ar   93  TYR93      -0.0009
     55  CE1       96.6630  254.6600   15.6040 C.ar   93  TYR93       0.0417
     56  CE2       94.8020  255.2880   16.9660 C.ar   93  TYR93       0.0417
     57  CZ        96.1620  255.2130   16.7650 C.ar   93  TYR93       0.1957
     58  OH        97.0320  255.6960   17.7200 O.3    93  TYR93      -0.2866
     59  N         91.8490  254.6960   10.6050 N.am   94  SER94      -0.1950
     60  CA        91.0800  254.2100    9.4460 C.3    94  SER94       0.1924
     61  C         90.4770  252.8310    9.6990 C.2    94  SER94       0.2314
     62  O         90.7330  251.8750    8.9630 O.2    94  SER94      -0.2863
     63  CB        91.9350  254.1770    8.1650 C.3    94  SER94       0.2116
     64  OG        92.4660  255.4410    7.8600 O.3    94  SER94      -0.2180
     65  N         88.3240  250.2610    9.2540 N.3    96  VAL96      -0.1245
     66  CA        87.3140  249.8060    8.2960 C.3    96  VAL96       0.1561
     67  C         86.1450  249.0880    8.9620 C.2    96  VAL96       0.2260
     68  O         84.9950  249.4660    8.7080 O.2    96  VAL96      -0.2867
     69  CB        87.9820  248.9500    7.2000 C.3    96  VAL96       0.0252
     70  CG1       86.9270  248.3150    6.2790 C.3    96  VAL96       0.0019
     71  CG2       89.0150  249.8040    6.3880 C.3    96  VAL96       0.0019
     72  N         93.3100  260.2080    5.0210 N.3   185  THR185     -0.1218
     73  CA        94.0760  259.3690    4.1180 C.3   185  THR185      0.1862
     74  C         93.1740  258.3050    3.5040 C.2   185  THR185      0.2287
     75  O         92.1200  257.9670    4.0400 O.2   185  THR185     -0.2866
     76  CB        95.2220  258.6660    4.8420 C.3   185  THR185      0.1770
     77  OG1       94.6720  257.8540    5.8780 O.3   185  THR185     -0.2211
     78  CG2       96.2130  259.6520    5.4400 C.3   185  THR185      0.0375
     79  N         93.6320  254.4420    1.0270 N.3   187  TYR187     -0.1241
     80  CA        94.4910  253.4190    0.4420 C.3   187  TYR187      0.1605
     81  C         93.5980  252.4230   -0.2890 C.2   187  TYR187      0.2264
     82  O         92.8800  251.6580    0.3590 O.2   187  TYR187     -0.2867
     83  CB        95.2900  252.7180    1.5330 C.3   187  TYR187      0.0534
     84  CG        96.2620  251.6510    1.0640 C.ar  187  TYR187     -0.0201
     85  CD1       96.7620  251.6410   -0.2320 C.ar  187  TYR187     -0.0009
     86  CD2       96.7040  250.6760    1.9460 C.ar  187  TYR187     -0.0009
     87  CE1       97.6690  250.6730   -0.6440 C.ar  187  TYR187      0.0417
     88  CE2       97.6020  249.7050    1.5470 C.ar  187  TYR187      0.0417
     89  CZ        98.0920  249.7210    0.2620 C.ar  187  TYR187      0.1957
     90  OH        98.9840  248.7650   -0.1220 O.3   187  TYR187     -0.2866
     91  N         93.2470  249.2250   -2.7110 N.3   189  THR189     -0.1218
     92  CA        94.0020  248.0890   -3.2340 C.3   189  THR189      0.1862
     93  C         93.1720  247.0440   -3.9750 C.2   189  THR189      0.2287
     94  O         93.7510  246.2420   -4.7150 O.2   189  THR189     -0.2866
     95  CB        94.7390  247.3450   -2.1050 C.3   189  THR189      0.1770
     96  OG1       93.7840  246.8570   -1.1620 O.3   189  THR189     -0.2211
     97  CG2       95.7190  248.2590   -1.3940 C.3   189  THR189      0.0375
     98  N        102.4450  248.7990    0.0530 N.3   220  SER220     -0.1217
     99  CA       102.2520  249.6150    1.2390 C.3   220  SER220      0.1889
    100  C        103.5210  250.3340    1.6860 C.2   220  SER220      0.2288
    101  O        103.4260  251.2320    2.5270 O.2   220  SER220     -0.2866
    102  CB       101.7200  248.7480    2.3740 C.3   220  SER220      0.2089
    103  OG       102.6370  247.7110    2.6550 O.3   220  SER220     -0.2183
    104  N        103.2890  254.3520    1.5440 N.3   223  LEU223     -0.1245
    105  CA       102.1410  255.0940    2.0610 C.3   223  LEU223      0.1561
    106  C        102.5410  256.4390    2.6620 C.2   223  LEU223      0.2260
    107  O        101.7990  257.4210    2.5370 O.2   223  LEU223     -0.2867
    108  CB       101.4070  254.2580    3.1050 C.3   223  LEU223      0.0270
    109  CG       100.6050  253.0830    2.5320 C.3   223  LEU223      0.0019
    110  CD1      100.0940  252.2160    3.6530 C.3   223  LEU223      0.0001
    111  CD2       99.4590  253.5660    1.6770 C.3   223  LEU223      0.0001
    112  N        102.3190  259.8420    0.7130 N.3   226  ARG226     -0.1231
    113  CA       101.0900  260.6110    0.5100 C.3   226  ARG226      0.1694
    114  C        101.1640  261.9670    1.1970 C.2   226  ARG226      0.2591
    115  O        100.9180  263.0060    0.5730 O.2   226  ARG226     -0.2718
    116  CB        99.8880  259.8380    1.0360 C.3   226  ARG226      0.0321
    117  CG        99.6020  258.5270    0.2880 C.3   226  ARG226      0.0489
    118  CD        98.5490  257.7220    1.0020 C.3   226  ARG226      0.2205
    119  NE        98.9710  257.3630    2.3550 N.pl3 226  ARG226     -0.0865
    120  CZ        98.2360  256.6490    3.2030 C.cat 226  ARG226      0.5346
    121  NH1       98.6950  256.3740    4.4170 N.pl3 226  ARG226      0.1354
    122  NH2       97.0450  256.2120    2.8340 N.pl3 226  ARG226      0.1354
    123  N        101.4670  261.9700    2.4990 N.am  227  GLN227     -0.1979
    124  CA       101.5850  263.2190    3.2540 C.3   227  GLN227      0.1601
    125  C        102.8810  263.9500    2.9340 C.2   227  GLN227      0.2287
    126  O        102.9130  265.1870    2.9050 O.2   227  GLN227     -0.2864
    127  CB       101.5340  262.9340    4.7590 C.3   227  GLN227      0.0394
    128  CG       100.2500  262.2750    5.2710 C.3   227  GLN227      0.0908
    129  CD       100.3480  260.7570    5.3720 C.2   227  GLN227      0.2608
    130  OE1      101.1020  260.1050    4.6320 O.2   227  GLN227     -0.2717
    131  NE2       99.6360  260.1950    6.3470 N.am  227  GLN227     -0.0878
@<TRIPOS>BOND
     1    94    93    2
     2    93    92    1
     3    92    91    1
     4    92    95    1
     5    95    97    1
     6    95    96    1
     7    87    85   ar
     8    87    89   ar
     9    81    82    2
    10    81    80    1
    11    85    84   ar
    12    90    89    1
    13    98    99    1
    14    89    88   ar
    15   117   118    1
    16   117   116    1
    17    80    79    1
    18    80    83    1
    19   113   112    1
    20   113   116    1
    21   113   114    1
    22   115   114    2
    23   118   119    1
    24    84    83    1
    25    84    86   ar
    26   114   123   am
    27    99   100    1
    28    99   102    1
    29   104   105    1
    30    88    86   ar
    31   111   109    1
    32   100   101    2
    33   105   106    1
    34   105   108    1
    35   119   120    2
    36   102   103    1
    37   123   124    1
    38   109   108    1
    39   109   110    1
    40   107   106    2
    41   122   120    1
    42   126   125    2
    43   125   124    1
    44   120   121    1
    45   124   127    1
    46    74    75    2
    47    74    73    1
    48    73    76    1
    49    73    72    1
    50   130   129    2
    51   127   128    1
    52    76    78    1
    53    76    77    1
    54   128   129    1
    55   129   131   am
    56    70    69    1
    57    71    69    1
    58     8     6   ar
    59    69    66    1
    60    64    63    1
    61    37    35   ar
    62    37    36   ar
    63    63    60    1
    64     6     7   ar
    65     6     5    1
    66    66    67    1
    67    66    65    1
    68    16    14    1
    69    68    67    2
    70    35    33   ar
    71    36    34   ar
    72    62    61    2
    73     5     2    1
    74    60    61    1
    75    60    59    1
    76    14    13    1
    77    33    31   ar
    78    33    32   ar
    79    34    31   ar
    80    59    49   am
    81     2     1    1
    82     2     3    1
    83    31    29   ar
    84    13    15    1
    85    13    10    1
    86     4     3    2
    87    50    49    2
    88    32    30   ar
    89     3     9   am
    90    49    48    1
    91     9    10    1
    92    10    11    1
    93    41    40    2
    94    29    30   ar
    95    29    28    1
    96    40    47   am
    97    40    39    1
    98    48    47    1
    99    48    51    1
   100    38    39    1
   101    39    42    1
   102    11    12    2
   103    28    25    1
   104    51    52    1
   105    23    21    1
   106    42    43    1
   107    53    52   ar
   108    53    55   ar
   109    43    44    1
   110    52    54   ar
   111    25    24    1
   112    25    26    1
   113    24    19   am
   114    21    18    1
   115    21    22    1
   116    17    18    1
   117    55    57   ar
   118    19    18    1
   119    19    20    2
   120    26    27    2
   121    54    56   ar
   122    44    45    1
   123    45    46    1
   124    57    56   ar
   125    57    58    1
