@<TRIPOS>MOLECULE
tmp/5qajB00.pdb
 118 113 0 0 0
SMALL
GASTEIGER

@<TRIPOS>ATOM
      1  N         -0.0020  -41.8260   -2.0150 N.3    47  SER47      -0.1217
      2  CA        -0.2510  -42.3770   -3.3420 C.3    47  SER47       0.1889
      3  C         -0.5060  -43.8840   -3.3460 C.2    47  SER47       0.2288
      4  O         -0.9500  -44.4010   -4.3780 O.2    47  SER47      -0.2866
      5  CB         0.9170  -42.0450   -4.2840 C.3    47  SER47       0.2089
      6  OG         1.0250  -40.6410   -4.5000 O.3    47  SER47      -0.2183
      7  N          5.3430  -28.7830  -10.7360 N.3    77  ASP77      -0.1225
      8  CA         6.7870  -28.9650  -10.5990 C.3    77  ASP77       0.1805
      9  C          7.2610  -30.3760  -10.9410 C.2    77  ASP77       0.2597
     10  O          8.4730  -30.6120  -10.9370 O.2    77  ASP77      -0.2718
     11  CB         7.2490  -28.5640   -9.2040 C.3    77  ASP77       0.1424
     12  CG         6.6500  -29.3900   -8.1280 C.2    77  ASP77       0.3668
     13  OD1        5.7460  -30.2040   -8.3960 O.co2  77  ASP77      -0.2456
     14  OD2        7.0870  -29.1800   -6.9880 O.co2  77  ASP77      -0.2456
     15  N          6.3620  -31.3330  -11.1450 N.am   78  ILE78      -0.1980
     16  CA         6.7440  -32.6750  -11.5710 C.3    78  ILE78       0.1595
     17  C          6.5310  -32.7270  -13.0800 C.2    78  ILE78       0.2287
     18  O          5.3900  -32.7120  -13.5520 O.2    78  ILE78      -0.2864
     19  CB         5.9300  -33.7590  -10.8560 C.3    78  ILE78       0.0276
     20  CG1        6.0320  -33.6150   -9.3310 C.3    78  ILE78       0.0022
     21  CG2        6.4030  -35.1540  -11.2960 C.3    78  ILE78       0.0022
     22  CD1        7.4450  -33.6260   -8.7940 C.3    78  ILE78       0.0001
     23  N          4.0350  -34.9060  -14.8250 N.3    81  TRP81      -0.1241
     24  CA         2.6360  -34.5730  -14.5990 C.3    81  TRP81       0.1605
     25  C          2.0850  -33.6120  -15.6440 C.2    81  TRP81       0.2264
     26  O          0.8630  -33.5240  -15.7970 O.2    81  TRP81      -0.2867
     27  CB         2.4450  -33.9510  -13.2100 C.3    81  TRP81       0.0550
     28  CG         2.6760  -34.9140  -12.0640 C.ar   81  TRP81       0.0003
     29  CD1        3.1670  -36.1880  -12.1400 C.ar   81  TRP81       0.0946
     30  CD2        2.4290  -34.6630  -10.6730 C.ar   81  TRP81       0.0152
     31  NE1        3.2390  -36.7420  -10.8820 N.ar   81  TRP81      -0.2442
     32  CE2        2.7850  -35.8310   -9.9660 C.ar   81  TRP81       0.0810
     33  CE3        1.9380  -33.5640   -9.9610 C.ar   81  TRP81       0.0012
     34  CZ2        2.6710  -35.9290   -8.5780 C.ar   81  TRP81       0.0191
     35  CZ3        1.8160  -33.6630   -8.5820 C.ar   81  TRP81       0.0001
     36  CH2        2.1870  -34.8380   -7.9040 C.ar   81  TRP81       0.0015
     37  N          1.9740  -45.0850  -12.8680 N.3    92  LYS92      -0.1231
     38  CA         3.4300  -45.1600  -12.9590 C.3    92  LYS92       0.1693
     39  C          4.0910  -43.8930  -12.4340 C.2    92  LYS92       0.2592
     40  O          5.0900  -43.9510  -11.7070 O.2    92  LYS92      -0.2718
     41  CB         3.8310  -45.4080  -14.4150 C.3    92  LYS92       0.0285
     42  CG         5.3260  -45.4710  -14.6750 C.3    92  LYS92       0.0035
     43  CD         5.6060  -45.7140  -16.1590 C.3    92  LYS92       0.0206
     44  CE         7.0860  -45.7280  -16.4560 C.3    92  LYS92       0.1093
     45  NZ         7.3570  -45.8900  -17.9190 N.3    92  LYS92      -0.1314
     46  N          3.5730  -42.7350  -12.8200 N.am   93  TYR93      -0.1962
     47  CA         4.1620  -41.4680  -12.4210 C.3    93  TYR93       0.1771
     48  C          3.4330  -40.8340  -11.2460 C.2    93  TYR93       0.2620
     49  O          3.6750  -39.6630  -10.9340 O.2    93  TYR93      -0.2715
     50  CB         4.2020  -40.5270  -13.6170 C.3    93  TYR93       0.0574
     51  CG         5.0980  -41.0400  -14.7290 C.ar   93  TYR93      -0.0198
     52  CD1        6.4780  -41.0350  -14.5840 C.ar   93  TYR93      -0.0009
     53  CD2        4.5720  -41.5460  -15.9050 C.ar   93  TYR93      -0.0009
     54  CE1        7.3110  -41.5080  -15.5880 C.ar   93  TYR93       0.0417
     55  CE2        5.4000  -42.0110  -16.9240 C.ar   93  TYR93       0.0417
     56  CZ         6.7680  -41.9940  -16.7520 C.ar   93  TYR93       0.1957
     57  OH         7.6070  -42.4650  -17.7340 O.3    93  TYR93      -0.2866
     58  N          2.5440  -41.5880  -10.6030 N.am   94  SER94      -0.1950
     59  CA         1.8440  -41.1750   -9.3960 C.3    94  SER94       0.1924
     60  C          1.2910  -39.7560   -9.5530 C.2    94  SER94       0.2314
     61  O          1.5830  -38.8420   -8.7780 O.2    94  SER94      -0.2863
     62  CB         2.7760  -41.3090   -8.1890 C.3    94  SER94       0.2116
     63  OG         2.0190  -41.3110   -7.0060 O.3    94  SER94      -0.2180
     64  N          4.0450  -47.1770   -5.0410 N.3   185  THR185     -0.1203
     65  CA         4.7840  -46.3410   -4.1060 C.3   185  THR185      0.1994
     66  C          3.8760  -45.2830   -3.4940 C.2   185  THR185      0.2618
     67  O          2.8270  -44.9250   -4.0340 O.2   185  THR185     -0.2717
     68  CB         5.9510  -45.6280   -4.7890 C.3   185  THR185      0.1784
     69  OG1        5.4500  -44.8190   -5.8560 O.3   185  THR185     -0.2211
     70  CG2        6.9750  -46.6210   -5.3340 C.3   185  THR185      0.0376
     71  N          4.3200  -44.7650   -2.3610 N.am  186  GLY186     -0.1942
     72  CA         3.6480  -43.6550   -1.7170 C.3   186  GLY186      0.2014
     73  C          4.6640  -42.7360   -1.0760 C.2   186  GLY186      0.2638
     74  O          5.7790  -43.1450   -0.7390 O.2   186  GLY186     -0.2714
     75  N          4.2820  -41.4680   -0.9560 N.am  187  TYR187     -0.1973
     76  CA         5.1500  -40.4620   -0.3500 C.3   187  TYR187      0.1639
     77  C          4.2730  -39.4670    0.4010 C.2   187  TYR187      0.2290
     78  O          3.6080  -38.6420   -0.2280 O.2   187  TYR187     -0.2864
     79  CB         5.9750  -39.7740   -1.4300 C.3   187  TYR187      0.0560
     80  CG         6.9830  -38.7550   -0.9450 C.ar  187  TYR187     -0.0198
     81  CD1        7.4920  -38.7890    0.3460 C.ar  187  TYR187     -0.0009
     82  CD2        7.4220  -37.7460   -1.7930 C.ar  187  TYR187     -0.0009
     83  CE1        8.4220  -37.8440    0.7750 C.ar  187  TYR187      0.0417
     84  CE2        8.3410  -36.8020   -1.3700 C.ar  187  TYR187      0.0417
     85  CZ         8.8360  -36.8590   -0.0910 C.ar  187  TYR187      0.1957
     86  OH         9.7460  -35.9140    0.3000 O.3   187  TYR187     -0.2866
     87  N          3.8750  -36.2930    2.8580 N.3   189  THR189     -0.1218
     88  CA         4.6260  -35.1510    3.3730 C.3   189  THR189      0.1862
     89  C          3.7900  -34.1330    4.1330 C.2   189  THR189      0.2287
     90  O          4.3620  -33.3300    4.8720 O.2   189  THR189     -0.2866
     91  CB         5.3330  -34.3970    2.2340 C.3   189  THR189      0.1770
     92  OG1        4.3610  -33.9380    1.2910 O.3   189  THR189     -0.2211
     93  CG2        6.3480  -35.2950    1.5400 C.3   189  THR189      0.0375
     94  N         13.0480  -35.8850    0.1960 N.3   220  SER220     -0.1217
     95  CA        12.8510  -36.7120   -0.9890 C.3   220  SER220      0.1889
     96  C         14.1220  -37.4250   -1.4250 C.2   220  SER220      0.2288
     97  O         14.0590  -38.2390   -2.3480 O.2   220  SER220     -0.2866
     98  CB        12.3270  -35.8470   -2.1370 C.3   220  SER220      0.2089
     99  OG        13.2390  -34.8070   -2.4230 O.3   220  SER220     -0.2183
    100  N         14.0320  -41.4310   -1.3150 N.3   223  LEU223     -0.1245
    101  CA        12.8680  -42.1080   -1.8780 C.3   223  LEU223      0.1561
    102  C         13.2330  -43.4540   -2.4910 C.2   223  LEU223      0.2260
    103  O         12.4530  -44.4120   -2.4090 O.2   223  LEU223     -0.2867
    104  CB        12.1840  -41.2170   -2.9090 C.3   223  LEU223      0.0270
    105  CG        11.2930  -40.1110   -2.3410 C.3   223  LEU223      0.0019
    106  CD1       10.7830  -39.2530   -3.4870 C.3   223  LEU223      0.0001
    107  CD2       10.1310  -40.6790   -1.5550 C.3   223  LEU223      0.0001
    108  N         12.8260  -46.8740   -0.5610 N.3   226  ARG226     -0.1245
    109  CA        11.6000  -47.6470   -0.4200 C.3   226  ARG226      0.1563
    110  C         11.7390  -48.9960   -1.1150 C.2   226  ARG226      0.2260
    111  O         11.4970  -50.0490   -0.5130 O.2   226  ARG226     -0.2867
    112  CB        10.4270  -46.8540   -0.9850 C.3   226  ARG226      0.0307
    113  CG        10.1820  -45.5500   -0.2320 C.3   226  ARG226      0.0489
    114  CD         9.1570  -44.6940   -0.9340 C.3   226  ARG226      0.2205
    115  NE         9.6030  -44.3040   -2.2660 N.pl3 226  ARG226     -0.0865
    116  CZ         8.8850  -43.5590   -3.0960 C.cat 226  ARG226      0.5346
    117  NH1        9.3610  -43.2490   -4.2990 N.pl3 226  ARG226      0.1354
    118  NH2        7.6870  -43.1280   -2.7200 N.pl3 226  ARG226      0.1354
@<TRIPOS>BOND
     1    45    44    1
     2    57    56    1
     3    55    56   ar
     4    55    53   ar
     5    56    54   ar
     6    44    43    1
     7    43    42    1
     8    53    51   ar
     9    26    25    2
    10    25    24    1
    11    54    52   ar
    12    23    24    1
    13    51    52   ar
    14    51    50    1
    15    42    41    1
    16    24    27    1
    17    41    38    1
    18    50    47    1
    19    18    17    2
    20    27    28    1
    21    17    16    1
    22    38    37    1
    23    38    39    1
    24    46    39   am
    25    46    47    1
    26    39    40    2
    27    47    48    1
    28    29    28   ar
    29    29    31   ar
    30    28    30   ar
    31    16    15    1
    32    16    19    1
    33    21    19    1
    34    48    49    2
    35    48    58   am
    36    15     9   am
    37     9    10    2
    38     9     8    1
    39    31    32   ar
    40    19    20    1
    41     7     8    1
    42    30    32   ar
    43    30    33   ar
    44    58    59    1
    45     8    11    1
    46    32    34   ar
    47    33    35   ar
    48    60    59    1
    49    60    61    2
    50    59    62    1
    51    20    22    1
    52    11    12    1
    53    35    36   ar
    54    34    36   ar
    55    13    12   ar
    56    62    63    1
    57    12    14   ar
    58    69    68    1
    59    70    68    1
    60    64    65    1
    61    68    65    1
    62     6     5    1
    63     4     3    2
    64   117   116    1
    65     5     2    1
    66    65    66    1
    67    67    66    2
    68    66    71   am
    69   106   105    1
    70     3     2    1
    71     2     1    1
    72   116   118    1
    73   116   115    2
    74   104   105    1
    75   104   101    1
    76   102   103    2
    77   102   101    1
    78    99    98    1
    79    71    72    1
    80    97    96    2
    81   105   107    1
    82   115   114    1
    83    98    95    1
    84   101   100    1
    85    82    84   ar
    86    82    80   ar
    87    72    73    1
    88    79    80    1
    89    79    76    1
    90    96    95    1
    91    84    85   ar
    92   110   111    2
    93   110   109    1
    94    73    75   am
    95    73    74    2
    96    95    94    1
    97   112   109    1
    98   112   113    1
    99    75    76    1
   100    80    81   ar
   101   114   113    1
   102   108   109    1
   103    76    77    1
   104    78    77    2
   105    85    86    1
   106    85    83   ar
   107    81    83   ar
   108    92    91    1
   109    93    91    1
   110    91    88    1
   111    87    88    1
   112    88    89    1
   113    89    90    2
