@<TRIPOS>MOLECULE
tmp/5qakC00.pdb
 110 105 0 0 0
SMALL
GASTEIGER

@<TRIPOS>ATOM
      1  N         83.7470  229.9350   31.4660 N.3    47  SER47      -0.1217
      2  CA        84.2890  229.5460   32.7600 C.3    47  SER47       0.1889
      3  C         84.8730  228.1320   32.7930 C.2    47  SER47       0.2288
      4  O         85.4850  227.7690   33.8060 O.2    47  SER47      -0.2866
      5  CB        83.2190  229.6920   33.8490 C.3    47  SER47       0.2089
      6  OG        82.8410  231.0670   34.0080 O.3    47  SER47      -0.2183
      7  N         76.5820  239.2140   41.0570 N.3    78  ILE78      -0.1245
      8  CA        76.4910  237.8610   41.5960 C.3    78  ILE78       0.1561
      9  C         76.9340  237.9110   43.0550 C.2    78  ILE78       0.2260
     10  O         78.1060  238.1630   43.3530 O.2    78  ILE78      -0.2867
     11  CB        77.3110  236.8710   40.7620 C.3    78  ILE78       0.0252
     12  CG1       76.8550  236.9740   39.2980 C.3    78  ILE78       0.0019
     13  CG2       77.1600  235.4490   41.3200 C.3    78  ILE78       0.0019
     14  CD1       77.3740  235.8990   38.3820 C.3    78  ILE78       0.0001
     15  N         80.0260  236.3590   44.6160 N.3    81  TRP81      -0.1241
     16  CA        81.3170  236.9340   44.2510 C.3    81  TRP81       0.1605
     17  C         81.7770  238.0090   45.2280 C.2    81  TRP81       0.2264
     18  O         82.9710  238.3280   45.2710 O.2    81  TRP81      -0.2867
     19  CB        81.2480  237.5310   42.8490 C.3    81  TRP81       0.0550
     20  CG        81.0710  236.5280   41.7500 C.ar   81  TRP81       0.0003
     21  CD1       80.8360  235.1860   41.8770 C.ar   81  TRP81       0.0946
     22  CD2       81.1210  236.7960   40.3450 C.ar   81  TRP81       0.0152
     23  NE1       80.7390  234.6060   40.6320 N.ar   81  TRP81      -0.2442
     24  CE2       80.9100  235.5730   39.6780 C.ar   81  TRP81       0.0810
     25  CE3       81.3270  237.9520   39.5890 C.ar   81  TRP81       0.0012
     26  CZ2       80.9010  235.4740   38.2900 C.ar   81  TRP81       0.0191
     27  CZ3       81.3130  237.8540   38.2120 C.ar   81  TRP81       0.0001
     28  CH2       81.1010  236.6240   37.5760 C.ar   81  TRP81       0.0015
     29  N         83.9930  226.7260   42.6780 N.3    92  LYS92      -0.1231
     30  CA        82.6170  226.3430   42.9740 C.3    92  LYS92       0.1693
     31  C         81.6300  227.4100   42.5140 C.2    92  LYS92       0.2592
     32  O         80.5970  227.0980   41.9070 O.2    92  LYS92      -0.2718
     33  CB        82.4680  226.0860   44.4770 C.3    92  LYS92       0.0285
     34  CG        81.0490  225.7530   44.9280 C.3    92  LYS92       0.0035
     35  CD        81.0090  225.4260   46.4280 C.3    92  LYS92       0.0206
     36  CE        79.6020  225.1300   46.9210 C.3    92  LYS92       0.1093
     37  NZ        79.5760  224.9400   48.4050 N.3    92  LYS92      -0.1314
     38  N         81.9230  228.6770   42.8010 N.am   93  TYR93      -0.1962
     39  CA        81.0150  229.7680   42.4740 C.3    93  TYR93       0.1771
     40  C         81.4260  230.4930   41.1940 C.2    93  TYR93       0.2620
     41  O         80.8530  231.5380   40.8750 O.2    93  TYR93      -0.2715
     42  CB        80.9240  230.7450   43.6490 C.3    93  TYR93       0.0574
     43  CG        80.3350  230.1130   44.8950 C.ar   93  TYR93      -0.0198
     44  CD1       78.9770  229.8250   44.9800 C.ar   93  TYR93      -0.0009
     45  CD2       81.1410  229.7830   45.9720 C.ar   93  TYR93      -0.0009
     46  CE1       78.4390  229.2320   46.1130 C.ar   93  TYR93       0.0417
     47  CE2       80.6160  229.1890   47.1070 C.ar   93  TYR93       0.0417
     48  CZ        79.2650  228.9160   47.1730 C.ar   93  TYR93       0.1957
     49  OH        78.7470  228.3290   48.3060 O.3    93  TYR93      -0.2866
     50  N         82.4000  229.9540   40.4640 N.am   94  SER94      -0.1950
     51  CA        82.8360  230.4810   39.1730 C.3    94  SER94       0.1924
     52  C         83.1080  231.9870   39.2530 C.2    94  SER94       0.2314
     53  O         82.5730  232.7940   38.4860 O.2    94  SER94      -0.2863
     54  CB        81.8040  230.1470   38.0900 C.3    94  SER94       0.2116
     55  OG        82.4220  230.0580   36.8260 O.3    94  SER94      -0.2180
     56  N         81.4130  224.0050   35.1080 N.3   185  THR185     -0.1203
     57  CA        80.4040  224.6310   34.2690 C.3   185  THR185      0.1994
     58  C         80.9750  225.8450   33.5400 C.2   185  THR185      0.2618
     59  O         81.9930  226.4210   33.9330 O.2   185  THR185     -0.2717
     60  CB        79.2060  225.0750   35.1070 C.3   185  THR185      0.1784
     61  OG1       79.6450  225.9890   36.1230 O.3   185  THR185     -0.2211
     62  CG2       78.5160  223.8740   35.7590 C.3   185  THR185      0.0376
     63  N         80.2900  226.2360   32.4750 N.am  186  GLY186     -0.1942
     64  CA        80.6150  227.4640   31.7680 C.3   186  GLY186      0.2014
     65  C         79.3730  228.1040   31.1880 C.2   186  GLY186      0.2638
     66  O         78.4000  227.4220   30.8480 O.2   186  GLY186     -0.2714
     67  N         79.4160  229.4310   31.0570 N.am  187  TYR187     -0.1973
     68  CA        78.2970  230.2030   30.5190 C.3   187  TYR187      0.1639
     69  C         78.8790  231.3480   29.7030 C.2   187  TYR187      0.2290
     70  O         79.4040  232.3100   30.2730 O.2   187  TYR187     -0.2864
     71  CB        77.4090  230.7260   31.6500 C.3   187  TYR187      0.0560
     72  CG        76.1600  231.4830   31.2390 C.ar  187  TYR187     -0.0198
     73  CD1       75.5740  231.3000   29.9930 C.ar  187  TYR187     -0.0009
     74  CD2       75.5520  232.3660   32.1250 C.ar  187  TYR187     -0.0009
     75  CE1       74.4210  231.9900   29.6350 C.ar  187  TYR187      0.0417
     76  CE2       74.4090  233.0590   31.7750 C.ar  187  TYR187      0.0417
     77  CZ        73.8430  232.8650   30.5340 C.ar  187  TYR187      0.1957
     78  OH        72.7020  233.5570   30.1940 O.3   187  TYR187     -0.2866
     79  N         78.3470  234.4460   27.4050 N.3   189  THR189     -0.1218
     80  CA        77.3120  235.4330   27.1310 C.3   189  THR189      0.1862
     81  C         77.7820  236.6520   26.3520 C.2   189  THR189      0.2287
     82  O         76.9330  237.4160   25.8840 O.2   189  THR189     -0.2866
     83  CB        76.6960  235.9420   28.4430 C.3   189  THR189      0.1770
     84  OG1       77.7100  236.5890   29.2260 O.3   189  THR189     -0.2211
     85  CG2       76.0990  234.7960   29.2350 C.3   189  THR189      0.0375
     86  N         69.5620  233.0460   31.0150 N.3   220  SER220     -0.1217
     87  CA        70.0920  232.3210   32.1630 C.3   220  SER220      0.1889
     88  C         69.0780  231.3550   32.7600 C.2   220  SER220      0.2288
     89  O         69.4500  230.5540   33.6270 O.2   220  SER220     -0.2866
     90  CB        70.5630  233.3050   33.2340 C.3   220  SER220      0.2089
     91  OG        69.5000  234.1350   33.6620 O.3   220  SER220     -0.2183
     92  N         70.0620  227.4550   32.7560 N.3   223  LEU223     -0.1245
     93  CA        71.4010  227.0270   33.1470 C.3   223  LEU223      0.1561
     94  C         71.3820  225.6440   33.7900 C.2   223  LEU223      0.2260
     95  O         72.2960  224.8400   33.5760 O.2   223  LEU223     -0.2867
     96  CB        72.0200  228.0560   34.0930 C.3   223  LEU223      0.0270
     97  CG        72.5410  229.3230   33.4060 C.3   223  LEU223      0.0019
     98  CD1       72.9370  230.3610   34.4420 C.3   223  LEU223      0.0001
     99  CD2       73.7270  228.9970   32.5100 C.3   223  LEU223      0.0001
    100  N         72.0860  222.2760   31.8210 N.3   226  ARG226     -0.1245
    101  CA        73.4030  221.7420   31.4880 C.3   226  ARG226      0.1563
    102  C         73.6400  220.4250   32.2120 C.2   226  ARG226      0.2260
    103  O         73.9840  219.4090   31.5930 O.2   226  ARG226     -0.2867
    104  CB        74.4920  222.7560   31.8500 C.3   226  ARG226      0.0307
    105  CG        74.4140  224.0740   31.0780 C.3   226  ARG226      0.0489
    106  CD        75.3840  225.1060   31.6430 C.3   226  ARG226      0.2205
    107  NE        75.0400  225.4740   33.0160 N.pl3 226  ARG226     -0.0865
    108  CZ        75.7340  226.3340   33.7560 C.cat 226  ARG226      0.5346
    109  NH1       75.3510  226.6100   34.9980 N.pl3 226  ARG226      0.1354
    110  NH2       76.8120  226.9220   33.2540 N.pl3 226  ARG226      0.1354
@<TRIPOS>BOND
     1    82    81    2
     2    81    80    1
     3    80    79    1
     4    80    83    1
     5    83    84    1
     6    83    85    1
     7    75    73   ar
     8    75    77   ar
     9    69    70    2
    10    69    68    1
    11    73    72   ar
    12    78    77    1
    13    68    67    1
    14    68    71    1
    15    77    76   ar
    16    66    65    2
    17    86    87    1
    18    67    65   am
    19   105   106    1
    20   105   104    1
    21    65    64    1
    22    72    71    1
    23    72    74   ar
    24     1     2    1
    25   101   100    1
    26   101   104    1
    27   101   102    1
    28   103   102    2
    29   106   107    1
    30    64    63    1
    31    76    74   ar
    32    87    88    1
    33    87    90    1
    34    63    58   am
    35    99    97    1
    36    92    93    1
    37     2     3    1
    38     2     5    1
    39    88    89    2
    40     3     4    2
    41   107   108    2
    42    93    94    1
    43    93    96    1
    44    90    91    1
    45   110   108    1
    46    97    96    1
    47    97    98    1
    48    58    59    2
    49    58    57    1
    50    95    94    2
    51   108   109    1
    52     5     6    1
    53    57    60    1
    54    57    56    1
    55    60    62    1
    56    60    61    1
    57    55    54    1
    58    28    27   ar
    59    28    26   ar
    60    54    51    1
    61    27    25   ar
    62    26    24   ar
    63    14    12    1
    64    53    52    2
    65    51    52    1
    66    51    50    1
    67    12    11    1
    68    25    22   ar
    69    24    22   ar
    70    24    23   ar
    71    22    20   ar
    72    50    40   am
    73    23    21   ar
    74    11    13    1
    75    11     8    1
    76    41    40    2
    77     7     8    1
    78    40    39    1
    79     8     9    1
    80    20    21   ar
    81    20    19    1
    82    32    31    2
    83    39    38    1
    84    39    42    1
    85    31    38   am
    86    31    30    1
    87    29    30    1
    88    19    16    1
    89    30    33    1
    90     9    10    2
    91    42    43    1
    92    16    15    1
    93    16    17    1
    94    33    34    1
    95    43    44   ar
    96    43    45   ar
    97    34    35    1
    98    44    46   ar
    99    17    18    2
   100    45    47   ar
   101    46    48   ar
   102    35    36    1
   103    36    37    1
   104    47    48   ar
   105    48    49    1
