@<TRIPOS>MOLECULE
tmp/5qalC00.pdb
 115 110 0 0 0
SMALL
GASTEIGER

@<TRIPOS>ATOM
      1  N         10.2280  -31.1600   73.3290 N.3    77  ASP77      -0.1225
      2  CA        11.6650  -30.8670   73.3440 C.3    77  ASP77       0.1805
      3  C         11.9760  -29.4040   73.6430 C.2    77  ASP77       0.2597
      4  O         13.1550  -29.0360   73.6440 O.2    77  ASP77      -0.2718
      5  CB        12.3740  -31.3020   72.0540 C.3    77  ASP77       0.1424
      6  CG        11.7460  -30.7530   70.8000 C.2    77  ASP77       0.3668
      7  OD1       10.9330  -29.8070   70.8820 O.co2  77  ASP77      -0.2456
      8  OD2       12.0920  -31.2830   69.7220 O.co2  77  ASP77      -0.2456
      9  N         10.9700  -28.5500   73.8080 N.am   78  ILE78      -0.1980
     10  CA        11.1740  -27.1730   74.2530 C.3    78  ILE78       0.1595
     11  C         10.8620  -27.1490   75.7460 C.2    78  ILE78       0.2287
     12  O          9.7140  -27.3450   76.1630 O.2    78  ILE78      -0.2864
     13  CB        10.3090  -26.1810   73.4660 C.3    78  ILE78       0.0276
     14  CG1       10.6950  -26.2300   71.9800 C.3    78  ILE78       0.0022
     15  CG2       10.4580  -24.7620   74.0250 C.3    78  ILE78       0.0022
     16  CD1        9.7360  -25.5160   71.0940 C.3    78  ILE78       0.0001
     17  N         10.5660  -25.0120   78.1610 N.3    80  THR80      -0.1203
     18  CA         9.6210  -24.0900   78.7850 C.3    80  THR80       0.1994
     19  C          8.1680  -24.4830   78.5340 C.2    80  THR80       0.2617
     20  O          7.2690  -23.9790   79.2180 O.2    80  THR80      -0.2717
     21  CB         9.8510  -22.6660   78.2730 C.3    80  THR80       0.1784
     22  OG1        9.7650  -22.6560   76.8460 O.3    80  THR80      -0.2211
     23  CG2       11.2090  -22.1420   78.7110 C.3    80  THR80       0.0376
     24  N          7.9200  -25.3620   77.5670 N.am   81  TRP81      -0.1975
     25  CA         6.5740  -25.8590   77.3150 C.3    81  TRP81       0.1640
     26  C          6.1160  -26.9000   78.3350 C.2    81  TRP81       0.2290
     27  O          4.9100  -27.1720   78.4170 O.2    81  TRP81      -0.2864
     28  CB         6.5060  -26.4710   75.9210 C.3    81  TRP81       0.0576
     29  CG         6.6550  -25.4770   74.8200 C.ar   81  TRP81       0.0006
     30  CD1        6.9600  -24.1470   74.9330 C.ar   81  TRP81       0.0946
     31  CD2        6.5000  -25.7340   73.4300 C.ar   81  TRP81       0.0152
     32  NE1        7.0050  -23.5670   73.6930 N.ar   81  TRP81      -0.2442
     33  CE2        6.7240  -24.5210   72.7510 C.ar   81  TRP81       0.0810
     34  CE3        6.1960  -26.8760   72.6900 C.ar   81  TRP81       0.0012
     35  CZ2        6.6530  -24.4200   71.3640 C.ar   81  TRP81       0.0191
     36  CZ3        6.1240  -26.7750   71.3120 C.ar   81  TRP81       0.0001
     37  CH2        6.3480  -25.5570   70.6670 C.ar   81  TRP81       0.0015
     38  N          4.5420  -15.4260   75.8950 N.3    92  LYS92      -0.1231
     39  CA         5.9700  -15.1590   76.0420 C.3    92  LYS92       0.1693
     40  C          6.8090  -16.2910   75.4600 C.2    92  LYS92       0.2592
     41  O          7.7590  -16.0470   74.7120 O.2    92  LYS92      -0.2718
     42  CB         6.3090  -14.9450   77.5230 C.3    92  LYS92       0.0285
     43  CG         7.7880  -14.7200   77.8070 C.3    92  LYS92       0.0035
     44  CD         8.0120  -14.4060   79.2930 C.3    92  LYS92       0.0206
     45  CE         9.4780  -14.2020   79.6350 C.3    92  LYS92       0.1093
     46  NZ         9.6460  -13.9620   81.0920 N.3    92  LYS92      -0.1314
     47  N          6.4540  -17.5380   75.7660 N.am   93  TYR93      -0.1962
     48  CA         7.2280  -18.6920   75.3330 C.3    93  TYR93       0.1771
     49  C          6.6380  -19.3820   74.1060 C.2    93  TYR93       0.2620
     50  O          7.0830  -20.4760   73.7480 O.2    93  TYR93      -0.2715
     51  CB         7.3720  -19.6780   76.4900 C.3    93  TYR93       0.0574
     52  CG         8.1500  -19.0900   77.6470 C.ar   93  TYR93      -0.0198
     53  CD1        9.5190  -18.9030   77.5570 C.ar   93  TYR93      -0.0009
     54  CD2        7.5140  -18.7020   78.8190 C.ar   93  TYR93      -0.0009
     55  CE1       10.2460  -18.3570   78.6150 C.ar   93  TYR93       0.0417
     56  CE2        8.2270  -18.1540   79.8770 C.ar   93  TYR93       0.0417
     57  CZ         9.5910  -17.9810   79.7660 C.ar   93  TYR93       0.1957
     58  OH        10.3020  -17.4380   80.8160 O.3    93  TYR93      -0.2866
     59  N          5.6500  -18.7630   73.4670 N.am   94  SER94      -0.1950
     60  CA         5.0640  -19.2580   72.2230 C.3    94  SER94       0.1924
     61  C          4.7190  -20.7410   72.3490 C.2    94  SER94       0.2314
     62  O          5.1560  -21.5840   71.5660 O.2    94  SER94      -0.2863
     63  CB         6.0070  -18.9950   71.0460 C.3    94  SER94       0.2116
     64  OG         5.2890  -18.9040   69.8280 O.3    94  SER94      -0.2180
     65  N          6.4850  -12.7130   68.0860 N.3   185  THR185     -0.1218
     66  CA         7.3740  -13.3980   67.1610 C.3   185  THR185      0.1862
     67  C          6.6500  -14.5500   66.4690 C.2   185  THR185      0.2287
     68  O          5.6570  -15.0880   66.9720 O.2   185  THR185     -0.2866
     69  CB         8.5920  -13.9590   67.8920 C.3   185  THR185      0.1770
     70  OG1        8.1440  -14.8350   68.9330 O.3   185  THR185     -0.2211
     71  CG2        9.4640  -12.8530   68.4860 C.3   185  THR185      0.0375
     72  N          7.7210  -18.1740   63.8040 N.3   187  TYR187     -0.1241
     73  CA         8.7270  -19.0530   63.2030 C.3   187  TYR187      0.1605
     74  C          7.9980  -20.1430   62.4230 C.2   187  TYR187      0.2264
     75  O          7.3410  -21.0040   63.0190 O.2   187  TYR187     -0.2867
     76  CB         9.6260  -19.6620   64.2810 C.3   187  TYR187      0.0534
     77  CG        10.7750  -20.5220   63.7860 C.ar  187  TYR187     -0.0201
     78  CD1       11.2790  -20.3980   62.4980 C.ar  187  TYR187     -0.0009
     79  CD2       11.3330  -21.4890   64.6140 C.ar  187  TYR187     -0.0009
     80  CE1       12.3290  -21.1930   62.0610 C.ar  187  TYR187      0.0417
     81  CE2       12.3710  -22.2910   64.1890 C.ar  187  TYR187      0.0417
     82  CZ        12.8690  -22.1400   62.9160 C.ar  187  TYR187      0.1957
     83  OH        13.9050  -22.9450   62.4930 O.3   187  TYR187     -0.2866
     84  N          8.2210  -23.2350   59.7700 N.3   189  THR189     -0.1218
     85  CA         9.1130  -24.2280   59.1750 C.3   189  THR189      0.1862
     86  C          8.4190  -25.3290   58.3760 C.2   189  THR189      0.2287
     87  O          9.0950  -26.0260   57.6130 O.2   189  THR189     -0.2866
     88  CB         9.9580  -24.9100   60.2600 C.3   189  THR189      0.1770
     89  OG1        9.0980  -25.6260   61.1550 O.3   189  THR189     -0.2211
     90  CG2       10.7680  -23.8850   61.0330 C.3   189  THR189      0.0375
     91  N         17.4080  -22.3890   62.6750 N.3   220  SER220     -0.1217
     92  CA        17.0070  -21.6870   63.8900 C.3   220  SER220      0.1889
     93  C         18.0960  -20.7670   64.4300 C.2   220  SER220      0.2288
     94  O         17.8280  -19.9950   65.3550 O.2   220  SER220     -0.2866
     95  CB        16.6050  -22.7040   64.9610 C.3   220  SER220      0.2089
     96  OG        17.6960  -23.5510   65.2990 O.3   220  SER220     -0.2183
     97  N         17.2970  -16.7430   64.5680 N.3   223  LEU223     -0.1245
     98  CA        16.0150  -16.2480   65.0580 C.3   223  LEU223      0.1561
     99  C         16.1530  -14.8910   65.7410 C.2   223  LEU223      0.2260
    100  O         15.2430  -14.0600   65.6550 O.2   223  LEU223     -0.2867
    101  CB        15.3870  -17.2700   66.0150 C.3   223  LEU223      0.0270
    102  CG        14.7980  -18.5300   65.3590 C.3   223  LEU223      0.0019
    103  CD1       14.4070  -19.5790   66.4050 C.3   223  LEU223      0.0001
    104  CD2       13.6010  -18.1780   64.4860 C.3   223  LEU223      0.0001
    105  N         15.4340  -11.4300   63.9720 N.3   226  ARG226     -0.1245
    106  CA        14.1070  -10.8440   63.8150 C.3   226  ARG226      0.1563
    107  C         14.0190   -9.5220   64.5620 C.2   226  ARG226      0.2260
    108  O         13.6080   -8.5010   64.0000 O.2   226  ARG226     -0.2867
    109  CB        13.0430  -11.8180   64.3110 C.3   226  ARG226      0.0307
    110  CG        12.9310  -13.0820   63.4920 C.3   226  ARG226      0.0489
    111  CD        11.9690  -14.0660   64.1160 C.3   226  ARG226      0.2205
    112  NE        12.4390  -14.5450   65.4090 N.pl3 226  ARG226     -0.0865
    113  CZ        11.7820  -15.4160   66.1620 C.cat 226  ARG226      0.5346
    114  NH1       12.2840  -15.7910   67.3300 N.pl3 226  ARG226      0.1354
    115  NH2       10.6270  -15.9190   65.7440 N.pl3 226  ARG226      0.1354
@<TRIPOS>BOND
     1    87    86    2
     2    86    85    1
     3    85    84    1
     4    85    88    1
     5    88    90    1
     6    88    89    1
     7    80    78   ar
     8    80    82   ar
     9    74    75    2
    10    74    73    1
    11    83    82    1
    12    78    77   ar
    13    91    92    1
    14    82    81   ar
    15    73    72    1
    16    73    76    1
    17   110   111    1
    18   110   109    1
    19    77    76    1
    20    77    79   ar
    21   106   105    1
    22   106   109    1
    23   106   107    1
    24    92    93    1
    25    92    95    1
    26   108   107    2
    27   111   112    1
    28    81    79   ar
    29    93    94    2
    30   104   102    1
    31    97    98    1
    32    95    96    1
    33    98    99    1
    34    98   101    1
    35   102   101    1
    36   102   103    1
    37   112   113    2
    38   100    99    2
    39   115   113    1
    40   113   114    1
    41    67    68    2
    42    67    66    1
    43    66    69    1
    44    66    65    1
    45    69    71    1
    46    69    70    1
    47     8     6   ar
    48    64    63    1
    49    37    36   ar
    50    37    35   ar
    51     6     7   ar
    52     6     5    1
    53    63    60    1
    54    16    14    1
    55    36    34   ar
    56    35    33   ar
    57    62    61    2
    58    14    13    1
    59     5     2    1
    60    60    61    1
    61    60    59    1
    62    34    31   ar
    63    33    31   ar
    64    33    32   ar
    65     1     2    1
    66     2     3    1
    67    31    29   ar
    68    13    15    1
    69    13    10    1
    70    59    49   am
    71     3     4    2
    72     3     9   am
    73    32    30   ar
    74    50    49    2
    75     9    10    1
    76    49    48    1
    77    10    11    1
    78    41    40    2
    79    29    30   ar
    80    29    28    1
    81    48    47    1
    82    48    51    1
    83    40    47   am
    84    40    39    1
    85    11    12    2
    86    38    39    1
    87    28    25    1
    88    39    42    1
    89    51    52    1
    90    22    21    1
    91    25    24    1
    92    25    26    1
    93    42    43    1
    94    53    52   ar
    95    53    55   ar
    96    24    19   am
    97    52    54   ar
    98    43    44    1
    99    17    18    1
   100    21    23    1
   101    21    18    1
   102    26    27    2
   103    19    18    1
   104    19    20    2
   105    55    57   ar
   106    54    56   ar
   107    44    45    1
   108    45    46    1
   109    57    56   ar
   110    57    58    1
