@<TRIPOS>MOLECULE
tmp/5qamC00.pdb
 112 104 0 0 0
SMALL
GASTEIGER

@<TRIPOS>ATOM
      1  N         85.6890  232.1610   31.3950 N.3    47  SER47      -0.1217
      2  CA        86.2520  231.7400   32.6730 C.3    47  SER47       0.1889
      3  C         86.7990  230.3170   32.6650 C.2    47  SER47       0.2288
      4  O         87.4460  229.9240   33.6440 O.2    47  SER47      -0.2866
      5  CB        85.2090  231.9000   33.7800 C.3    47  SER47       0.2089
      6  OG        84.8690  233.2750   33.9650 O.3    47  SER47      -0.2183
      7  N         79.0810  243.6920   40.5850 N.3    77  ASP77      -0.1225
      8  CA        77.6900  243.2680   40.5180 C.3    77  ASP77       0.1805
      9  C         77.4660  241.8320   40.9680 C.2    77  ASP77       0.2597
     10  O         76.3140  241.4530   41.2050 O.2    77  ASP77      -0.2718
     11  CB        77.1720  243.4230   39.0860 C.3    77  ASP77       0.1424
     12  CG        77.2470  244.8490   38.5890 C.2    77  ASP77       0.3668
     13  OD1       77.7190  245.7250   39.3470 O.co2  77  ASP77      -0.2456
     14  OD2       76.8240  245.0990   37.4400 O.co2  77  ASP77      -0.2456
     15  N         78.5160  241.0380   41.1320 N.am   78  ILE78      -0.1980
     16  CA        78.3930  239.6790   41.6450 C.3    78  ILE78       0.1595
     17  C         78.8680  239.6980   43.0910 C.2    78  ILE78       0.2287
     18  O         80.0560  239.9010   43.3650 O.2    78  ILE78      -0.2864
     19  CB        79.1780  238.6780   40.7900 C.3    78  ILE78       0.0276
     20  CG1       78.6690  238.7410   39.3460 C.3    78  ILE78       0.0022
     21  CG2       79.0210  237.2690   41.3540 C.3    78  ILE78       0.0022
     22  CD1       79.4050  237.8630   38.3990 C.3    78  ILE78       0.0001
     23  N         82.0660  238.1980   44.5870 N.3    81  TRP81      -0.1241
     24  CA        83.3500  238.7930   44.2410 C.3    81  TRP81       0.1605
     25  C         83.8010  239.8450   45.2460 C.2    81  TRP81       0.2264
     26  O         84.9830  240.2090   45.2530 O.2    81  TRP81      -0.2867
     27  CB        83.2690  239.4380   42.8570 C.3    81  TRP81       0.0550
     28  CG        83.0920  238.4670   41.7190 C.ar   81  TRP81       0.0003
     29  CD1       82.8860  237.1190   41.8020 C.ar   81  TRP81       0.0946
     30  CD2       83.1040  238.7860   40.3250 C.ar   81  TRP81       0.0152
     31  NE1       82.7690  236.5810   40.5430 N.ar   81  TRP81      -0.2442
     32  CE2       82.8970  237.5860   39.6190 C.ar   81  TRP81       0.0810
     33  CE3       83.2660  239.9750   39.6070 C.ar   81  TRP81       0.0012
     34  CZ2       82.8570  237.5380   38.2320 C.ar   81  TRP81       0.0191
     35  CZ3       83.2230  239.9250   38.2270 C.ar   81  TRP81       0.0001
     36  CH2       83.0170  238.7180   37.5540 C.ar   81  TRP81       0.0015
     37  N         84.3470  231.9440   40.2350 N.3    94  SER94      -0.1217
     38  CA        84.7900  232.5510   38.9770 C.3    94  SER94       0.1889
     39  C         85.0940  234.0380   39.1540 C.2    94  SER94       0.2288
     40  O         84.5690  234.8930   38.4400 O.2    94  SER94      -0.2866
     41  CB        83.7460  232.3500   37.8770 C.3    94  SER94       0.2089
     42  OG        83.5360  230.9780   37.6120 O.3    94  SER94      -0.2183
     43  N         86.6310  236.9290   38.4330 N.3    96  VAL96      -0.1245
     44  CA        87.4190  237.5520   37.3680 C.3    96  VAL96       0.1561
     45  C         88.4770  238.5100   37.9120 C.2    96  VAL96       0.2260
     46  O         89.6460  238.3910   37.5210 O.2    96  VAL96      -0.2867
     47  CB        86.4830  238.2250   36.3560 C.3    96  VAL96       0.0252
     48  CG1       87.2700  239.0420   35.3230 C.3    96  VAL96       0.0019
     49  CG2       85.6020  237.1720   35.6830 C.3    96  VAL96       0.0019
     50  N         88.2790  237.0200   27.6660 N.3   134  LEU134     -0.1245
     51  CA        86.9020  237.4970   27.6950 C.3   134  LEU134      0.1561
     52  C         86.5190  238.3120   26.4710 C.2   134  LEU134      0.2260
     53  O         85.3710  238.2430   26.0260 O.2   134  LEU134     -0.2867
     54  CB        86.6750  238.3570   28.9430 C.3   134  LEU134      0.0270
     55  CG        86.9580  237.6960   30.2920 C.3   134  LEU134      0.0019
     56  CD1       87.0060  238.7280   31.3920 C.3   134  LEU134      0.0001
     57  CD2       85.8830  236.6600   30.5910 C.3   134  LEU134      0.0001
     58  N         83.3710  226.1550   34.9360 N.3   185  THR185     -0.1203
     59  CA        82.3500  226.8220   34.1420 C.3   185  THR185      0.1994
     60  C         82.9260  228.0390   33.4240 C.2   185  THR185      0.2618
     61  O         83.9560  228.5970   33.8100 O.2   185  THR185     -0.2717
     62  CB        81.1870  227.2780   35.0230 C.3   185  THR185      0.1784
     63  OG1       81.6730  228.1880   36.0230 O.3   185  THR185     -0.2211
     64  CG2       80.5170  226.0800   35.7020 C.3   185  THR185      0.0376
     65  N         82.2380  228.4470   32.3690 N.am  186  GLY186     -0.1942
     66  CA        82.5720  229.6780   31.6750 C.3   186  GLY186      0.2014
     67  C         81.3180  230.3340   31.1600 C.2   186  GLY186      0.2638
     68  O         80.3260  229.6640   30.8520 O.2   186  GLY186     -0.2714
     69  N         81.3730  231.6580   31.0460 N.am  187  TYR187     -0.1973
     70  CA        80.2370  232.4560   30.5950 C.3   187  TYR187      0.1639
     71  C         80.7880  233.6130   29.7720 C.2   187  TYR187      0.2290
     72  O         81.3510  234.5610   30.3300 O.2   187  TYR187     -0.2864
     73  CB        79.4240  232.9620   31.7850 C.3   187  TYR187      0.0560
     74  CG        78.1510  233.7040   31.4420 C.ar  187  TYR187     -0.0198
     75  CD1       77.5370  233.5620   30.2040 C.ar  187  TYR187     -0.0009
     76  CD2       77.5510  234.5400   32.3750 C.ar  187  TYR187     -0.0009
     77  CE1       76.3660  234.2390   29.9070 C.ar  187  TYR187      0.0417
     78  CE2       76.3860  235.2170   32.0850 C.ar  187  TYR187      0.0417
     79  CZ        75.7980  235.0610   30.8540 C.ar  187  TYR187      0.1957
     80  OH        74.6380  235.7360   30.5750 O.3   187  TYR187     -0.2866
     81  N         80.1950  236.7650   27.5550 N.3   189  THR189     -0.1218
     82  CA        79.1590  237.7630   27.3260 C.3   189  THR189      0.1862
     83  C         79.6230  238.9940   26.5660 C.2   189  THR189      0.2287
     84  O         78.7720  239.7460   26.0880 O.2   189  THR189     -0.2866
     85  CB        78.5790  238.2540   28.6590 C.3   189  THR189      0.1770
     86  OG1       79.6160  238.8930   29.4120 O.3   189  THR189     -0.2211
     87  CG2       78.0170  237.1000   29.4580 C.3   189  THR189      0.0375
     88  N         71.4780  235.2130   31.3560 N.3   220  SER220     -0.1217
     89  CA        72.0110  234.4400   32.4770 C.3   220  SER220      0.1889
     90  C         71.0050  233.4470   33.0470 C.2   220  SER220      0.2288
     91  O         71.3750  232.6500   33.9170 O.2   220  SER220     -0.2866
     92  CB        72.4760  235.3770   33.5910 C.3   220  SER220      0.2089
     93  OG        71.4030  236.1690   34.0710 O.3   220  SER220     -0.2183
     94  N         72.0320  229.5910   32.8170 N.3   223  LEU223     -0.1245
     95  CA        73.3650  229.1390   33.2020 C.3   223  LEU223      0.1561
     96  C         73.3230  227.7490   33.8280 C.2   223  LEU223      0.2260
     97  O         74.2020  226.9170   33.5710 O.2   223  LEU223     -0.2867
     98  CB        73.9970  230.1510   34.1590 C.3   223  LEU223      0.0270
     99  CG        74.5040  231.4500   33.5200 C.3   223  LEU223      0.0019
    100  CD1       74.9170  232.4440   34.5920 C.3   223  LEU223      0.0001
    101  CD2       75.6650  231.1920   32.5830 C.3   223  LEU223      0.0001
    102  N         74.0260  224.4200   31.7770 N.3   226  ARG226     -0.1245
    103  CA        75.3330  223.8890   31.4120 C.3   226  ARG226      0.1563
    104  C         75.5720  222.5510   32.1010 C.2   226  ARG226      0.2260
    105  O         75.9050  221.5540   31.4510 O.2   226  ARG226     -0.2867
    106  CB        76.4290  224.8940   31.7730 C.3   226  ARG226      0.0307
    107  CG        76.2810  226.2490   31.0890 C.3   226  ARG226      0.0489
    108  CD        77.2610  227.2820   31.6410 C.3   226  ARG226      0.2205
    109  NE        76.9930  227.6160   33.0350 N.pl3 226  ARG226     -0.0865
    110  CZ        77.7020  228.4880   33.7450 C.cat 226  ARG226      0.5346
    111  NH1       77.3850  228.7300   35.0120 N.pl3 226  ARG226      0.1354
    112  NH2       78.7200  229.1290   33.1900 N.pl3 226  ARG226      0.1354
@<TRIPOS>BOND
     1    53    52    2
     2    84    83    2
     3    52    51    1
     4    83    82    1
     5    82    81    1
     6    82    85    1
     7    50    51    1
     8    51    54    1
     9    85    86    1
    10    85    87    1
    11    54    55    1
    12    71    72    2
    13    71    70    1
    14    77    75   ar
    15    77    79   ar
    16    75    74   ar
    17    55    57    1
    18    55    56    1
    19    80    79    1
    20    70    69    1
    21    70    73    1
    22    68    67    2
    23    79    78   ar
    24    69    67   am
    25   107   108    1
    26   107   106    1
    27    67    66    1
    28    88    89    1
    29     1     2    1
    30   103   106    1
    31   103   102    1
    32   103   104    1
    33    74    73    1
    34    74    76   ar
    35   105   104    2
    36   108   109    1
    37    66    65    1
    38    78    76   ar
    39    65    60   am
    40    89    90    1
    41    89    92    1
    42   101    99    1
    43     3     2    1
    44     3     4    2
    45     2     5    1
    46    94    95    1
    47   109   110    2
    48    90    91    2
    49   112   110    1
    50    95    96    1
    51    95    98    1
    52    60    61    2
    53    60    59    1
    54    99    98    1
    55    99   100    1
    56    97    96    2
    57    92    93    1
    58   110   111    1
    59     5     6    1
    60    59    58    1
    61    59    62    1
    62    62    64    1
    63    62    63    1
    64    48    47    1
    65    49    47    1
    66    47    44    1
    67    44    45    1
    68    44    43    1
    69    14    12   ar
    70    46    45    2
    71    36    35   ar
    72    36    34   ar
    73    42    41    1
    74    41    38    1
    75    35    33   ar
    76    34    32   ar
    77    22    20    1
    78    40    39    2
    79    12    11    1
    80    12    13   ar
    81    38    39    1
    82    38    37    1
    83    11     8    1
    84    20    19    1
    85    33    30   ar
    86    32    30   ar
    87    32    31   ar
    88    30    28   ar
    89     8     7    1
    90     8     9    1
    91    31    29   ar
    92    19    21    1
    93    19    16    1
    94     9    15   am
    95     9    10    2
    96    15    16    1
    97    16    17    1
    98    28    29   ar
    99    28    27    1
   100    27    24    1
   101    17    18    2
   102    24    23    1
   103    24    25    1
   104    25    26    2
