@<TRIPOS>MOLECULE
tmp/5qanD00.pdb
 120 112 0 0 0
SMALL
GASTEIGER

@<TRIPOS>ATOM
      1  N          1.2840   13.0050  176.4670 N.3    48  SER48      -0.1217
      2  CA         0.8430   14.3400  176.0790 C.3    48  SER48       0.1889
      3  C          0.4560   14.4540  174.6090 C.2    48  SER48       0.2288
      4  O         -0.0660   15.5010  174.2120 O.2    48  SER48      -0.2866
      5  CB         1.9300   15.3590  176.4020 C.3    48  SER48       0.2089
      6  OG         2.1770   15.3860  177.7960 O.3    48  SER48      -0.2183
      7  N          7.0690   21.5410  189.2840 N.3    78  ASP78      -0.1225
      8  CA         8.4920   21.4510  188.9760 C.3    78  ASP78       0.1805
      9  C          8.8340   21.9770  187.5900 C.2    78  ASP78       0.2597
     10  O         10.0190   22.1780  187.3030 O.2    78  ASP78      -0.2718
     11  CB         8.9670   20.0010  189.0870 C.3    78  ASP78       0.1424
     12  CG         8.6580   19.3850  190.4360 C.2    78  ASP78       0.3668
     13  OD1        8.5900   20.1310  191.4340 O.co2  78  ASP78      -0.2456
     14  OD2        8.4850   18.1490  190.4950 O.co2  78  ASP78      -0.2456
     15  N          7.8430   22.2100  186.7350 N.am   79  ILE79      -0.1980
     16  CA         8.0660   22.7350  185.3930 C.3    79  ILE79       0.1595
     17  C          7.7070   24.2140  185.4100 C.2    79  ILE79       0.2287
     18  O          6.5470   24.5780  185.6400 O.2    79  ILE79      -0.2864
     19  CB         7.2470   21.9600  184.3490 C.3    79  ILE79       0.0276
     20  CG1        7.7160   20.5010  184.3160 C.3    79  ILE79       0.0022
     21  CG2        7.4030   22.5900  182.9680 C.3    79  ILE79       0.0022
     22  CD1        6.8700   19.5890  183.4620 C.3    79  ILE79       0.0001
     23  N          4.7650   25.8950  183.5030 N.3    82  TRP82      -0.1241
     24  CA         3.4110   25.5610  183.9230 C.3    82  TRP82       0.1605
     25  C          2.8470   26.5330  184.9490 C.2    82  TRP82       0.2264
     26  O          1.6220   26.6230  185.0880 O.2    82  TRP82      -0.2867
     27  CB         3.3730   24.1500  184.5180 C.3    82  TRP82       0.0550
     28  CG         3.5860   23.0590  183.5200 C.ar   82  TRP82       0.0003
     29  CD1        3.9540   23.1980  182.2150 C.ar   82  TRP82       0.0946
     30  CD2        3.4380   21.6540  183.7490 C.ar   82  TRP82       0.0152
     31  NE1        4.0450   21.9650  181.6150 N.ar   82  TRP82      -0.2442
     32  CE2        3.7330   21.0010  182.5360 C.ar   82  TRP82       0.0810
     33  CE3        3.0840   20.8860  184.8610 C.ar   82  TRP82       0.0012
     34  CZ2        3.6840   19.6150  182.4050 C.ar   82  TRP82       0.0191
     35  CZ3        3.0370   19.5110  184.7290 C.ar   82  TRP82       0.0001
     36  CH2        3.3360   18.8900  183.5100 C.ar   82  TRP82       0.0015
     37  N          2.9920   21.7520  176.8240 N.3    95  SER95      -0.1217
     38  CA         2.4500   20.5100  177.3750 C.3    95  SER95       0.1889
     39  C          2.0360   20.6910  178.8350 C.2    95  SER95       0.2288
     40  O          2.4950   19.9870  179.7350 O.2    95  SER95      -0.2866
     41  CB         3.4620   19.3690  177.2370 C.3    95  SER95       0.2089
     42  OG         3.6930   19.0460  175.8780 O.3    95  SER95      -0.2183
     43  N          0.1280   19.9580  181.5740 N.3    97  VAL97      -0.1245
     44  CA        -0.7800   18.9040  182.0310 C.3    97  VAL97       0.1561
     45  C         -1.9410   19.4570  182.8540 C.2    97  VAL97       0.2260
     46  O         -3.0960   19.1370  182.5420 O.2    97  VAL97      -0.2867
     47  CB         0.0080   17.8180  182.7770 C.3    97  VAL97       0.0252
     48  CG1       -0.9380   16.8140  183.4470 C.3    97  VAL97       0.0019
     49  CG2        0.9640   17.1030  181.8230 C.3    97  VAL97       0.0019
     50  N         -2.0150    9.2900  180.9690 N.3   135  LEU135     -0.1245
     51  CA        -0.6860    9.2300  181.5630 C.3   135  LEU135      0.1561
     52  C         -0.4460    7.9750  182.3840 C.2   135  LEU135      0.2260
     53  O          0.6830    7.4830  182.4220 O.2   135  LEU135     -0.2867
     54  CB        -0.4530   10.4480  182.4660 C.3   135  LEU135      0.0270
     55  CG        -0.5780   11.8220  181.8070 C.3   135  LEU135      0.0019
     56  CD1       -0.6290   12.9110  182.8640 C.3   135  LEU135      0.0001
     57  CD2        0.5670   12.0610  180.8410 C.3   135  LEU135      0.0001
     58  N          4.4910   16.6070  170.9980 N.3   186  THR186     -0.1203
     59  CA         5.4040   15.7280  171.7110 C.3   186  THR186      0.1994
     60  C          4.6740   14.9920  172.8310 C.2   186  THR186      0.2618
     61  O          3.5770   15.3700  173.2490 O.2   186  THR186     -0.2717
     62  CB         6.5790   16.5150  172.2960 C.3   186  THR186      0.1784
     63  OG1        6.0900   17.5160  173.1990 O.3   186  THR186     -0.2211
     64  CG2        7.3830   17.1840  171.1940 C.3   186  THR186      0.0376
     65  N          5.3070   13.9320  173.3170 N.am  187  GLY187     -0.1942
     66  CA         4.7600   13.1610  174.4200 C.3   187  GLY187      0.2014
     67  C          5.8680   12.4940  175.2000 C.2   187  GLY187      0.2638
     68  O          6.9170   12.1420  174.6500 O.2   187  GLY187     -0.2714
     69  N          5.6340   12.3220  176.5010 N.am  188  TYR188     -0.1973
     70  CA         6.6380   11.7350  177.3860 C.3   188  TYR188      0.1639
     71  C          5.8930   10.9560  178.4660 C.2   188  TYR188      0.2290
     72  O          5.3270   11.5560  179.3840 O.2   188  TYR188     -0.2864
     73  CB         7.5360   12.8090  177.9860 C.3   188  TYR188      0.0560
     74  CG         8.7020   12.2830  178.8030 C.ar  188  TYR188     -0.0198
     75  CD1        9.1800   10.9900  178.6270 C.ar  188  TYR188     -0.0009
     76  CD2        9.3270   13.0860  179.7480 C.ar  188  TYR188     -0.0009
     77  CE1       10.2460   10.5140  179.3700 C.ar  188  TYR188      0.0417
     78  CE2       10.3940   12.6170  180.4950 C.ar  188  TYR188      0.0417
     79  CZ        10.8480   11.3310  180.3010 C.ar  188  TYR188      0.1957
     80  OH        11.9080   10.8600  181.0420 O.3   188  TYR188     -0.2866
     81  N          5.9790    8.6950  181.6160 N.3   190  THR190     -0.1218
     82  CA         6.8960    8.4140  182.7100 C.3   190  THR190      0.1862
     83  C          6.2790    7.6280  183.8570 C.2   190  THR190      0.2287
     84  O          7.0280    7.0630  184.6610 O.2   190  THR190     -0.2866
     85  CB         7.4590    9.7250  183.2840 C.3   190  THR190      0.1770
     86  OG1        6.3890   10.5060  183.8320 O.3   190  THR190     -0.2211
     87  CG2        8.1630   10.5290  182.2020 C.3   190  THR190      0.0375
     88  N         14.8970   12.1100  181.0320 N.3   221  SER221     -0.1202
     89  CA        14.4960   13.2670  180.2410 C.3   221  SER221      0.2020
     90  C         15.6510   13.8890  179.4690 C.2   221  SER221      0.2618
     91  O         15.4060   14.7410  178.6070 O.2   221  SER221     -0.2717
     92  CB        13.8560   14.3180  181.1460 C.3   221  SER221      0.2103
     93  OG        14.7250   14.6660  182.2040 O.3   221  SER221     -0.2182
     94  N         16.8960   13.5030  179.7600 N.am  222  ASP222     -0.1973
     95  CA        18.0360   14.1260  179.0970 C.3   222  ASP222      0.1709
     96  C         18.0040   13.8960  177.5920 C.2   222  ASP222      0.2293
     97  O         18.5520   14.7010  176.8310 O.2   222  ASP222     -0.2864
     98  CB        19.3430   13.5970  179.6890 C.3   222  ASP222      0.1436
     99  CG        19.5320   13.9990  181.1390 C.2   222  ASP222      0.3671
    100  OD1       19.0070   15.0620  181.5360 O.co2 222  ASP222     -0.2456
    101  OD2       20.2060   13.2550  181.8820 O.co2 222  ASP222     -0.2456
    102  N         15.2870   13.8400  175.6120 N.3   224  LEU224     -0.1245
    103  CA        14.0290   14.2510  174.9940 C.3   224  LEU224      0.1561
    104  C         14.2600   14.9040  173.6390 C.2   224  LEU224      0.2260
    105  O         13.4510   14.7430  172.7180 O.2   224  LEU224     -0.2867
    106  CB        13.2720   15.2010  175.9240 C.3   224  LEU224      0.0270
    107  CG        12.6100   14.5580  177.1470 C.3   224  LEU224      0.0019
    108  CD1       12.0450   15.6200  178.0760 C.3   224  LEU224      0.0001
    109  CD2       11.5140   13.5840  176.7280 C.3   224  LEU224      0.0001
    110  N         13.8600   12.9620  170.2390 N.3   227  ARG227     -0.1245
    111  CA        12.5950   12.6810  169.5670 C.3   227  ARG227      0.1563
    112  C         12.5230   13.4090  168.2310 C.2   227  ARG227      0.2260
    113  O         12.2220   12.8040  167.1950 O.2   227  ARG227     -0.2867
    114  CB        11.4220   13.0780  170.4630 C.3   227  ARG227      0.0307
    115  CG        11.2940   12.2350  171.7220 C.3   227  ARG227      0.0489
    116  CD        10.2430   12.7930  172.6660 C.3   227  ARG227      0.2205
    117  NE        10.5420   14.1570  173.0920 N.pl3 227  ARG227     -0.0865
    118  CZ         9.7500   14.8840  173.8730 C.cat 227  ARG227      0.5346
    119  NH1       10.0990   16.1180  174.2120 N.pl3 227  ARG227      0.1354
    120  NH2        8.6070   14.3800  174.3200 N.pl3 227  ARG227      0.1354
@<TRIPOS>BOND
     1   113   112    2
     2   112   111    1
     3   111   110    1
     4   111   114    1
     5   114   115    1
     6    58    59    1
     7    64    62    1
     8    59    62    1
     9    59    60    1
    10   115   116    1
    11    62    63    1
    12   116   117    1
    13   105   104    2
    14    60    61    2
    15    60    65   am
    16   117   118    2
    17    65    66    1
    18   104   103    1
    19   118   119    1
    20   118   120    1
    21     4     3    2
    22    66    67    1
    23     3     2    1
    24    68    67    2
    25   103   102    1
    26   103   106    1
    27    67    69   am
    28    42    41    1
    29   106   107    1
    30     2     5    1
    31     2     1    1
    32     5     6    1
    33    69    70    1
    34   109   107    1
    35    37    38    1
    36    97    96    2
    37   107   108    1
    38    41    38    1
    39    38    39    1
    40    70    73    1
    41    70    71    1
    42    96    95    1
    43    73    74    1
    44    71    72    2
    45    91    90    2
    46    75    74   ar
    47    75    77   ar
    48    74    76   ar
    49    39    40    2
    50    95    98    1
    51    95    94    1
    52    77    79   ar
    53    90    94   am
    54    90    89    1
    55    98    99    1
    56    76    78   ar
    57    89    88    1
    58    89    92    1
    59    79    78   ar
    60    79    80    1
    61    57    55    1
    62    50    51    1
    63    99   100   ar
    64    99   101   ar
    65    92    93    1
    66    51    52    1
    67    51    54    1
    68    43    44    1
    69    31    29   ar
    70    31    32   ar
    71    81    82    1
    72    55    54    1
    73    55    56    1
    74    49    47    1
    75    44    47    1
    76    44    45    1
    77    87    85    1
    78    29    28   ar
    79    52    53    2
    80    34    32   ar
    81    34    36   ar
    82    32    30   ar
    83    46    45    2
    84    82    85    1
    85    82    83    1
    86    47    48    1
    87    21    19    1
    88    85    86    1
    89    22    20    1
    90    23    24    1
    91    36    35   ar
    92    28    30   ar
    93    28    27    1
    94    30    33   ar
    95    83    84    2
    96    24    27    1
    97    24    25    1
    98    20    19    1
    99    19    16    1
   100    35    33   ar
   101    25    26    2
   102    16    17    1
   103    16    15    1
   104    17    18    2
   105    15     9   am
   106    10     9    2
   107     9     8    1
   108     8    11    1
   109     8     7    1
   110    11    12    1
   111    12    14   ar
   112    12    13   ar
