@<TRIPOS>MOLECULE
tmp/5qaoD00.pdb
 126 122 0 0 0
SMALL
GASTEIGER

@<TRIPOS>ATOM
      1  N        120.9330  245.2510   40.1500 N.3    77  ASP77      -0.1225
      2  CA       119.5550  244.7780   40.0650 C.3    77  ASP77       0.1805
      3  C        119.3740  243.3570   40.5770 C.2    77  ASP77       0.2597
      4  O        118.2280  242.9200   40.7330 O.2    77  ASP77      -0.2718
      5  CB       119.0670  244.8530   38.6170 C.3    77  ASP77       0.1424
      6  CG       119.0900  246.2640   38.0650 C.2    77  ASP77       0.3668
      7  OD1      119.3940  247.2010   38.8340 O.co2  77  ASP77      -0.2456
      8  OD2      118.8050  246.4360   36.8610 O.co2  77  ASP77      -0.2456
      9  N        120.4540  242.6330   40.8490 N.am   78  ILE78      -0.1980
     10  CA       120.3820  241.2780   41.3830 C.3    78  ILE78       0.1595
     11  C        120.8450  241.3410   42.8310 C.2    78  ILE78       0.2287
     12  O        122.0300  241.5650   43.1080 O.2    78  ILE78      -0.2864
     13  CB       121.2160  240.2920   40.5540 C.3    78  ILE78       0.0276
     14  CG1      120.6300  240.1920   39.1430 C.3    78  ILE78       0.0022
     15  CG2      121.2460  238.9180   41.2170 C.3    78  ILE78       0.0022
     16  CD1      121.5320  239.5260   38.1470 C.3    78  ILE78       0.0001
     17  N        121.4320  239.2690   45.2310 N.3    80  THR80      -0.1203
     18  CA       122.4960  238.3920   45.7110 C.3    80  THR80       0.1994
     19  C        123.8810  238.8910   45.3190 C.2    80  THR80       0.2617
     20  O        124.8740  238.4530   45.9120 O.2    80  THR80      -0.2717
     21  CB       122.2950  236.9710   45.1800 C.3    80  THR80       0.1784
     22  OG1      122.2490  236.9910   43.7460 O.3    80  THR80      -0.2211
     23  CG2      121.0090  236.3670   45.7300 C.3    80  THR80       0.0376
     24  N        123.9730  239.7980   44.3450 N.am   81  TRP81      -0.1975
     25  CA       125.2540  240.3910   43.9790 C.3    81  TRP81       0.1640
     26  C        125.7010  241.4720   44.9540 C.2    81  TRP81       0.2290
     27  O        126.8920  241.8030   44.9870 O.2    81  TRP81      -0.2864
     28  CB       125.1760  240.9990   42.5780 C.3    81  TRP81       0.0576
     29  CG       125.0340  240.0090   41.4610 C.ar   81  TRP81       0.0006
     30  CD1      124.8420  238.6620   41.5670 C.ar   81  TRP81       0.0946
     31  CD2      125.0720  240.3000   40.0590 C.ar   81  TRP81       0.0152
     32  NE1      124.7580  238.0960   40.3140 N.ar   81  TRP81      -0.2442
     33  CE2      124.8960  239.0820   39.3730 C.ar   81  TRP81       0.0810
     34  CE3      125.2360  241.4750   39.3180 C.ar   81  TRP81       0.0012
     35  CZ2      124.8830  239.0050   37.9810 C.ar   81  TRP81       0.0191
     36  CZ3      125.2220  241.3960   37.9370 C.ar   81  TRP81       0.0001
     37  CH2      125.0460  240.1710   37.2830 C.ar   81  TRP81       0.0015
     38  N        128.0250  230.3070   42.5110 N.3    92  LYS92      -0.1231
     39  CA       126.6480  229.9050   42.7800 C.3    92  LYS92       0.1693
     40  C        125.6600  230.9660   42.3170 C.2    92  LYS92       0.2592
     41  O        124.6330  230.6460   41.7050 O.2    92  LYS92      -0.2718
     42  CB       126.4840  229.6310   44.2760 C.3    92  LYS92       0.0285
     43  CG       125.0810  229.2500   44.7240 C.3    92  LYS92       0.0035
     44  CD       125.0500  229.0420   46.2370 C.3    92  LYS92       0.0206
     45  CE       123.6640  228.6970   46.7450 C.3    92  LYS92       0.1093
     46  NZ       123.6620  228.5300   48.2270 N.3    92  LYS92      -0.1314
     47  N        125.9470  232.2330   42.6030 N.am   93  TYR93      -0.1962
     48  CA       125.0590  233.3270   42.2420 C.3    93  TYR93       0.1771
     49  C        125.5140  234.0440   40.9770 C.2    93  TYR93       0.2620
     50  O        124.9650  235.0990   40.6410 O.2    93  TYR93      -0.2715
     51  CB       124.9500  234.3060   43.4100 C.3    93  TYR93       0.0574
     52  CG       124.3690  233.6550   44.6440 C.ar   93  TYR93      -0.0198
     53  CD1      123.0320  233.2820   44.6900 C.ar   93  TYR93      -0.0009
     54  CD2      125.1620  233.3880   45.7510 C.ar   93  TYR93      -0.0009
     55  CE1      122.4970  232.6730   45.8090 C.ar   93  TYR93       0.0417
     56  CE2      124.6360  232.7800   46.8760 C.ar   93  TYR93       0.0417
     57  CZ       123.3040  232.4240   46.9000 C.ar   93  TYR93       0.1957
     58  OH       122.7760  231.8190   48.0180 O.3    93  TYR93      -0.2866
     59  N        126.4920  233.4860   40.2660 N.am   94  SER94      -0.1950
     60  CA       126.9350  234.0050   38.9760 C.3    94  SER94       0.1924
     61  C        127.1890  235.5100   39.0570 C.2    94  SER94       0.2314
     62  O        126.6160  236.3120   38.3170 O.2    94  SER94      -0.2863
     63  CB       125.9090  233.6670   37.8910 C.3    94  SER94       0.2116
     64  OG       126.5140  233.6100   36.6140 O.3    94  SER94      -0.2180
     65  N        127.5400  224.7210   35.3950 N.3   184  LYS184     -0.1231
     66  CA       127.4670  226.1740   35.4500 C.3   184  LYS184      0.1693
     67  C        126.4100  226.6430   34.4640 C.2   184  LYS184      0.2592
     68  O        126.3910  226.1960   33.3130 O.2   184  LYS184     -0.2718
     69  CB       128.8200  226.8160   35.1220 C.3   184  LYS184      0.0285
     70  CG       128.8220  228.3380   35.2110 C.3   184  LYS184      0.0035
     71  CD       128.7340  228.8160   36.6560 C.3   184  LYS184      0.0206
     72  CE       128.3210  230.2790   36.7420 C.3   184  LYS184      0.1093
     73  NZ       126.8630  230.4740   36.5110 N.3   184  LYS184     -0.1314
     74  N        125.5390  227.5390   34.9180 N.am  185  THR185     -0.1953
     75  CA       124.5340  228.1360   34.0530 C.3   185  THR185      0.1897
     76  C        125.1060  229.3360   33.3040 C.2   185  THR185      0.2313
     77  O        126.1180  229.9270   33.6940 O.2   185  THR185     -0.2863
     78  CB       123.3210  228.5940   34.8600 C.3   185  THR185      0.1794
     79  OG1      123.7470  229.5230   35.8650 O.3   185  THR185     -0.2208
     80  CG2      122.6260  227.4140   35.5140 C.3   185  THR185      0.0378
     81  N        123.5670  232.8590   30.7710 N.3   187  TYR187     -0.1241
     82  CA       122.4470  233.6360   30.2470 C.3   187  TYR187      0.1605
     83  C        123.0380  234.7770   29.4320 C.2   187  TYR187      0.2264
     84  O        123.6110  235.7120   29.9990 O.2   187  TYR187     -0.2867
     85  CB       121.5640  234.1660   31.3800 C.3   187  TYR187      0.0534
     86  CG       120.2970  234.8840   30.9490 C.ar  187  TYR187     -0.0201
     87  CD1      119.7080  234.6400   29.7140 C.ar  187  TYR187     -0.0009
     88  CD2      119.6870  235.8070   31.7920 C.ar  187  TYR187     -0.0009
     89  CE1      118.5460  235.2960   29.3330 C.ar  187  TYR187      0.0417
     90  CE2      118.5310  236.4660   31.4190 C.ar  187  TYR187      0.0417
     91  CZ       117.9630  236.2070   30.1920 C.ar  187  TYR187      0.1957
     92  OH       116.8120  236.8660   29.8220 O.3   187  TYR187     -0.2866
     93  N        113.5620  236.2480   30.6460 N.3   220  SER220     -0.1217
     94  CA       114.1030  235.5650   31.8160 C.3   220  SER220      0.1889
     95  C        113.1240  234.5750   32.4340 C.2   220  SER220      0.2288
     96  O        113.5280  233.7960   33.3040 O.2   220  SER220     -0.2866
     97  CB       114.5240  236.5930   32.8680 C.3   220  SER220      0.2089
     98  OG       113.4240  237.3930   33.2650 O.3   220  SER220     -0.2183
     99  N        114.2460  230.7260   32.3590 N.3   223  LEU223     -0.1245
    100  CA       115.5890  230.3230   32.7640 C.3   223  LEU223      0.1561
    101  C        115.5840  228.9500   33.4240 C.2   223  LEU223      0.2260
    102  O        116.5170  228.1620   33.2360 O.2   223  LEU223     -0.2867
    103  CB       116.1890  231.3710   33.7030 C.3   223  LEU223      0.0270
    104  CG       116.6800  232.6580   33.0320 C.3   223  LEU223      0.0019
    105  CD1      117.0810  233.6910   34.0760 C.3   223  LEU223      0.0001
    106  CD2      117.8480  232.3770   32.0930 C.3   223  LEU223      0.0001
    107  N        116.4160  225.6390   31.4370 N.3   226  ARG226     -0.1231
    108  CA       117.7600  225.1430   31.1650 C.3   226  ARG226      0.1694
    109  C        118.0160  223.8430   31.9150 C.2   226  ARG226      0.2591
    110  O        118.4270  222.8380   31.3230 O.2   226  ARG226     -0.2718
    111  CB       118.7930  226.2010   31.5490 C.3   226  ARG226      0.0321
    112  CG       118.6720  227.4980   30.7630 C.3   226  ARG226      0.0489
    113  CD       119.5720  228.5720   31.3410 C.3   226  ARG226      0.2205
    114  NE       119.1880  228.9000   32.7090 N.pl3 226  ARG226     -0.0865
    115  CZ       119.8070  229.7940   33.4710 C.cat 226  ARG226      0.5346
    116  NH1      119.3740  230.0160   34.7020 N.pl3 226  ARG226      0.1354
    117  NH2      120.8540  230.4640   33.0080 N.pl3 226  ARG226      0.1354
    118  N        117.7650  223.8410   33.2250 N.am  227  GLN227     -0.1979
    119  CA       117.9590  222.6330   34.0170 C.3   227  GLN227      0.1601
    120  C        116.8160  221.6440   33.8210 C.2   227  GLN227      0.2287
    121  O        117.0480  220.4320   33.7530 O.2   227  GLN227     -0.2864
    122  CB       118.0900  222.9880   35.5010 C.3   227  GLN227      0.0394
    123  CG       119.2710  223.8820   35.8410 C.3   227  GLN227      0.0908
    124  CD       118.8960  225.3490   35.9030 C.2   227  GLN227      0.2608
    125  OE1      117.9660  225.7970   35.2300 O.2   227  GLN227     -0.2717
    126  NE2      119.6130  226.1060   36.7260 N.am  227  GLN227     -0.0878
@<TRIPOS>BOND
     1    89    87   ar
     2    89    91   ar
     3    83    84    2
     4    83    82    1
     5    87    86   ar
     6    92    91    1
     7    91    90   ar
     8    82    81    1
     9    82    85    1
    10    93    94    1
    11   112   113    1
    12   112   111    1
    13    86    85    1
    14    86    88   ar
    15   108   107    1
    16   108   111    1
    17   108   109    1
    18   110   109    2
    19   113   114    1
    20    90    88   ar
    21    94    95    1
    22    94    97    1
    23   109   118   am
    24   106   104    1
    25    99   100    1
    26    95    96    2
    27   114   115    2
    28   100   101    1
    29   100   103    1
    30    97    98    1
    31   117   115    1
    32   104   103    1
    33   104   105    1
    34   118   119    1
    35   102   101    2
    36    76    77    2
    37    76    75    1
    38    68    67    2
    39   115   116    1
    40   121   120    2
    41   120   119    1
    42   119   122    1
    43    75    78    1
    44    75    74    1
    45    67    74   am
    46    67    66    1
    47    78    80    1
    48    78    79    1
    49    69    70    1
    50    69    66    1
    51    70    71    1
    52   125   124    2
    53    65    66    1
    54   122   123    1
    55   123   124    1
    56   124   126   am
    57    73    72    1
    58    64    63    1
    59    71    72    1
    60     8     6   ar
    61    37    36   ar
    62    37    35   ar
    63    63    60    1
    64    36    34   ar
    65    35    33   ar
    66     6     5    1
    67     6     7   ar
    68    16    14    1
    69    62    61    2
    70     5     2    1
    71    60    61    1
    72    60    59    1
    73    14    13    1
    74    34    31   ar
    75    33    31   ar
    76    33    32   ar
    77    31    29   ar
    78     2     1    1
    79     2     3    1
    80    59    49   am
    81    32    30   ar
    82    13    15    1
    83    13    10    1
    84     3     4    2
    85     3     9   am
    86    50    49    2
    87     9    10    1
    88    49    48    1
    89    10    11    1
    90    29    30   ar
    91    29    28    1
    92    41    40    2
    93    48    47    1
    94    48    51    1
    95    40    47   am
    96    40    39    1
    97    38    39    1
    98    28    25    1
    99    39    42    1
   100    11    12    2
   101    51    52    1
   102    22    21    1
   103    25    24    1
   104    25    26    1
   105    42    43    1
   106    24    19   am
   107    52    53   ar
   108    52    54   ar
   109    53    55   ar
   110    43    44    1
   111    26    27    2
   112    21    18    1
   113    21    23    1
   114    17    18    1
   115    19    18    1
   116    19    20    2
   117    54    56   ar
   118    55    57   ar
   119    44    45    1
   120    45    46    1
   121    56    57   ar
   122    57    58    1
