@<TRIPOS>MOLECULE
tmp/5qapB00.pdb
 109 102 0 0 0
SMALL
GASTEIGER

@<TRIPOS>ATOM
      1  N         88.8320  229.4640   -2.0600 N.3    47  SER47      -0.1217
      2  CA        88.5460  228.9110   -3.3850 C.3    47  SER47       0.1889
      3  C         88.2960  227.3990   -3.3860 C.2    47  SER47       0.2288
      4  O         87.8720  226.8780   -4.4160 O.2    47  SER47      -0.2866
      5  CB        89.6810  229.2390   -4.3540 C.3    47  SER47       0.2089
      6  OG        89.7960  230.6410   -4.5120 O.3    47  SER47      -0.2183
      7  N         95.2280  239.9090  -11.2930 N.3    78  ILE78      -0.1245
      8  CA        95.6120  238.5600  -11.7010 C.3    78  ILE78       0.1561
      9  C         95.4020  238.4750  -13.2130 C.2    78  ILE78       0.2260
     10  O         94.2640  238.4650  -13.6900 O.2    78  ILE78      -0.2867
     11  CB        94.8030  237.4890  -10.9590 C.3    78  ILE78       0.0252
     12  CG1       94.9160  237.6640   -9.4360 C.3    78  ILE78       0.0019
     13  CG2       95.2560  236.0920  -11.3800 C.3    78  ILE78       0.0019
     14  CD1       96.3110  237.5010   -8.8960 C.3    78  ILE78       0.0001
     15  N         92.8180  236.3220  -14.9630 N.3    81  TRP81      -0.1241
     16  CA        91.4050  236.6320  -14.7750 C.3    81  TRP81       0.1605
     17  C         90.8650  237.5780  -15.8360 C.2    81  TRP81       0.2264
     18  O         89.6420  237.6590  -16.0060 O.2    81  TRP81      -0.2867
     19  CB        91.1720  237.2460  -13.3940 C.3    81  TRP81       0.0550
     20  CG        91.4130  236.2940  -12.2470 C.ar   81  TRP81       0.0003
     21  CD1       91.9180  235.0140  -12.3010 C.ar   81  TRP81       0.0946
     22  CD2       91.1490  236.5620  -10.8670 C.ar   81  TRP81       0.0152
     23  NE1       91.9860  234.4810  -11.0280 N.ar   81  TRP81      -0.2442
     24  CE2       91.5130  235.4080  -10.1350 C.ar   81  TRP81       0.0810
     25  CE3       90.6390  237.6700  -10.1830 C.ar   81  TRP81       0.0012
     26  CZ2       91.3810  235.3330   -8.7440 C.ar   81  TRP81       0.0191
     27  CZ3       90.5100  237.5960   -8.8000 C.ar   81  TRP81       0.0001
     28  CH2       90.8750  236.4330   -8.1000 C.ar   81  TRP81       0.0015
     29  N         91.3190  229.6310  -10.6740 N.3    94  SER94      -0.1217
     30  CA        90.6090  230.0930   -9.4870 C.3    94  SER94       0.1889
     31  C         90.0530  231.5000   -9.6970 C.2    94  SER94       0.2288
     32  O         90.3120  232.4350   -8.9340 O.2    94  SER94      -0.2866
     33  CB        91.5150  230.0340   -8.2610 C.3    94  SER94       0.2089
     34  OG        90.7210  229.8100   -7.1240 O.3    94  SER94      -0.2183
     35  N         87.8750  234.0630   -9.2330 N.3    96  VAL96      -0.1245
     36  CA        86.8400  234.5110   -8.2990 C.3    96  VAL96       0.1561
     37  C         85.6950  235.2510   -8.9880 C.2    96  VAL96       0.2260
     38  O         84.5320  234.9330   -8.7050 O.2    96  VAL96      -0.2867
     39  CB        87.4740  235.3420   -7.1670 C.3    96  VAL96       0.0252
     40  CG1       86.3590  235.9090   -6.2960 C.3    96  VAL96       0.0019
     41  CG2       88.4480  234.5050   -6.3380 C.3    96  VAL96       0.0019
     42  N         84.8200  233.8800    1.1730 N.3   134  LEU134     -0.1245
     43  CA        86.0530  234.6380    1.3720 C.3   134  LEU134      0.1561
     44  C         86.0640  235.4580    2.6510 C.2   134  LEU134      0.2260
     45  O         87.1270  235.6340    3.2570 O.2   134  LEU134     -0.2867
     46  CB        86.2680  235.5930    0.2000 C.3   134  LEU134      0.0270
     47  CG        86.2820  234.9350   -1.1790 C.3   134  LEU134      0.0019
     48  CD1       86.1430  235.9930   -2.2610 C.3   134  LEU134      0.0001
     49  CD2       87.5450  234.1280   -1.3730 C.3   134  LEU134      0.0001
     50  N         92.8500  223.9910   -5.0140 N.3   185  THR185     -0.1203
     51  CA        93.5700  224.8330   -4.0680 C.3   185  THR185      0.1994
     52  C         92.6600  225.9050   -3.4790 C.2   185  THR185      0.2618
     53  O         91.6300  226.2790   -4.0480 O.2   185  THR185     -0.2717
     54  CB        94.7490  225.5570   -4.7360 C.3   185  THR185      0.1784
     55  OG1       94.2630  226.3600   -5.8180 O.3   185  THR185     -0.2211
     56  CG2       95.7760  224.5720   -5.2620 C.3   185  THR185      0.0376
     57  N         93.0920  226.4360   -2.3460 N.am  186  GLY186     -0.1942
     58  CA        92.4490  227.5910   -1.7520 C.3   186  GLY186      0.2014
     59  C         93.4850  228.4830   -1.1070 C.2   186  GLY186      0.2638
     60  O         94.5620  228.0280   -0.7050 O.2   186  GLY186     -0.2714
     61  N         93.1540  229.7760   -1.0320 N.am  187  TYR187     -0.1973
     62  CA        94.0050  230.7930   -0.4180 C.3   187  TYR187      0.1639
     63  C         93.1110  231.8190    0.2730 C.2   187  TYR187      0.2290
     64  O         92.4290  232.6100   -0.3970 O.2   187  TYR187     -0.2864
     65  CB        94.8860  231.4560   -1.4810 C.3   187  TYR187      0.0560
     66  CG        95.8870  232.5070   -1.0170 C.ar  187  TYR187     -0.0198
     67  CD1       96.3950  232.5300    0.2750 C.ar  187  TYR187     -0.0009
     68  CD2       96.3350  233.4740   -1.9090 C.ar  187  TYR187     -0.0009
     69  CE1       97.3250  233.5120    0.6690 C.ar  187  TYR187      0.0417
     70  CE2       97.2350  234.4410   -1.5320 C.ar  187  TYR187      0.0417
     71  CZ        97.7360  234.4550   -0.2450 C.ar  187  TYR187      0.1957
     72  OH        98.6400  235.4340    0.0980 O.3   187  TYR187     -0.2866
     73  N         92.7990  235.0130    2.7180 N.3   189  THR189     -0.1203
     74  CA        93.5290  236.1430    3.2820 C.3   189  THR189      0.1994
     75  C         92.6610  237.1560    4.0160 C.2   189  THR189      0.2617
     76  O         93.2110  238.0240    4.7050 O.2   189  THR189     -0.2717
     77  CB        94.2640  236.9030    2.1710 C.3   189  THR189      0.1784
     78  OG1       93.2810  237.4140    1.2680 O.3   189  THR189     -0.2211
     79  CG2       95.2360  235.9960    1.4200 C.3   189  THR189      0.0376
     80  N         91.3370  237.1100    3.8760 N.am  190  ARG190     -0.1979
     81  CA        90.5290  238.2140    4.3980 C.3   190  ARG190      0.1597
     82  C         90.2390  238.0940    5.8830 C.2   190  ARG190      0.2287
     83  O         89.9230  239.1090    6.5140 O.2   190  ARG190     -0.2864
     84  CB        89.2210  238.3400    3.6210 C.3   190  ARG190      0.0334
     85  CG        89.4220  238.7410    2.1700 C.3   190  ARG190      0.0492
     86  CD        88.0910  239.0140    1.5100 C.3   190  ARG190      0.2205
     87  NE        88.2290  239.4530    0.1240 N.pl3 190  ARG190     -0.0865
     88  CZ        87.2260  239.9230   -0.6130 C.cat 190  ARG190      0.5346
     89  NH1       86.0060  240.0170   -0.0990 N.pl3 190  ARG190      0.1354
     90  NH2       87.4360  240.3000   -1.8640 N.pl3 190  ARG190      0.1354
     91  N        102.8530  229.7860   -1.3950 N.3   223  LEU223     -0.1245
     92  CA       101.7020  229.0850   -1.9440 C.3   223  LEU223      0.1561
     93  C        102.0790  227.7340   -2.5420 C.2   223  LEU223      0.2260
     94  O        101.2950  226.7830   -2.4610 O.2   223  LEU223     -0.2867
     95  CB       101.0130  229.9520   -2.9890 C.3   223  LEU223      0.0270
     96  CG       100.2060  231.1300   -2.4310 C.3   223  LEU223      0.0019
     97  CD1       99.7690  232.0400   -3.5560 C.3   223  LEU223      0.0001
     98  CD2       99.0160  230.6420   -1.6430 C.3   223  LEU223      0.0001
     99  N        101.6860  224.3080   -0.5840 N.3   226  ARG226     -0.1245
    100  CA       100.4480  223.5520   -0.4370 C.3   226  ARG226      0.1563
    101  C        100.5820  222.1900   -1.1060 C.2   226  ARG226      0.2260
    102  O        100.3210  221.1470   -0.4960 O.2   226  ARG226     -0.2867
    103  CB        99.2790  224.3390   -1.0330 C.3   226  ARG226      0.0307
    104  CG        98.9810  225.6520   -0.2960 C.3   226  ARG226      0.0489
    105  CD        97.9440  226.5050   -1.0240 C.3   226  ARG226      0.2205
    106  NE        98.3890  226.9140   -2.3550 N.pl3 226  ARG226     -0.0865
    107  CZ        97.6700  227.6570   -3.1910 C.cat 226  ARG226      0.5346
    108  NH1       98.1530  227.9700   -4.3890 N.pl3 226  ARG226      0.1354
    109  NH2       96.4620  228.0790   -2.8380 N.pl3 226  ARG226      0.1354
@<TRIPOS>BOND
     1    18    17    2
     2    17    16    1
     3    15    16    1
     4    16    19    1
     5    10     9    2
     6    19    20    1
     7     9     8    1
     8    21    20   ar
     9    21    23   ar
    10    20    22   ar
    11     8     7    1
    12     8    11    1
    13    13    11    1
    14    23    24   ar
    15    11    12    1
    16    22    25   ar
    17    22    24   ar
    18    29    30    1
    19    25    27   ar
    20    24    26   ar
    21    31    30    1
    22    31    32    2
    23    30    33    1
    24    12    14    1
    25    35    36    1
    26    37    38    2
    27    37    36    1
    28    27    28   ar
    29    26    28   ar
    30    36    39    1
    31    33    34    1
    32    39    41    1
    33    39    40    1
    34    55    54    1
    35    56    54    1
    36    50    51    1
    37    54    51    1
    38     6     5    1
    39     4     3    2
    40   108   107    1
    41     5     2    1
    42    51    52    1
    43    53    52    2
    44    97    96    1
    45    52    57   am
    46     3     2    1
    47     2     1    1
    48   107   109    1
    49   107   106    2
    50    95    96    1
    51    95    92    1
    52    93    94    2
    53    93    92    1
    54    96    98    1
    55   106   105    1
    56    57    58    1
    57    48    47    1
    58    92    91    1
    59    68    70   ar
    60    68    66   ar
    61    90    88    1
    62    58    59    1
    63    70    71   ar
    64    65    66    1
    65    65    62    1
    66    49    47    1
    67    47    46    1
    68    59    61   am
    69    59    60    2
    70   101   102    2
    71   101   100    1
    72   103   100    1
    73   103   104    1
    74    61    62    1
    75   105   104    1
    76    66    67   ar
    77    88    89    1
    78    88    87    2
    79    99   100    1
    80    62    63    1
    81    64    63    2
    82    71    72    1
    83    71    69   ar
    84    87    86    1
    85    46    43    1
    86    67    69   ar
    87    42    43    1
    88    78    77    1
    89    43    44    1
    90    79    77    1
    91    86    85    1
    92    85    84    1
    93    77    74    1
    94    44    45    2
    95    73    74    1
    96    74    75    1
    97    84    81    1
    98    80    75   am
    99    80    81    1
   100    75    76    2
   101    81    82    1
   102    82    83    2
