@<TRIPOS>MOLECULE
tmp/5qaqB00.pdb
 140 134 0 0 0
SMALL
GASTEIGER

@<TRIPOS>ATOM
      1  N         94.6980  241.8310  -10.9540 N.3    77  ASP77      -0.1225
      2  CA        96.1330  241.6440  -10.7620 C.3    77  ASP77       0.1805
      3  C         96.6190  240.2490  -11.1440 C.2    77  ASP77       0.2597
      4  O         97.8320  240.0610  -11.2840 O.2    77  ASP77      -0.2718
      5  CB        96.5330  241.9820   -9.3210 C.3    77  ASP77       0.1424
      6  CG        95.7690  241.1760   -8.2850 C.2    77  ASP77       0.3668
      7  OD1       94.8970  240.3680   -8.6680 O.co2  77  ASP77      -0.2456
      8  OD2       96.0400  241.3560   -7.0770 O.co2  77  ASP77      -0.2456
      9  N         95.7280  239.2740  -11.3100 N.am   78  ILE78      -0.1980
     10  CA        96.1090  237.9260  -11.7230 C.3    78  ILE78       0.1595
     11  C         95.9310  237.8600  -13.2330 C.2    78  ILE78       0.2287
     12  O         94.8020  237.8290  -13.7340 O.2    78  ILE78      -0.2864
     13  CB        95.2770  236.8480  -11.0160 C.3    78  ILE78       0.0276
     14  CG1       95.2640  237.0770   -9.5010 C.3    78  ILE78       0.0022
     15  CG2       95.8110  235.4580  -11.3560 C.3    78  ILE78       0.0022
     16  CD1       96.6350  237.0840   -8.8580 C.3    78  ILE78       0.0001
     17  N         95.9930  235.7220  -15.4550 N.3    80  THR80      -0.1203
     18  CA        95.2460  234.6530  -16.1020 C.3    80  THR80       0.1994
     19  C         93.7540  234.7790  -15.8460 C.2    80  THR80       0.2617
     20  O         92.9650  234.0860  -16.5000 O.2    80  THR80      -0.2717
     21  CB        95.7160  233.2700  -15.6320 C.3    80  THR80       0.1784
     22  OG1       95.7080  233.2100  -14.2010 O.3    80  THR80      -0.2211
     23  CG2       97.1210  232.9590  -16.1400 C.3    80  THR80       0.0376
     24  N         93.3550  235.6310  -14.9010 N.am   81  TRP81      -0.1975
     25  CA        91.9460  235.9480  -14.7130 C.3    81  TRP81       0.1640
     26  C         91.4040  236.8940  -15.7700 C.2    81  TRP81       0.2290
     27  O         90.1820  236.9880  -15.9250 O.2    81  TRP81      -0.2864
     28  CB        91.7200  236.5800  -13.3380 C.3    81  TRP81       0.0576
     29  CG        91.9730  235.6680  -12.1890 C.ar   81  TRP81       0.0006
     30  CD1       92.4830  234.4040  -12.2300 C.ar   81  TRP81       0.0946
     31  CD2       91.6870  235.9420  -10.8170 C.ar   81  TRP81       0.0152
     32  NE1       92.5460  233.8780  -10.9620 N.ar   81  TRP81      -0.2442
     33  CE2       92.0600  234.8040  -10.0760 C.ar   81  TRP81       0.0810
     34  CE3       91.1540  237.0450  -10.1410 C.ar   81  TRP81       0.0012
     35  CZ2       91.9200  234.7370   -8.6920 C.ar   81  TRP81       0.0191
     36  CZ3       91.0170  236.9780   -8.7710 C.ar   81  TRP81       0.0001
     37  CH2       91.3960  235.8310   -8.0590 C.ar   81  TRP81       0.0015
     38  N         91.3850  225.5070  -13.0820 N.3    92  LYS92      -0.1231
     39  CA        92.8410  225.4550  -13.1690 C.3    92  LYS92       0.1693
     40  C         93.4760  226.7300  -12.6300 C.2    92  LYS92       0.2592
     41  O         94.4560  226.6770  -11.8790 O.2    92  LYS92      -0.2718
     42  CB        93.2550  225.2250  -14.6220 C.3    92  LYS92       0.0285
     43  CG        94.7520  225.1720  -14.8500 C.3    92  LYS92       0.0035
     44  CD        95.0580  224.9470  -16.3150 C.3    92  LYS92       0.0206
     45  CE        96.5490  224.9710  -16.5830 C.3    92  LYS92       0.1093
     46  NZ        96.8430  224.7310  -18.0200 N.3    92  LYS92      -0.1314
     47  N         92.9420  227.8830  -13.0130 N.am   93  TYR93      -0.1962
     48  CA        93.4960  229.1640  -12.6090 C.3    93  TYR93       0.1771
     49  C         92.7420  229.7770  -11.4380 C.2    93  TYR93       0.2620
     50  O         92.9700  230.9460  -11.1140 O.2    93  TYR93      -0.2715
     51  CB        93.5250  230.1100  -13.8090 C.3    93  TYR93       0.0574
     52  CG        94.4370  229.5920  -14.8990 C.ar   93  TYR93      -0.0198
     53  CD1       95.8140  229.6580  -14.7520 C.ar   93  TYR93      -0.0009
     54  CD2       93.9290  229.0090  -16.0530 C.ar   93  TYR93      -0.0009
     55  CE1       96.6620  229.1760  -15.7230 C.ar   93  TYR93       0.0417
     56  CE2       94.7760  228.5220  -17.0370 C.ar   93  TYR93       0.0417
     57  CZ        96.1430  228.6090  -16.8630 C.ar   93  TYR93       0.1957
     58  OH        97.0020  228.1320  -17.8240 O.3    93  TYR93      -0.2866
     59  N         91.8530  229.0150  -10.8040 N.am   94  SER94      -0.1950
     60  CA        91.1840  229.4240   -9.5740 C.3    94  SER94       0.1924
     61  C         90.6300  230.8410   -9.7170 C.2    94  SER94       0.2314
     62  O         90.9470  231.7550   -8.9540 O.2    94  SER94      -0.2863
     63  CB        92.1450  229.3110   -8.3870 C.3    94  SER94       0.2116
     64  OG        91.4420  229.2200   -7.1630 O.3    94  SER94      -0.2180
     65  N         88.4610  233.4440   -9.2320 N.3    96  VAL96      -0.1245
     66  CA        87.4270  233.8580   -8.2820 C.3    96  VAL96       0.1561
     67  C         86.2700  234.5790   -8.9670 C.2    96  VAL96       0.2260
     68  O         85.1110  234.2390   -8.6890 O.2    96  VAL96      -0.2867
     69  CB        88.0560  234.6900   -7.1520 C.3    96  VAL96       0.0252
     70  CG1       86.9800  235.2590   -6.2260 C.3    96  VAL96       0.0019
     71  CG2       89.0560  233.8540   -6.3600 C.3    96  VAL96       0.0019
     72  N         92.1430  220.2420   -5.7730 N.3   184  LYS184     -0.1231
     73  CA        91.9160  221.6780   -5.8610 C.3   184  LYS184      0.1693
     74  C         92.7060  222.3660   -4.7600 C.2   184  LYS184      0.2592
     75  O         92.6820  221.9260   -3.6050 O.2   184  LYS184     -0.2718
     76  CB        90.4270  222.0210   -5.7240 C.3   184  LYS184      0.0285
     77  CG        90.1060  223.5120   -5.8370 C.3   184  LYS184      0.0035
     78  CD        90.2720  224.0230   -7.2640 C.3   184  LYS184      0.0206
     79  CE        90.3240  225.5460   -7.3220 C.3   184  LYS184      0.1093
     80  NZ        91.6670  226.0870   -6.9760 N.3   184  LYS184     -0.1314
     81  N         93.3990  223.4400   -5.1180 N.am  185  THR185     -0.1953
     82  CA        94.1360  224.2470   -4.1590 C.3   185  THR185      0.1897
     83  C         93.2210  225.2880   -3.5200 C.2   185  THR185      0.2313
     84  O         92.1380  225.5960   -4.0230 O.2   185  THR185     -0.2863
     85  CB        95.3120  224.9580   -4.8270 C.3   185  THR185      0.1794
     86  OG1       94.8220  225.7930   -5.8820 O.3   185  THR185     -0.2208
     87  CG2       96.3110  223.9600   -5.3850 C.3   185  THR185      0.0378
     88  N         93.6020  229.1410   -1.0630 N.3   187  TYR187     -0.1241
     89  CA        94.4480  230.1820   -0.4810 C.3   187  TYR187      0.1605
     90  C         93.5340  231.1670    0.2370 C.2   187  TYR187      0.2264
     91  O         92.7940  231.9140   -0.4100 O.2   187  TYR187     -0.2867
     92  CB        95.2810  230.8800   -1.5570 C.3   187  TYR187      0.0534
     93  CG        96.3280  231.8530   -1.0420 C.ar  187  TYR187     -0.0201
     94  CD1       96.8010  231.7850    0.2630 C.ar  187  TYR187     -0.0009
     95  CD2       96.8520  232.8330   -1.8750 C.ar  187  TYR187     -0.0009
     96  CE1       97.7630  232.6700    0.7240 C.ar  187  TYR187      0.0417
     97  CE2       97.8100  233.7200   -1.4240 C.ar  187  TYR187      0.0417
     98  CZ        98.2620  233.6340   -0.1240 C.ar  187  TYR187      0.1957
     99  OH        99.2180  234.5190    0.3230 O.3   187  TYR187     -0.2866
    100  N         93.1810  234.3240    2.7900 N.3   189  THR189     -0.1218
    101  CA        93.9240  235.4520    3.3360 C.3   189  THR189      0.1862
    102  C         93.0760  236.4750    4.0810 C.2   189  THR189      0.2287
    103  O         93.6390  237.2580    4.8530 O.2   189  THR189     -0.2866
    104  CB        94.6760  236.2020    2.2250 C.3   189  THR189      0.1770
    105  OG1       93.7410  236.6990    1.2590 O.3   189  THR189     -0.2211
    106  CG2       95.6860  235.3000    1.5450 C.3   189  THR189      0.0375
    107  N        102.4210  234.6670    0.1160 N.3   220  SER220     -0.1217
    108  CA       102.2210  233.8140   -1.0470 C.3   220  SER220      0.1889
    109  C        103.5050  233.1310   -1.4930 C.2   220  SER220      0.2288
    110  O        103.4480  232.2420   -2.3500 O.2   220  SER220     -0.2866
    111  CB       101.6500  234.6380   -2.2010 C.3   220  SER220      0.2089
    112  OG       102.5260  235.6980   -2.5390 O.3   220  SER220     -0.2183
    113  N        103.4810  229.2060   -1.4500 N.3   223  LEU223     -0.1245
    114  CA       102.3130  228.5200   -1.9950 C.3   223  LEU223      0.1561
    115  C        102.6810  227.1670   -2.5900 C.2   223  LEU223      0.2260
    116  O        101.9040  226.2080   -2.4990 O.2   223  LEU223     -0.2867
    117  CB       101.6270  229.3940   -3.0430 C.3   223  LEU223      0.0270
    118  CG       100.7730  230.5390   -2.4970 C.3   223  LEU223      0.0019
    119  CD1      100.2490  231.3910   -3.6390 C.3   223  LEU223      0.0001
    120  CD2       99.6170  230.0080   -1.6560 C.3   223  LEU223      0.0001
    121  N        102.2390  223.7220   -0.6200 N.3   226  ARG226     -0.1231
    122  CA       101.0030  222.9590   -0.4960 C.3   226  ARG226      0.1694
    123  C        101.1210  221.6140   -1.2040 C.2   226  ARG226      0.2591
    124  O        100.8060  220.5640   -0.6330 O.2   226  ARG226     -0.2718
    125  CB        99.8390  223.7650   -1.0680 C.3   226  ARG226      0.0321
    126  CG        99.5590  225.0420   -0.3070 C.3   226  ARG226      0.0489
    127  CD        98.5490  225.8980   -1.0370 C.3   226  ARG226      0.2205
    128  NE        99.0180  226.3130   -2.3560 N.pl3 226  ARG226     -0.0865
    129  CZ        98.2970  227.0410   -3.2020 C.cat 226  ARG226      0.5346
    130  NH1       98.7950  227.3790   -4.3820 N.pl3 226  ARG226      0.1354
    131  NH2       97.0720  227.4260   -2.8700 N.pl3 226  ARG226      0.1354
    132  N        101.5750  221.6320   -2.4560 N.am  227  GLN227     -0.1979
    133  CA       101.7190  220.3970   -3.2150 C.3   227  GLN227      0.1601
    134  C        102.9950  219.6520   -2.8440 C.2   227  GLN227      0.2287
    135  O        103.0030  218.4160   -2.8020 O.2   227  GLN227     -0.2864
    136  CB       101.6920  220.6960   -4.7150 C.3   227  GLN227      0.0394
    137  CG       100.3930  221.3240   -5.2090 C.3   227  GLN227      0.0908
    138  CD       100.4620  222.8330   -5.3230 C.2   227  GLN227      0.2608
    139  OE1      101.2090  223.4910   -4.5990 O.2   227  GLN227     -0.2717
    140  NE2       99.6850  223.3900   -6.2470 N.am  227  GLN227     -0.0878
@<TRIPOS>BOND
     1    46    45    1
     2    58    57    1
     3    56    57   ar
     4    56    54   ar
     5    57    55   ar
     6    45    44    1
     7    20    19    2
     8    44    43    1
     9    23    21    1
    10    18    19    1
    11    18    21    1
    12    18    17    1
    13    54    52   ar
    14    27    26    2
    15    19    24   am
    16    26    25    1
    17    55    53   ar
    18    21    22    1
    19    24    25    1
    20    52    53   ar
    21    52    51    1
    22    43    42    1
    23    25    28    1
    24    42    39    1
    25    51    48    1
    26    12    11    2
    27    28    29    1
    28    11    10    1
    29    39    38    1
    30    39    40    1
    31    47    40   am
    32    47    48    1
    33    40    41    2
    34    48    49    1
    35    30    29   ar
    36    30    32   ar
    37    29    31   ar
    38    10     9    1
    39    10    13    1
    40    49    50    2
    41    49    59   am
    42    15    13    1
    43     9     3   am
    44     4     3    2
    45     3     2    1
    46    13    14    1
    47    32    33   ar
    48     1     2    1
    49    31    34   ar
    50    31    33   ar
    51    59    60    1
    52     2     5    1
    53    34    36   ar
    54    33    35   ar
    55    61    60    1
    56    61    62    2
    57    60    63    1
    58    14    16    1
    59     5     6    1
    60    65    66    1
    61    67    68    2
    62    67    66    1
    63    36    37   ar
    64    35    37   ar
    65     7     6   ar
    66    63    64    1
    67     6     8   ar
    68    66    69    1
    69    79    78    1
    70    79    80    1
    71    78    77    1
    72    69    71    1
    73    69    70    1
    74   140   138   am
    75    86    85    1
    76    73    72    1
    77    73    76    1
    78    73    74    1
    79    77    76    1
    80    87    85    1
    81   138   137    1
    82   138   139    2
    83   137   136    1
    84    81    74   am
    85    81    82    1
    86    85    82    1
    87    74    75    2
    88   136   133    1
    89   130   129    1
    90    82    83    1
    91    84    83    2
    92   119   118    1
    93   133   134    1
    94   133   132    1
    95   129   131    1
    96   129   128    2
    97   117   118    1
    98   117   114    1
    99   134   135    2
   100   115   116    2
   101   115   114    1
   102   112   111    1
   103   118   120    1
   104   132   123   am
   105   128   127    1
   106   110   109    2
   107   111   108    1
   108   114   113    1
   109    95    97   ar
   110    95    93   ar
   111    92    93    1
   112    92    89    1
   113   109   108    1
   114    97    98   ar
   115   123   124    2
   116   123   122    1
   117   125   122    1
   118   125   126    1
   119    88    89    1
   120   108   107    1
   121    93    94   ar
   122   127   126    1
   123   121   122    1
   124    89    90    1
   125    91    90    2
   126    98    99    1
   127    98    96   ar
   128    94    96   ar
   129   105   104    1
   130   106   104    1
   131   104   101    1
   132   100   101    1
   133   101   102    1
   134   102   103    2
