@<TRIPOS>MOLECULE
tmp/5qarA00.pdb
 110 103 0 0 0
SMALL
GASTEIGER

@<TRIPOS>ATOM
      1  N         89.6440  252.7460    2.1410 N.3    47  SER47      -0.1217
      2  CA        89.3500  253.2580    3.4770 C.3    47  SER47       0.1889
      3  C         89.0930  254.7620    3.5170 C.2    47  SER47       0.2288
      4  O         88.7070  255.2680    4.5780 O.2    47  SER47      -0.2866
      5  CB        90.4790  252.8940    4.4530 C.3    47  SER47       0.2089
      6  OG        90.5480  251.4880    4.6350 O.3    47  SER47      -0.2183
      7  N         94.9010  239.8100   10.7840 N.3    77  ASP77      -0.1225
      8  CA        96.3400  239.9930   10.6200 C.3    77  ASP77       0.1805
      9  C         96.8100  241.4030   10.9570 C.2    77  ASP77       0.2598
     10  O         98.0220  241.6190   11.0670 O.2    77  ASP77      -0.2718
     11  CB        96.7820  239.6130    9.2070 C.3    77  ASP77       0.1424
     12  CG        96.1650  240.4660    8.1460 C.2    77  ASP77       0.3668
     13  OD1       95.2450  241.2510    8.4450 O.co2  77  ASP77      -0.2456
     14  OD2       96.6190  240.3390    6.9950 O.co2  77  ASP77      -0.2456
     15  N         95.9060  242.3640   11.1010 N.am   78  ILE78      -0.1966
     16  CA        96.2770  243.7040   11.5460 C.3    78  ILE78       0.1727
     17  C         96.0910  243.7370   13.0600 C.2    78  ILE78       0.2616
     18  O         94.9610  243.7620   13.5540 O.2    78  ILE78      -0.2715
     19  CB        95.4360  244.7860   10.8590 C.3    78  ILE78       0.0290
     20  CG1       95.3540  244.5440    9.3510 C.3    78  ILE78       0.0022
     21  CG2       96.0190  246.1740   11.1640 C.3    78  ILE78       0.0023
     22  CD1       96.6720  244.5730    8.6370 C.3    78  ILE78       0.0001
     23  N         97.2070  243.7480   13.7980 N.am   79  ALA79      -0.1977
     24  CA        97.1530  243.6330   15.2540 C.3    79  ALA79       0.1597
     25  C         96.2310  244.6790   15.8730 C.2    79  ALA79       0.2287
     26  O         95.4280  244.3640   16.7600 O.2    79  ALA79      -0.2864
     27  CB        98.5600  243.7590   15.8380 C.3    79  ALA79       0.0319
     28  N         93.6290  245.9100   14.8640 N.3    81  TRP81      -0.1241
     29  CA        92.2210  245.5960   14.6710 C.3    81  TRP81       0.1605
     30  C         91.6710  244.6560   15.7400 C.2    81  TRP81       0.2264
     31  O         90.4460  244.5690   15.8950 O.2    81  TRP81      -0.2867
     32  CB        92.0090  244.9740   13.2860 C.3    81  TRP81       0.0550
     33  CG        92.2330  245.9410   12.1270 C.ar   81  TRP81       0.0003
     34  CD1       92.7100  247.2240   12.2000 C.ar   81  TRP81       0.0946
     35  CD2       91.9990  245.6800   10.7360 C.ar   81  TRP81       0.0152
     36  NE1       92.7810  247.7750   10.9320 N.ar   81  TRP81      -0.2442
     37  CE2       92.3440  246.8470   10.0220 C.ar   81  TRP81       0.0810
     38  CE3       91.5220  244.5740   10.0270 C.ar   81  TRP81       0.0012
     39  CZ2       92.2270  246.9340    8.6360 C.ar   81  TRP81       0.0191
     40  CZ3       91.4010  244.6660    8.6540 C.ar   81  TRP81       0.0001
     41  CH2       91.7590  245.8370    7.9730 C.ar   81  TRP81       0.0015
     42  N         92.0750  252.5610   10.5840 N.3    94  SER94      -0.1217
     43  CA        91.3550  252.0480    9.4180 C.3    94  SER94       0.1889
     44  C         90.7960  250.6520    9.6850 C.2    94  SER94       0.2288
     45  O         91.0420  249.6990    8.9450 O.2    94  SER94      -0.2866
     46  CB        92.2520  252.0370    8.1730 C.3    94  SER94       0.2089
     47  OG        92.7060  253.3290    7.8460 O.3    94  SER94      -0.2183
     48  N         88.6180  248.1270    9.2420 N.3    96  VAL96      -0.1245
     49  CA        87.5820  247.7060    8.2990 C.3    96  VAL96       0.1561
     50  C         86.4380  246.9740    9.0000 C.2    96  VAL96       0.2260
     51  O         85.2770  247.3550    8.8030 O.2    96  VAL96      -0.2867
     52  CB        88.2030  246.8840    7.1670 C.3    96  VAL96       0.0252
     53  CG1       87.1250  246.3600    6.2160 C.3    96  VAL96       0.0019
     54  CG2       89.2380  247.7120    6.3960 C.3    96  VAL96       0.0019
     55  N         85.5970  248.3230   -1.1170 N.3   134  LEU134     -0.1245
     56  CA        86.8490  247.6110   -1.2960 C.3   134  LEU134      0.1561
     57  C         86.8960  246.7880   -2.5740 C.2   134  LEU134      0.2260
     58  O         87.9720  246.6420   -3.1520 O.2   134  LEU134     -0.2867
     59  CB        87.1050  246.6820   -0.1060 C.3   134  LEU134      0.0270
     60  CG        87.1240  247.3400    1.2700 C.3   134  LEU134      0.0019
     61  CD1       87.2420  246.2640    2.3600 C.3   134  LEU134      0.0001
     62  CD2       88.2460  248.3740    1.3710 C.3   134  LEU134      0.0001
     63  N         93.5690  258.0740    5.1780 N.3   185  THR185     -0.1203
     64  CA        94.3280  257.2450    4.2600 C.3   185  THR185      0.1994
     65  C         93.4300  256.1910    3.6240 C.2   185  THR185      0.2618
     66  O         92.3440  255.8750    4.1200 O.2   185  THR185     -0.2717
     67  CB        95.4760  256.5430    4.9750 C.3   185  THR185      0.1784
     68  OG1       94.9360  255.7490    6.0330 O.3   185  THR185     -0.2211
     69  CG2       96.4830  257.5450    5.5250 C.3   185  THR185      0.0376
     70  N         93.9070  255.6490    2.5140 N.am  186  GLY186     -0.1942
     71  CA        93.2330  254.5530    1.8440 C.3   186  GLY186      0.2014
     72  C         94.2450  253.6500    1.1790 C.2   186  GLY186      0.2638
     73  O         95.3040  254.0980    0.7280 O.2   186  GLY186     -0.2714
     74  N         93.8990  252.3630    1.1000 N.am  187  TYR187     -0.1973
     75  CA        94.7550  251.3330    0.5050 C.3   187  TYR187      0.1639
     76  C         93.8540  250.3600   -0.2530 C.2   187  TYR187      0.2290
     77  O         93.1700  249.5420    0.3620 O.2   187  TYR187     -0.2864
     78  CB        95.5550  250.6160    1.5870 C.3   187  TYR187      0.0560
     79  CG        96.5720  249.6000    1.0970 C.ar  187  TYR187     -0.0198
     80  CD1       97.0750  249.6370   -0.1960 C.ar  187  TYR187     -0.0009
     81  CD2       97.0130  248.5830    1.9410 C.ar  187  TYR187     -0.0009
     82  CE1       98.0070  248.7030   -0.6290 C.ar  187  TYR187      0.0417
     83  CE2       97.9350  247.6470    1.5150 C.ar  187  TYR187      0.0417
     84  CZ        98.4260  247.7080    0.2300 C.ar  187  TYR187      0.1957
     85  OH        99.3420  246.7630   -0.1770 O.3   187  TYR187     -0.2866
     86  N        102.6710  246.8790    0.1020 N.3   220  SER220     -0.1217
     87  CA       102.4210  247.6920    1.2830 C.3   220  SER220      0.1889
     88  C        103.6680  248.4360    1.7500 C.2   220  SER220      0.2288
     89  O        103.5500  249.3450    2.5740 O.2   220  SER220     -0.2866
     90  CB       101.8830  246.7990    2.4040 C.3   220  SER220      0.2089
     91  OG       102.8130  245.7710    2.6940 O.3   220  SER220     -0.2183
     92  N        103.4800  252.4330    1.6220 N.3   223  LEU223     -0.1245
     93  CA       102.3210  253.1670    2.1190 C.3   223  LEU223      0.1561
     94  C        102.7250  254.5110    2.7190 C.2   223  LEU223      0.2260
     95  O        101.9890  255.4980    2.6030 O.2   223  LEU223     -0.2867
     96  CB       101.5680  252.3240    3.1500 C.3   223  LEU223      0.0270
     97  CG       100.7640  251.1450    2.5880 C.3   223  LEU223      0.0019
     98  CD1      100.2100  250.2960    3.7270 C.3   223  LEU223      0.0001
     99  CD2       99.6400  251.6300    1.6770 C.3   223  LEU223      0.0001
    100  N        102.5390  257.9110    0.6960 N.3   226  ARG226     -0.1245
    101  CA       101.3390  258.7220    0.5420 C.3   226  ARG226      0.1563
    102  C        101.4920  260.0470    1.2700 C.2   226  ARG226      0.2260
    103  O        101.2820  261.1180    0.6860 O.2   226  ARG226     -0.2867
    104  CB       100.1270  257.9550    1.0710 C.3   226  ARG226      0.0307
    105  CG        99.8740  256.6400    0.3490 C.3   226  ARG226      0.0489
    106  CD        98.8220  255.8100    1.0600 C.3   226  ARG226      0.2205
    107  NE        99.2570  255.3880    2.3950 N.pl3 226  ARG226     -0.0865
    108  CZ        98.5090  254.6680    3.2240 C.cat 226  ARG226      0.5346
    109  NH1       98.9740  254.3240    4.4120 N.pl3 226  ARG226      0.1354
    110  NH2       97.2910  254.2890    2.8610 N.pl3 226  ARG226      0.1354
@<TRIPOS>BOND
     1    58    57    2
     2    57    56    1
     3    56    55    1
     4    56    59    1
     5    82    80   ar
     6    82    84   ar
     7    76    77    2
     8    76    75    1
     9    80    79   ar
    10    85    84    1
    11    59    60    1
    12    86    87    1
    13    84    83   ar
    14   105   106    1
    15   105   104    1
    16    75    74    1
    17    75    78    1
    18   101   100    1
    19   101   104    1
    20   101   102    1
    21   103   102    2
    22    73    72    2
    23   106   107    1
    24    79    78    1
    25    79    81   ar
    26    74    72   am
    27    72    71    1
    28    60    62    1
    29    60    61    1
    30    87    88    1
    31    87    90    1
    32    83    81   ar
    33    92    93    1
    34    99    97    1
    35    88    89    2
    36    71    70    1
    37    93    94    1
    38    93    96    1
    39     1     2    1
    40   107   108    2
    41    90    91    1
    42    70    65   am
    43    97    96    1
    44    97    98    1
    45    95    94    2
    46   110   108    1
    47   108   109    1
    48     2     3    1
    49     2     5    1
    50     3     4    2
    51    65    66    2
    52    65    64    1
    53    64    67    1
    54    64    63    1
    55     5     6    1
    56    67    69    1
    57    67    68    1
    58    53    52    1
    59    54    52    1
    60    14    12   ar
    61    52    49    1
    62    47    46    1
    63    41    39   ar
    64    41    40   ar
    65    12    13   ar
    66    12    11    1
    67    46    43    1
    68    49    50    1
    69    49    48    1
    70    39    37   ar
    71    22    20    1
    72    40    38   ar
    73    51    50    2
    74    45    44    2
    75    11     8    1
    76    20    19    1
    77    43    44    1
    78    43    42    1
    79    37    35   ar
    80    37    36   ar
    81    38    35   ar
    82     8     7    1
    83     8     9    1
    84    35    33   ar
    85    19    21    1
    86    19    16    1
    87    36    34   ar
    88     9    10    2
    89     9    15   am
    90    15    16    1
    91    16    17    1
    92    33    34   ar
    93    33    32    1
    94    17    18    2
    95    17    23   am
    96    32    29    1
    97    23    24    1
    98    29    28    1
    99    29    30    1
   100    24    27    1
   101    24    25    1
   102    30    31    2
   103    25    26    2
