@<TRIPOS>MOLECULE
tmp/5qasB00.pdb
 150 143 0 0 0
SMALL
GASTEIGER

@<TRIPOS>ATOM
      1  N         93.9460  241.0950  -10.8280 N.3    77  ASP77      -0.1225
      2  CA        95.3970  241.0000  -10.6940 C.3    77  ASP77       0.1805
      3  C         95.9360  239.6020  -10.9750 C.2    77  ASP77       0.2597
      4  O         97.1560  239.4190  -10.9950 O.2    77  ASP77      -0.2718
      5  CB        95.8580  241.4590   -9.3000 C.3    77  ASP77       0.1424
      6  CG        95.1730  240.7270   -8.1630 C.2    77  ASP77       0.3668
      7  OD1       94.4600  239.7320   -8.3990 O.co2  77  ASP77      -0.2456
      8  OD2       95.3810  241.1500   -7.0060 O.co2  77  ASP77      -0.2456
      9  N         95.0770  238.6280  -11.2330 N.am   78  ILE78      -0.1980
     10  CA        95.5040  237.2970  -11.6420 C.3    78  ILE78       0.1595
     11  C         95.2560  237.1850  -13.1400 C.2    78  ILE78       0.2287
     12  O         94.1050  237.1410  -13.5910 O.2    78  ILE78      -0.2864
     13  CB        94.7640  236.2180  -10.8440 C.3    78  ILE78       0.0276
     14  CG1       95.0970  236.3890   -9.3600 C.3    78  ILE78       0.0022
     15  CG2       95.1530  234.8210  -11.3180 C.3    78  ILE78       0.0022
     16  CD1       94.2440  235.5760   -8.4600 C.3    78  ILE78       0.0001
     17  N         95.3870  234.9660  -15.4450 N.3    80  THR80      -0.1203
     18  CA        94.5710  233.8850  -15.9850 C.3    80  THR80       0.1994
     19  C         93.0830  234.1040  -15.7570 C.2    80  THR80       0.2617
     20  O         92.2720  233.4200  -16.3920 O.2    80  THR80      -0.2717
     21  CB        94.9920  232.5450  -15.3800 C.3    80  THR80       0.1784
     22  OG1       94.9130  232.6070  -13.9520 O.3    80  THR80      -0.2211
     23  CG2       96.4150  232.1980  -15.7960 C.3    80  THR80       0.0376
     24  N         92.7040  235.0330  -14.8770 N.am   81  TRP81      -0.1975
     25  CA        91.2980  235.3630  -14.6850 C.3    81  TRP81       0.1640
     26  C         90.7590  236.3060  -15.7530 C.2    81  TRP81       0.2290
     27  O         89.5390  236.3900  -15.9270 O.2    81  TRP81      -0.2864
     28  CB        91.0840  236.0030  -13.3100 C.3    81  TRP81       0.0576
     29  CG        91.3120  235.0620  -12.1750 C.ar   81  TRP81       0.0006
     30  CD1       91.7950  233.7850  -12.2430 C.ar   81  TRP81       0.0946
     31  CD2       91.0620  235.3230  -10.7920 C.ar   81  TRP81       0.0152
     32  NE1       91.8640  233.2370  -10.9820 N.ar   81  TRP81      -0.2442
     33  CE2       91.4210  234.1630  -10.0740 C.ar   81  TRP81       0.0810
     34  CE3       90.5690  236.4270  -10.0910 C.ar   81  TRP81       0.0012
     35  CZ2       91.2910  234.0700   -8.6850 C.ar   81  TRP81       0.0191
     36  CZ3       90.4460  236.3380   -8.7100 C.ar   81  TRP81       0.0001
     37  CH2       90.8040  235.1670   -8.0230 C.ar   81  TRP81       0.0015
     38  N         90.7290  224.7390  -12.9820 N.3    92  LYS92      -0.1231
     39  CA        92.1860  224.6870  -13.0570 C.3    92  LYS92       0.1693
     40  C         92.8140  225.9650  -12.5160 C.2    92  LYS92       0.2592
     41  O         93.8060  225.9190  -11.7830 O.2    92  LYS92      -0.2718
     42  CB        92.6130  224.4550  -14.5070 C.3    92  LYS92       0.0285
     43  CG        94.1130  224.4370  -14.7460 C.3    92  LYS92       0.0035
     44  CD        94.4110  224.1070  -16.2080 C.3    92  LYS92       0.0206
     45  CE        95.8950  224.1630  -16.5010 C.3    92  LYS92       0.1093
     46  NZ        96.2150  223.8640  -17.9270 N.3    92  LYS92      -0.1314
     47  N         92.2620  227.1160  -12.8770 N.am   93  TYR93      -0.1962
     48  CA        92.8270  228.3920  -12.4710 C.3    93  TYR93       0.1771
     49  C         92.0750  229.0230  -11.3030 C.2    93  TYR93       0.2620
     50  O         92.2990  230.1960  -10.9940 O.2    93  TYR93      -0.2715
     51  CB        92.8690  229.3340  -13.6730 C.3    93  TYR93       0.0574
     52  CG        93.8000  228.8300  -14.7560 C.ar   93  TYR93      -0.0198
     53  CD1       95.1730  228.8710  -14.5850 C.ar   93  TYR93      -0.0009
     54  CD2       93.3030  228.2980  -15.9400 C.ar   93  TYR93      -0.0009
     55  CE1       96.0320  228.4070  -15.5690 C.ar   93  TYR93       0.0417
     56  CE2       94.1560  227.8290  -16.9290 C.ar   93  TYR93       0.0417
     57  CZ        95.5190  227.8850  -16.7320 C.ar   93  TYR93       0.1957
     58  OH        96.3810  227.4220  -17.6950 O.3    93  TYR93      -0.2866
     59  N         91.1890  228.2700  -10.6570 N.am   94  SER94      -0.1950
     60  CA        90.4850  228.7130   -9.4600 C.3    94  SER94       0.1924
     61  C         89.9220  230.1180   -9.6570 C.2    94  SER94       0.2314
     62  O         90.1760  231.0450   -8.8880 O.2    94  SER94      -0.2863
     63  CB        91.4130  228.6530   -8.2410 C.3    94  SER94       0.2116
     64  OG        90.6500  228.5370   -7.0610 O.3    94  SER94      -0.2180
     65  N         87.8000  232.7020   -9.1950 N.3    96  VAL96      -0.1245
     66  CA        86.7650  233.1340   -8.2570 C.3    96  VAL96       0.1561
     67  C         85.6250  233.8720   -8.9540 C.2    96  VAL96       0.2260
     68  O         84.4590  233.5530   -8.6880 O.2    96  VAL96      -0.2867
     69  CB        87.3890  233.9600   -7.1290 C.3    96  VAL96       0.0252
     70  CG1       86.3100  234.5010   -6.2140 C.3    96  VAL96       0.0019
     71  CG2       88.4230  233.1390   -6.3470 C.3    96  VAL96       0.0019
     72  N         84.5910  232.5400    1.1490 N.3   134  LEU134     -0.1245
     73  CA        85.8350  233.2700    1.3400 C.3   134  LEU134      0.1561
     74  C         85.8690  234.0850    2.6200 C.2   134  LEU134      0.2260
     75  O         86.9420  234.2520    3.2000 O.2   134  LEU134     -0.2867
     76  CB        86.0800  234.2170    0.1620 C.3   134  LEU134      0.0270
     77  CG        86.1390  233.5260   -1.1970 C.3   134  LEU134      0.0019
     78  CD1       86.1090  234.5680   -2.2910 C.3   134  LEU134      0.0001
     79  CD2       87.3740  232.6630   -1.3110 C.3   134  LEU134      0.0001
     80  N         92.7260  222.7640   -5.0400 N.3   185  THR185     -0.1218
     81  CA        93.4450  223.5910   -4.0900 C.3   185  THR185      0.1862
     82  C         92.5240  224.6510   -3.5000 C.2   185  THR185      0.2287
     83  O         91.4770  224.9930   -4.0560 O.2   185  THR185     -0.2866
     84  CB        94.6280  224.2940   -4.7590 C.3   185  THR185      0.1770
     85  OG1       94.1410  225.0890   -5.8400 O.3   185  THR185     -0.2211
     86  CG2       95.6490  223.3010   -5.2820 C.3   185  THR185      0.0375
     87  N         92.9510  228.4940   -1.0140 N.3   187  TYR187     -0.1241
     88  CA        93.8300  229.5140   -0.4350 C.3   187  TYR187      0.1605
     89  C         92.9510  230.5380    0.2810 C.2   187  TYR187      0.2264
     90  O         92.3130  231.3770   -0.3630 O.2   187  TYR187     -0.2867
     91  CB        94.6700  230.1660   -1.5320 C.3   187  TYR187      0.0534
     92  CG        95.6560  231.2090   -1.0560 C.ar  187  TYR187     -0.0201
     93  CD1       96.1580  231.1990    0.2470 C.ar  187  TYR187     -0.0009
     94  CD2       96.0810  232.2150   -1.9140 C.ar  187  TYR187     -0.0009
     95  CE1       97.0600  232.1650    0.6710 C.ar  187  TYR187      0.0417
     96  CE2       96.9760  233.1790   -1.5000 C.ar  187  TYR187      0.0417
     97  CZ        97.4620  233.1530   -0.2130 C.ar  187  TYR187      0.1957
     98  OH        98.3540  234.1300    0.1710 O.3   187  TYR187     -0.2866
     99  N         92.5720  233.6930    2.7220 N.3   189  THR189     -0.1203
    100  CA        93.3050  234.8410    3.2420 C.3   189  THR189      0.1994
    101  C         92.4490  235.8470    4.0000 C.2   189  THR189      0.2617
    102  O         93.0090  236.6650    4.7370 O.2   189  THR189     -0.2717
    103  CB        93.9940  235.6160    2.1060 C.3   189  THR189      0.1784
    104  OG1       92.9960  236.0780    1.2020 O.3   189  THR189     -0.2211
    105  CG2       94.9970  234.7540    1.3630 C.3   189  THR189      0.0376
    106  N         91.1270  235.8270    3.8410 N.am  190  ARG190     -0.1979
    107  CA        90.3080  236.9070    4.3810 C.3   190  ARG190      0.1597
    108  C         90.0620  236.7800    5.8750 C.2   190  ARG190      0.2287
    109  O         89.7650  237.7830    6.5270 O.2   190  ARG190     -0.2864
    110  CB        88.9740  236.9730    3.6430 C.3   190  ARG190      0.0334
    111  CG        89.1460  237.3110    2.1780 C.3   190  ARG190      0.0492
    112  CD        87.8400  237.6450    1.5200 C.3   190  ARG190      0.2205
    113  NE        88.0520  238.0940    0.1480 N.pl3 190  ARG190     -0.0865
    114  CZ        87.1040  238.5930   -0.6360 C.cat 190  ARG190      0.5346
    115  NH1       85.8610  238.7110   -0.1880 N.pl3 190  ARG190      0.1354
    116  NH2       87.4010  238.9750   -1.8720 N.pl3 190  ARG190      0.1354
    117  N        101.7200  234.1180    0.1700 N.3   220  SER220     -0.1217
    118  CA       101.5310  233.3050   -1.0240 C.3   220  SER220      0.1889
    119  C        102.8040  232.5780   -1.4430 C.2   220  SER220      0.2288
    120  O        102.7340  231.7010   -2.3110 O.2   220  SER220     -0.2866
    121  CB       101.0230  234.1880   -2.1650 C.3   220  SER220      0.2089
    122  OG       101.9350  235.2280   -2.4500 O.3   220  SER220     -0.2183
    123  N        102.6570  228.5660   -1.3670 N.3   223  LEU223     -0.1245
    124  CA       101.5080  227.8500   -1.9100 C.3   223  LEU223      0.1561
    125  C        101.8960  226.5040   -2.5040 C.2   223  LEU223      0.2260
    126  O        101.1150  225.5480   -2.4280 O.2   223  LEU223     -0.2867
    127  CB       100.8100  228.7100   -2.9550 C.3   223  LEU223      0.0270
    128  CG        99.9710  229.8580   -2.3970 C.3   223  LEU223      0.0019
    129  CD1       99.4990  230.7510   -3.5370 C.3   223  LEU223      0.0001
    130  CD2       98.7790  229.3350   -1.5960 C.3   223  LEU223      0.0001
    131  N        101.5430  223.0670   -0.5390 N.3   226  ARG226     -0.1231
    132  CA       100.3200  222.2880   -0.4130 C.3   226  ARG226      0.1694
    133  C        100.4610  220.9540   -1.1330 C.2   226  ARG226      0.2591
    134  O        100.2270  219.8890   -0.5500 O.2   226  ARG226     -0.2718
    135  CB        99.1380  223.0760   -0.9690 C.3   226  ARG226      0.0321
    136  CG        98.8400  224.3630   -0.2140 C.3   226  ARG226      0.0489
    137  CD        97.7880  225.1880   -0.9320 C.3   226  ARG226      0.2205
    138  NE        98.2420  225.6170   -2.2490 N.pl3 226  ARG226     -0.0865
    139  CZ        97.5160  226.3340   -3.0930 C.cat 226  ARG226      0.5346
    140  NH1       98.0300  226.6720   -4.2630 N.pl3 226  ARG226      0.1354
    141  NH2       96.2790  226.7050   -2.7740 N.pl3 226  ARG226      0.1354
    142  N        100.8610  220.9930   -2.4020 N.am  227  GLN227     -0.1979
    143  CA       101.0510  219.7580   -3.1570 C.3   227  GLN227      0.1601
    144  C        102.3330  219.0430   -2.7490 C.2   227  GLN227      0.2287
    145  O        102.3700  217.8080   -2.6960 O.2   227  GLN227     -0.2864
    146  CB       101.0680  220.0510   -4.6600 C.3   227  GLN227      0.0394
    147  CG        99.7860  220.6620   -5.2010 C.3   227  GLN227      0.0908
    148  CD        99.8290  222.1770   -5.2550 C.2   227  GLN227      0.2608
    149  OE1      100.5570  222.8240   -4.4980 O.2   227  GLN227     -0.2717
    150  NE2       99.0480  222.7500   -6.1600 N.am  227  GLN227     -0.0878
@<TRIPOS>BOND
     1    46    45    1
     2    58    57    1
     3    56    57   ar
     4    56    54   ar
     5    57    55   ar
     6    45    44    1
     7    20    19    2
     8    44    43    1
     9    18    19    1
    10    18    17    1
    11    18    21    1
    12    54    52   ar
    13    27    26    2
    14    23    21    1
    15    19    24   am
    16    26    25    1
    17    55    53   ar
    18    21    22    1
    19    24    25    1
    20    52    53   ar
    21    52    51    1
    22    43    42    1
    23    25    28    1
    24    42    39    1
    25    51    48    1
    26    12    11    2
    27    28    29    1
    28    11    10    1
    29    39    38    1
    30    39    40    1
    31    47    40   am
    32    47    48    1
    33    40    41    2
    34    48    49    1
    35    30    29   ar
    36    30    32   ar
    37    29    31   ar
    38    10     9    1
    39    10    13    1
    40    15    13    1
    41    49    50    2
    42    49    59   am
    43     9     3   am
    44     4     3    2
    45    32    33   ar
    46     3     2    1
    47    13    14    1
    48     1     2    1
    49    31    34   ar
    50    31    33   ar
    51     2     5    1
    52    59    60    1
    53    34    36   ar
    54    33    35   ar
    55    61    60    1
    56    61    62    2
    57    60    63    1
    58    14    16    1
    59     5     6    1
    60    65    66    1
    61    67    68    2
    62    67    66    1
    63    36    37   ar
    64    35    37   ar
    65     7     6   ar
    66    66    69    1
    67    63    64    1
    68     6     8   ar
    69    69    71    1
    70    69    70    1
    71   150   148   am
    72    85    84    1
    73    86    84    1
    74   148   147    1
    75   148   149    2
    76   147   146    1
    77    80    81    1
    78    84    81    1
    79   146   143    1
    80   140   139    1
    81    81    82    1
    82    83    82    2
    83   129   128    1
    84   143   144    1
    85   143   142    1
    86   139   141    1
    87   139   138    2
    88   127   128    1
    89   127   124    1
    90   144   145    2
    91   125   126    2
    92   125   124    1
    93   122   121    1
    94   142   133   am
    95   128   130    1
    96   120   119    2
    97    78    77    1
    98   138   137    1
    99   121   118    1
   100    94    96   ar
   101    94    92   ar
   102   124   123    1
   103   116   114    1
   104    91    92    1
   105    91    88    1
   106    96    97   ar
   107   119   118    1
   108    79    77    1
   109    77    76    1
   110   133   134    2
   111   133   132    1
   112    92    93   ar
   113   118   117    1
   114    87    88    1
   115   135   132    1
   116   135   136    1
   117   137   136    1
   118   114   115    1
   119   114   113    2
   120   131   132    1
   121    88    89    1
   122    90    89    2
   123    97    98    1
   124    97    95   ar
   125   113   112    1
   126    76    73    1
   127    93    95   ar
   128    72    73    1
   129   104   103    1
   130    73    74    1
   131   105   103    1
   132   112   111    1
   133   103   100    1
   134   111   110    1
   135    74    75    2
   136    99   100    1
   137   100   101    1
   138   110   107    1
   139   106   101   am
   140   106   107    1
   141   101   102    2
   142   107   108    1
   143   108   109    2
