@<TRIPOS>MOLECULE
tmp/5qatB00.pdb
 134 129 0 0 0
SMALL
GASTEIGER

@<TRIPOS>ATOM
      1  N         -0.9090   13.1070  122.1910 N.3    48  SER48      -0.1217
      2  CA        -0.2650   11.8360  121.8810 C.3    48  SER48       0.1889
      3  C          0.4660   11.8270  120.5400 C.2    48  SER48       0.2288
      4  O          1.1220   10.8250  120.2370 O.2    48  SER48      -0.2866
      5  CB        -1.2860   10.7040  121.9220 C.3    48  SER48       0.2089
      6  OG        -1.8030   10.5350  123.2410 O.3    48  SER48      -0.2183
      7  N         -8.9460    4.2140  133.1690 N.3    78  ASP78      -0.1225
      8  CA       -10.2590    4.2360  132.5450 C.3    78  ASP78       0.1805
      9  C        -10.2400    3.7340  131.1060 C.2    78  ASP78       0.2597
     10  O        -11.3100    3.5000  130.5330 O.2    78  ASP78      -0.2718
     11  CB       -10.8130    5.6580  132.5670 C.3    78  ASP78       0.1424
     12  CG       -10.7630    6.2860  133.9510 C.2    78  ASP78       0.3668
     13  OD1      -10.7520    5.5330  134.9500 O.co2  78  ASP78      -0.2456
     14  OD2      -10.7180    7.5300  134.0370 O.co2  78  ASP78      -0.2456
     15  N         -9.0670    3.5540  130.5150 N.am   79  ILE79      -0.1980
     16  CA        -8.9330    2.9820  129.1820 C.3    79  ILE79       0.1595
     17  C         -8.4830    1.5340  129.3380 C.2    79  ILE79       0.2287
     18  O         -7.3640    1.2610  129.7840 O.2    79  ILE79      -0.2864
     19  CB        -7.9800    3.8130  128.3120 C.3    79  ILE79       0.0276
     20  CG1       -8.5460    5.2290  128.1410 C.3    79  ILE79       0.0022
     21  CG2       -7.7900    3.1610  126.9440 C.3    79  ILE79       0.0022
     22  CD1       -7.6020    6.1910  127.4880 C.3    79  ILE79       0.0001
     23  N         -7.6030   -0.8560  127.3600 N.3    81  THR81      -0.1203
     24  CA        -6.4400   -1.3670  126.6380 C.3    81  THR81       0.1994
     25  C         -5.1230   -0.9380  127.2740 C.2    81  THR81       0.2617
     26  O         -4.0810   -1.5130  126.9470 O.2    81  THR81      -0.2717
     27  CB        -6.4760   -0.9320  125.1700 C.3    81  THR81       0.1784
     28  OG1       -5.3310   -1.4610  124.4930 O.3    81  THR81      -0.2211
     29  CG2       -6.4730    0.5710  125.0390 C.3    81  THR81       0.0376
     30  N         -5.1430    0.0470  128.1760 N.am   82  TRP82      -0.1975
     31  CA        -3.9390    0.4270  128.9050 C.3    82  TRP82       0.1640
     32  C         -3.6080   -0.5320  130.0440 C.2    82  TRP82       0.2290
     33  O         -2.4640   -0.5410  130.5130 O.2    82  TRP82      -0.2864
     34  CB        -4.0900    1.8370  129.4820 C.3    82  TRP82       0.0576
     35  CG        -4.1330    2.9500  128.4610 C.ar   82  TRP82       0.0006
     36  CD1       -4.1540    2.8270  127.1020 C.ar   82  TRP82       0.0946
     37  CD2       -4.1790    4.3590  128.7350 C.ar   82  TRP82       0.0152
     38  NE1       -4.2050    4.0680  126.5150 N.ar   82  TRP82      -0.2442
     39  CE2       -4.2220    5.0250  127.4950 C.ar   82  TRP82       0.0810
     40  CE3       -4.1860    5.1170  129.9100 C.ar   82  TRP82       0.0012
     41  CZ2       -4.2630    6.4160  127.3940 C.ar   82  TRP82       0.0191
     42  CZ3       -4.2300    6.5020  129.8080 C.ar   82  TRP82       0.0001
     43  CH2       -4.2700    7.1350  128.5600 C.ar   82  TRP82       0.0015
     44  N          0.0040    1.9550  119.1580 N.3    93  LYS93      -0.1231
     45  CA        -1.3030    1.6280  118.5890 C.3    93  LYS93       0.1693
     46  C         -2.4410    2.0550  119.5050 C.2    93  LYS93       0.2592
     47  O         -3.4460    2.6070  119.0410 O.2    93  LYS93      -0.2718
     48  CB        -1.3800    0.1200  118.3100 C.3    93  LYS93       0.0285
     49  CG        -2.7490   -0.3820  117.8470 C.3    93  LYS93       0.0035
     50  CD        -2.7000   -1.8780  117.5810 C.3    93  LYS93       0.0206
     51  CE        -4.0560   -2.4500  117.1660 C.3    93  LYS93       0.1093
     52  NZ        -3.9570   -3.9320  116.9320 N.3    93  LYS93      -0.1314
     53  N         -2.3110    1.8010  120.8040 N.am   94  TYR94      -0.1962
     54  CA        -3.3490    2.1390  121.7690 C.3    94  TYR94       0.1771
     55  C         -3.0430    3.4390  122.5140 C.2    94  TYR94       0.2620
     56  O         -3.7380    3.7670  123.4820 O.2    94  TYR94      -0.2715
     57  CB        -3.5410    0.9820  122.7470 C.3    94  TYR94       0.0574
     58  CG        -3.9880   -0.2960  122.0530 C.ar   94  TYR94      -0.0198
     59  CD1       -5.2830   -0.4300  121.5590 C.ar   94  TYR94      -0.0009
     60  CD2       -3.1080   -1.3580  121.8730 C.ar   94  TYR94      -0.0009
     61  CE1       -5.6920   -1.5980  120.9130 C.ar   94  TYR94       0.0417
     62  CE2       -3.5100   -2.5310  121.2290 C.ar   94  TYR94       0.0417
     63  CZ        -4.8010   -2.6390  120.7530 C.ar   94  TYR94       0.1957
     64  OH        -5.2080   -3.7870  120.1170 O.3    94  TYR94      -0.2866
     65  N         -2.0310    4.1870  122.0710 N.am   95  SER95      -0.1950
     66  CA        -1.6690    5.4860  122.6490 C.3    95  SER95       0.1924
     67  C         -1.6170    5.4160  124.1790 C.2    95  SER95       0.2314
     68  O         -2.3210    6.1360  124.8930 O.2    95  SER95      -0.2863
     69  CB        -2.6420    6.5700  122.1710 C.3    95  SER95       0.2116
     70  OG        -2.0790    7.8600  122.3140 O.3    95  SER95      -0.2180
     71  N         -2.3760    9.3690  116.0730 N.3   186  THR186     -0.1203
     72  CA        -3.4600   10.2050  116.5680 C.3   186  THR186      0.1994
     73  C         -3.0340   10.9780  117.8170 C.2   186  THR186      0.2618
     74  O         -2.0910   10.6100  118.5250 O.2   186  THR186     -0.2717
     75  CB        -4.6790    9.3600  116.9220 C.3   186  THR186      0.1784
     76  OG1       -4.3160    8.4250  117.9470 O.3   186  THR186     -0.2211
     77  CG2       -5.1960    8.6130  115.6910 C.3   186  THR186      0.0376
     78  N         -3.7600   12.0530  118.0900 N.am  187  GLY187     -0.1942
     79  CA        -3.6010   12.7800  119.3370 C.3   187  GLY187      0.2014
     80  C         -4.9290   13.3210  119.8250 C.2   187  GLY187      0.2638
     81  O         -5.8240   13.6380  119.0390 O.2   187  GLY187     -0.2714
     82  N         -5.0330   13.4690  121.1430 N.am  188  TYR188     -0.1973
     83  CA        -6.2590   13.9680  121.7610 C.3   188  TYR188      0.1639
     84  C         -5.8500   14.8320  122.9460 C.2   188  TYR188      0.2290
     85  O         -5.3810   14.3160  123.9660 O.2   188  TYR188     -0.2864
     86  CB        -7.1570   12.8060  122.1950 C.3   188  TYR188      0.0560
     87  CG        -8.5260   13.1780  122.7260 C.ar  188  TYR188     -0.0198
     88  CD1       -9.1400   14.3740  122.3750 C.ar  188  TYR188     -0.0009
     89  CD2       -9.2160   12.3110  123.5670 C.ar  188  TYR188     -0.0009
     90  CE1      -10.3990   14.6990  122.8570 C.ar  188  TYR188      0.0417
     91  CE2      -10.4720   12.6290  124.0550 C.ar  188  TYR188      0.0417
     92  CZ       -11.0590   13.8200  123.6960 C.ar  188  TYR188      0.1957
     93  OH       -12.3070   14.1330  124.1810 O.3   188  TYR188     -0.2866
     94  N         -6.9170   17.1540  125.8580 N.3   190  THR190     -0.1218
     95  CA        -8.1000   17.3960  126.6690 C.3   190  THR190      0.1862
     96  C         -7.8350   18.1660  127.9500 C.2   190  THR190      0.2287
     97  O         -8.7990   18.6060  128.5910 O.2   190  THR190     -0.2866
     98  CB        -8.7610   16.0610  127.0430 C.3   190  THR190      0.1770
     99  OG1       -7.8370   15.2630  127.7990 O.3   190  THR190     -0.2211
    100  CG2       -9.1700   15.3060  125.7910 C.3   190  THR190      0.0375
    101  N        -15.1360   13.1580  123.5380 N.3   221  SER221     -0.1217
    102  CA       -14.4900   12.0360  122.8650 C.3   221  SER221      0.1889
    103  C        -15.3560   11.4080  121.7790 C.2   221  SER221      0.2288
    104  O        -14.8580   10.5620  121.0280 O.2   221  SER221     -0.2866
    105  CB       -14.1050   10.9670  123.8890 C.3   221  SER221      0.2089
    106  OG       -15.2380   10.5040  124.6030 O.3   221  SER221     -0.2183
    107  N        -14.0040   11.5820  118.0230 N.3   224  LEU224     -0.1245
    108  CA       -12.6190   11.2100  117.7510 C.3   224  LEU224      0.1561
    109  C        -12.4750   10.5490  116.3910 C.2   224  LEU224      0.2260
    110  O        -11.4690   10.7480  115.7030 O.2   224  LEU224     -0.2867
    111  CB       -12.1000   10.2870  118.8520 C.3   224  LEU224      0.0270
    112  CG       -11.7960   10.9770  120.1820 C.3   224  LEU224      0.0019
    113  CD1      -11.4870    9.9520  121.2540 C.3   224  LEU224      0.0001
    114  CD2      -10.6330   11.9540  120.0250 C.3   224  LEU224      0.0001
    115  N        -11.4490   12.5150  113.1060 N.3   227  ARG227     -0.1231
    116  CA       -10.0760   12.8450  112.7330 C.3   227  ARG227      0.1694
    117  C         -9.6600   12.0920  111.4760 C.2   227  ARG227      0.2591
    118  O         -9.1700   12.6910  110.5140 O.2   227  ARG227     -0.2718
    119  CB        -9.1200   12.5310  113.8850 C.3   227  ARG227      0.0321
    120  CG        -9.3580   13.3580  115.1360 C.3   227  ARG227      0.0489
    121  CD        -8.5490   12.8140  116.3010 C.3   227  ARG227      0.2205
    122  NE        -8.9380   11.4350  116.5960 N.pl3 227  ARG227     -0.0865
    123  CZ        -8.3920   10.6750  117.5390 C.cat 227  ARG227      0.5346
    124  NH1       -8.8290    9.4370  117.7060 N.pl3 227  ARG227      0.1354
    125  NH2       -7.4230   11.1490  118.3160 N.pl3 227  ARG227      0.1354
    126  N         -9.8480   10.7700  111.4640 N.am  228  GLN228     -0.1979
    127  CA        -9.4910    9.9970  110.2780 C.3   228  GLN228      0.1601
    128  C        -10.5250   10.1720  109.1740 C.2   228  GLN228      0.2287
    129  O        -10.1660   10.2730  107.9940 O.2   228  GLN228     -0.2864
    130  CB        -9.3400    8.5150  110.6310 C.3   228  GLN228      0.0394
    131  CG        -8.2380    8.2340  111.6290 C.3   228  GLN228      0.0908
    132  CD        -8.7460    8.1580  113.0580 C.2   228  GLN228      0.2608
    133  OE1       -9.7700    8.7560  113.4050 O.2   228  GLN228     -0.2717
    134  NE2       -8.0310    7.4160  113.8960 N.am  228  GLN228     -0.0878
@<TRIPOS>BOND
     1   129   128    2
     2   128   127    1
     3   127   130    1
     4   127   126    1
     5   118   117    2
     6   130   131    1
     7   126   117   am
     8   117   116    1
     9   131   132    1
    10   116   115    1
    11   116   119    1
    12   132   133    2
    13   132   134   am
    14   119   120    1
    15   120   121    1
    16    77    75    1
    17   110   109    2
    18    71    72    1
    19   121   122    1
    20   109   108    1
    21    72    75    1
    22    72    73    1
    23   122   123    2
    24    75    76    1
    25    52    51    1
    26    51    50    1
    27   123   124    1
    28   123   125    1
    29    50    49    1
    30   108   107    1
    31   108   111    1
    32    73    78   am
    33    73    74    2
    34    49    48    1
    35    78    79    1
    36    48    45    1
    37    45    44    1
    38    45    46    1
    39   111   112    1
    40    81    80    2
    41    47    46    2
    42    79    80    1
    43    46    53   am
    44    80    82   am
    45   114   112    1
    46    64    63    1
    47   112   113    1
    48     4     3    2
    49     3     2    1
    50    63    61   ar
    51    63    62   ar
    52    53    54    1
    53    61    59   ar
    54   104   103    2
    55    82    83    1
    56    62    60   ar
    57    59    58   ar
    58    83    86    1
    59    83    84    1
    60    54    55    1
    61    54    57    1
    62   103   102    1
    63    60    58   ar
    64     2     5    1
    65     2     1    1
    66     5     6    1
    67    58    57    1
    68    65    55   am
    69    65    66    1
    70    69    70    1
    71    69    66    1
    72    86    87    1
    73    88    87   ar
    74    88    90   ar
    75    55    56    2
    76    66    67    1
    77    87    89   ar
    78    90    92   ar
    79   102   101    1
    80   102   105    1
    81    84    85    2
    82    89    91   ar
    83    92    91   ar
    84    92    93    1
    85   105   106    1
    86    67    68    2
    87    28    27    1
    88    29    27    1
    89    27    24    1
    90   100    98    1
    91    94    95    1
    92    38    36   ar
    93    38    39   ar
    94    24    25    1
    95    24    23    1
    96    95    98    1
    97    95    96    1
    98    21    19    1
    99    26    25    2
   100    98    99    1
   101    36    35   ar
   102    25    30   am
   103    41    39   ar
   104    41    43   ar
   105    22    20    1
   106    39    37   ar
   107    96    97    2
   108    20    19    1
   109    30    31    1
   110    19    16    1
   111    35    37   ar
   112    35    34    1
   113    43    42   ar
   114    37    40   ar
   115    31    34    1
   116    31    32    1
   117    16    17    1
   118    16    15    1
   119    17    18    2
   120    42    40   ar
   121    32    33    2
   122    15     9   am
   123    10     9    2
   124     9     8    1
   125     8    11    1
   126     8     7    1
   127    11    12    1
   128    12    14   ar
   129    12    13   ar
