@<TRIPOS>MOLECULE
tmp/5qauC00.pdb
 104 96 0 0 0
SMALL
GASTEIGER

@<TRIPOS>ATOM
      1  N         84.5380  231.4200   31.3740 N.3    47  SER47      -0.1217
      2  CA        85.1190  231.0230   32.6450 C.3    47  SER47       0.1889
      3  C         85.6700  229.5990   32.6650 C.2    47  SER47       0.2288
      4  O         86.3340  229.2420   33.6510 O.2    47  SER47      -0.2866
      5  CB        84.0980  231.2210   33.7670 C.3    47  SER47       0.2089
      6  OG        83.7590  232.5980   33.8850 O.3    47  SER47      -0.2183
      7  N         77.5070  240.3790   40.9880 N.3    78  ILE78      -0.1245
      8  CA        77.4610  239.0190   41.5140 C.3    78  ILE78       0.1561
      9  C         77.8560  239.0950   42.9860 C.2    78  ILE78       0.2260
     10  O         79.0260  239.3290   43.3090 O.2    78  ILE78      -0.2867
     11  CB        78.3840  238.0680   40.7410 C.3    78  ILE78       0.0252
     12  CG1       78.1810  238.1620   39.2220 C.3    78  ILE78       0.0019
     13  CG2       78.1350  236.6480   41.2040 C.3    78  ILE78       0.0019
     14  CD1       76.8310  237.7120   38.7190 C.3    78  ILE78       0.0001
     15  N         80.9870  237.5780   44.5420 N.3    81  TRP81      -0.1241
     16  CA        82.2860  238.1460   44.1930 C.3    81  TRP81       0.1605
     17  C         82.7390  239.2190   45.1770 C.2    81  TRP81       0.2264
     18  O         83.9210  239.5860   45.1790 O.2    81  TRP81      -0.2867
     19  CB        82.2380  238.7570   42.7940 C.3    81  TRP81       0.0550
     20  CG        82.0120  237.7750   41.6670 C.ar   81  TRP81       0.0003
     21  CD1       81.7680  236.4310   41.7550 C.ar   81  TRP81       0.0946
     22  CD2       82.0100  238.0920   40.2790 C.ar   81  TRP81       0.0152
     23  NE1       81.6150  235.8940   40.4960 N.ar   81  TRP81      -0.2442
     24  CE2       81.7540  236.9000   39.5730 C.ar   81  TRP81       0.0810
     25  CE3       82.1970  239.2760   39.5620 C.ar   81  TRP81       0.0012
     26  CZ2       81.6960  236.8620   38.1880 C.ar   81  TRP81       0.0191
     27  CZ3       82.1300  239.2320   38.1970 C.ar   81  TRP81       0.0001
     28  CH2       81.8900  238.0400   37.5200 C.ar   81  TRP81       0.0015
     29  N         83.2440  231.2680   40.2310 N.3    94  SER94      -0.1217
     30  CA        83.6940  231.8690   38.9750 C.3    94  SER94       0.1889
     31  C         83.9870  233.3540   39.1640 C.2    94  SER94       0.2288
     32  O         83.4490  234.2080   38.4560 O.2    94  SER94      -0.2866
     33  CB        82.6640  231.6650   37.8550 C.3    94  SER94       0.2089
     34  OG        82.3290  230.3010   37.6820 O.3    94  SER94      -0.2183
     35  N         85.5080  236.2370   38.4570 N.3    96  VAL96      -0.1245
     36  CA        86.2970  236.8560   37.3890 C.3    96  VAL96       0.1561
     37  C         87.3450  237.8340   37.9270 C.2    96  VAL96       0.2260
     38  O         88.5070  237.7520   37.5050 O.2    96  VAL96      -0.2867
     39  CB        85.3610  237.4940   36.3540 C.3    96  VAL96       0.0252
     40  CG1       86.1360  238.3170   35.3110 C.3    96  VAL96       0.0019
     41  CG2       84.5370  236.4100   35.6650 C.3    96  VAL96       0.0019
     42  N         87.1870  236.3130   27.6500 N.3   134  LEU134     -0.1245
     43  CA        85.8050  236.7800   27.6720 C.3   134  LEU134      0.1561
     44  C         85.4000  237.5810   26.4490 C.2   134  LEU134      0.2260
     45  O         84.2290  237.5520   26.0620 O.2   134  LEU134     -0.2867
     46  CB        85.5570  237.6490   28.9090 C.3   134  LEU134      0.0270
     47  CG        85.9060  237.0070   30.2530 C.3   134  LEU134      0.0019
     48  CD1       85.9330  238.0450   31.3590 C.3   134  LEU134      0.0001
     49  CD2       84.8490  235.9680   30.5420 C.3   134  LEU134      0.0001
     50  N         82.2760  225.4500   34.8830 N.3   185  THR185     -0.1203
     51  CA        81.2700  226.1200   34.0700 C.3   185  THR185      0.1994
     52  C         81.8510  227.3440   33.3670 C.2   185  THR185      0.2618
     53  O         82.8480  227.9310   33.7950 O.2   185  THR185     -0.2717
     54  CB        80.0920  226.5790   34.9240 C.3   185  THR185      0.1784
     55  OG1       80.5620  227.4730   35.9450 O.3   185  THR185     -0.2211
     56  CG2       79.3850  225.3800   35.5640 C.3   185  THR185      0.0376
     57  N         81.1800  227.7450   32.2980 N.am  186  GLY186     -0.1942
     58  CA        81.4920  228.9950   31.6320 C.3   186  GLY186      0.2014
     59  C         80.2310  229.6350   31.1130 C.2   186  GLY186      0.2638
     60  O         79.2500  228.9560   30.7980 O.2   186  GLY186     -0.2714
     61  N         80.2740  230.9580   30.9900 N.am  187  TYR187     -0.1973
     62  CA        79.1500  231.7310   30.4690 C.3   187  TYR187      0.1639
     63  C         79.7470  232.8590   29.6480 C.2   187  TYR187      0.2290
     64  O         80.3570  233.7730   30.2070 O.2   187  TYR187     -0.2864
     65  CB        78.2960  232.2800   31.6060 C.3   187  TYR187      0.0560
     66  CG        77.0280  233.0070   31.2120 C.ar  187  TYR187     -0.0198
     67  CD1       76.4250  232.8140   29.9770 C.ar  187  TYR187     -0.0009
     68  CD2       76.4130  233.8710   32.1080 C.ar  187  TYR187     -0.0009
     69  CE1       75.2470  233.4780   29.6440 C.ar  187  TYR187      0.0417
     70  CE2       75.2470  234.5420   31.7740 C.ar  187  TYR187      0.0417
     71  CZ        74.6690  234.3360   30.5560 C.ar  187  TYR187      0.1957
     72  OH        73.5130  235.0030   30.2490 O.3   187  TYR187     -0.2866
     73  N         79.1450  235.9530   27.4400 N.3   189  THR189     -0.1218
     74  CA        78.0840  236.9320   27.2390 C.3   189  THR189      0.1862
     75  C         78.5050  238.1820   26.4910 C.2   189  THR189      0.2287
     76  O         77.6300  238.9820   26.1410 O.2   189  THR189     -0.2866
     77  CB        77.5370  237.4160   28.5860 C.3   189  THR189      0.1770
     78  OG1       78.5930  238.0830   29.2920 O.3   189  THR189     -0.2211
     79  CG2       77.0250  236.2660   29.4080 C.3   189  THR189      0.0375
     80  N         70.4710  234.5890   31.2340 N.3   220  SER220     -0.1217
     81  CA        70.9640  233.7930   32.3520 C.3   220  SER220      0.1889
     82  C         69.9290  232.8040   32.8690 C.2   220  SER220      0.2288
     83  O         70.2620  231.9790   33.7280 O.2   220  SER220     -0.2866
     84  CB        71.4280  234.7030   33.4930 C.3   220  SER220      0.2089
     85  OG        70.3770  235.5220   33.9630 O.3   220  SER220     -0.2183
     86  N         70.9860  228.9060   32.7350 N.3   223  LEU223     -0.1245
     87  CA        72.3170  228.4440   33.1150 C.3   223  LEU223      0.1561
     88  C         72.2730  227.0590   33.7570 C.2   223  LEU223      0.2260
     89  O         73.1490  226.2240   33.5000 O.2   223  LEU223     -0.2867
     90  CB        72.9730  229.4480   34.0560 C.3   223  LEU223      0.0270
     91  CG        73.5130  230.7130   33.3910 C.3   223  LEU223      0.0019
     92  CD1       73.9490  231.7240   34.4340 C.3   223  LEU223      0.0001
     93  CD2       74.6590  230.3680   32.4660 C.3   223  LEU223      0.0001
     94  N         72.9640  223.7630   31.7300 N.3   226  ARG226     -0.1245
     95  CA        74.2630  223.2150   31.3530 C.3   226  ARG226      0.1563
     96  C         74.4880  221.8750   32.0430 C.2   226  ARG226      0.2260
     97  O         74.7400  220.8560   31.3890 O.2   226  ARG226     -0.2867
     98  CB        75.3790  224.2040   31.7030 C.3   226  ARG226      0.0307
     99  CG        75.2670  225.5520   30.9700 C.3   226  ARG226      0.0489
    100  CD        76.2570  226.5960   31.5230 C.3   226  ARG226      0.2205
    101  NE        75.9570  226.9430   32.9080 N.pl3 226  ARG226     -0.0865
    102  CZ        76.6470  227.8160   33.6380 C.cat 226  ARG226      0.5346
    103  NH1       76.2930  228.0540   34.8920 N.pl3 226  ARG226      0.1354
    104  NH2       77.6870  228.4550   33.1220 N.pl3 226  ARG226      0.1354
@<TRIPOS>BOND
     1    45    44    2
     2    76    75    2
     3    44    43    1
     4    75    74    1
     5    74    73    1
     6    74    77    1
     7    42    43    1
     8    43    46    1
     9    77    78    1
    10    77    79    1
    11    46    47    1
    12    69    67   ar
    13    69    71   ar
    14    63    64    2
    15    63    62    1
    16    67    66   ar
    17    72    71    1
    18    47    49    1
    19    47    48    1
    20    62    61    1
    21    62    65    1
    22    71    70   ar
    23    60    59    2
    24    99   100    1
    25    99    98    1
    26    61    59   am
    27    59    58    1
    28    66    65    1
    29    66    68   ar
    30    80    81    1
    31    95    98    1
    32    95    94    1
    33    95    96    1
    34     1     2    1
    35    97    96    2
    36   100   101    1
    37    58    57    1
    38    70    68   ar
    39    57    52   am
    40    81    82    1
    41    81    84    1
    42    93    91    1
    43     2     3    1
    44     2     5    1
    45     3     4    2
    46    86    87    1
    47    82    83    2
    48   101   102    2
    49    87    88    1
    50    87    90    1
    51   104   102    1
    52    52    53    2
    53    52    51    1
    54    91    90    1
    55    91    92    1
    56    84    85    1
    57    89    88    2
    58   102   103    1
    59     5     6    1
    60    51    50    1
    61    51    54    1
    62    54    56    1
    63    54    55    1
    64    40    39    1
    65    41    39    1
    66    39    36    1
    67    36    37    1
    68    36    35    1
    69    38    37    2
    70    28    26   ar
    71    28    27   ar
    72    34    33    1
    73    33    30    1
    74    26    24   ar
    75    27    25   ar
    76    32    31    2
    77    14    12    1
    78    30    31    1
    79    30    29    1
    80    12    11    1
    81    25    22   ar
    82    24    22   ar
    83    24    23   ar
    84    22    20   ar
    85    23    21   ar
    86    11    13    1
    87    11     8    1
    88     7     8    1
    89     8     9    1
    90    20    21   ar
    91    20    19    1
    92    19    16    1
    93     9    10    2
    94    16    15    1
    95    16    17    1
    96    17    18    2
