@<TRIPOS>MOLECULE
tmp/5qavD00.pdb
 128 122 0 0 0
SMALL
GASTEIGER

@<TRIPOS>ATOM
      1  N        129.8030  236.1000   31.3850 N.3    47  SER47      -0.1217
      2  CA       130.3620  235.6980   32.6710 C.3    47  SER47       0.1889
      3  C        130.9380  234.2800   32.6790 C.2    47  SER47       0.2288
      4  O        131.5490  233.8950   33.6870 O.2    47  SER47      -0.2866
      5  CB       129.3050  235.8510   33.7720 C.3    47  SER47       0.2089
      6  OG       128.9550  237.2320   33.9480 O.3    47  SER47      -0.2183
      7  N        122.6230  245.1360   41.0540 N.3    78  ILE78      -0.1245
      8  CA       122.6020  243.7710   41.5680 C.3    78  ILE78       0.1561
      9  C        122.9760  243.8450   43.0440 C.2    78  ILE78       0.2260
     10  O        124.1320  244.1120   43.3880 O.2    78  ILE78      -0.2867
     11  CB       123.5590  242.8560   40.7910 C.3    78  ILE78       0.0252
     12  CG1      123.3060  242.9400   39.2740 C.3    78  ILE78       0.0019
     13  CG2      123.4290  241.4100   41.2760 C.3    78  ILE78       0.0019
     14  CD1      121.9210  242.5040   38.8320 C.3    78  ILE78       0.0001
     15  N        123.5020  241.7190   45.4040 N.3    80  THR80      -0.1203
     16  CA       124.5580  240.8440   45.9120 C.3    80  THR80       0.1994
     17  C        125.9540  241.3390   45.5470 C.2    80  THR80       0.2617
     18  O        126.9390  240.8570   46.1180 O.2    80  THR80      -0.2717
     19  CB       124.3840  239.4190   45.3800 C.3    80  THR80       0.1784
     20  OG1      124.3710  239.4460   43.9560 O.3    80  THR80      -0.2211
     21  CG2      123.0810  238.8020   45.8740 C.3    80  THR80       0.0376
     22  N        126.0670  242.2730   44.5970 N.am   81  TRP81      -0.1975
     23  CA       127.3640  242.8410   44.2530 C.3    81  TRP81       0.1640
     24  C        127.8100  243.9240   45.2240 C.2    81  TRP81       0.2290
     25  O        129.0030  244.2450   45.2700 O.2    81  TRP81      -0.2864
     26  CB       127.3260  243.4590   42.8560 C.3    81  TRP81       0.0576
     27  CG       127.1290  242.5200   41.7280 C.ar   81  TRP81       0.0006
     28  CD1      126.8640  241.1850   41.7850 C.ar   81  TRP81       0.0946
     29  CD2      127.1900  242.8610   40.3420 C.ar   81  TRP81       0.0152
     30  NE1      126.7550  240.6720   40.5090 N.ar   81  TRP81      -0.2442
     31  CE2      126.9470  241.6890   39.6100 C.ar   81  TRP81       0.0810
     32  CE3      127.4190  244.0560   39.6530 C.ar   81  TRP81       0.0012
     33  CZ2      126.9380  241.6730   38.2220 C.ar   81  TRP81       0.0191
     34  CZ3      127.4090  244.0380   38.2810 C.ar   81  TRP81       0.0001
     35  CH2      127.1700  242.8650   37.5790 C.ar   81  TRP81       0.0015
     36  N        127.9860  234.6940   42.5950 N.3    93  TYR93      -0.1227
     37  CA       127.0960  235.8120   42.3130 C.3    93  TYR93       0.1736
     38  C        127.4850  236.5790   41.0540 C.2    93  TYR93       0.2596
     39  O        126.9350  237.6590   40.8060 O.2    93  TYR93      -0.2718
     40  CB       127.0480  236.7490   43.5180 C.3    93  TYR93       0.0548
     41  CG       126.4410  236.0640   44.7140 C.ar   93  TYR93      -0.0200
     42  CD1      125.0810  235.7860   44.7580 C.ar   93  TYR93      -0.0009
     43  CD2      127.2250  235.6640   45.7790 C.ar   93  TYR93      -0.0009
     44  CE1      124.5180  235.1410   45.8390 C.ar   93  TYR93       0.0417
     45  CE2      126.6730  235.0130   46.8680 C.ar   93  TYR93       0.0417
     46  CZ       125.3200  234.7520   46.8920 C.ar   93  TYR93       0.1957
     47  OH       124.7580  234.1190   47.9820 O.3    93  TYR93      -0.2866
     48  N        128.3970  236.0350   40.2490 N.am   94  SER94      -0.1952
     49  CA       128.8010  236.6210   38.9680 C.3    94  SER94       0.1924
     50  C        129.1170  238.1060   39.1180 C.2    94  SER94       0.2314
     51  O        128.5820  238.9600   38.4080 O.2    94  SER94      -0.2863
     52  CB       127.7240  236.4140   37.9010 C.3    94  SER94       0.2116
     53  OG       127.4690  235.0420   37.6830 O.3    94  SER94      -0.2180
     54  N        130.6640  241.0090   38.3840 N.3    96  VAL96      -0.1245
     55  CA       131.4520  241.6380   37.3170 C.3    96  VAL96       0.1561
     56  C        132.5080  242.6090   37.8470 C.2    96  VAL96       0.2260
     57  O        133.6660  242.5230   37.4140 O.2    96  VAL96      -0.2867
     58  CB       130.5090  242.3060   36.3030 C.3    96  VAL96       0.0252
     59  CG1      131.2910  243.1280   35.2610 C.3    96  VAL96       0.0019
     60  CG2      129.6350  241.2630   35.6370 C.3    96  VAL96       0.0019
     61  N        132.4490  241.0130   27.5960 N.3   134  LEU134     -0.1245
     62  CA       131.0750  241.4980   27.5850 C.3   134  LEU134      0.1561
     63  C        130.7180  242.2930   26.3390 C.2   134  LEU134      0.2260
     64  O        129.5700  242.2410   25.9000 O.2   134  LEU134     -0.2867
     65  CB       130.8190  242.3810   28.8160 C.3   134  LEU134      0.0270
     66  CG       131.0530  241.6710   30.1540 C.3   134  LEU134      0.0019
     67  CD1      131.1220  242.6750   31.2930 C.3   134  LEU134      0.0001
     68  CD2      129.9490  240.6600   30.4160 C.3   134  LEU134      0.0001
     69  N        127.4820  230.1530   34.9420 N.3   185  THR185     -0.1203
     70  CA       126.4730  230.8040   34.1180 C.3   185  THR185      0.1994
     71  C        127.0430  232.0350   33.4220 C.2   185  THR185      0.2618
     72  O        128.0300  232.6360   33.8570 O.2   185  THR185     -0.2717
     73  CB       125.2770  231.2440   34.9650 C.3   185  THR185      0.1784
     74  OG1      125.7330  232.1000   36.0220 O.3   185  THR185     -0.2211
     75  CG2      124.5450  230.0460   35.5470 C.3   185  THR185      0.0376
     76  N        126.3780  232.4230   32.3400 N.am  186  GLY186     -0.1942
     77  CA       126.6920  233.6580   31.6510 C.3   186  GLY186      0.2014
     78  C        125.4330  234.2910   31.1000 C.2   186  GLY186      0.2638
     79  O        124.4490  233.6120   30.7970 O.2   186  GLY186     -0.2714
     80  N        125.4840  235.6120   30.9590 N.am  187  TYR187     -0.1973
     81  CA       124.3460  236.3910   30.4760 C.3   187  TYR187      0.1639
     82  C        124.9130  237.5430   29.6590 C.2   187  TYR187      0.2290
     83  O        125.4750  238.4820   30.2310 O.2   187  TYR187     -0.2864
     84  CB       123.5150  236.8980   31.6500 C.3   187  TYR187      0.0560
     85  CG       122.2440  237.6440   31.3080 C.ar  187  TYR187     -0.0198
     86  CD1      121.5940  237.4600   30.0980 C.ar  187  TYR187     -0.0009
     87  CD2      121.6890  238.5350   32.2200 C.ar  187  TYR187     -0.0009
     88  CE1      120.4210  238.1490   29.8060 C.ar  187  TYR187      0.0417
     89  CE2      120.5270  239.2210   31.9390 C.ar  187  TYR187      0.0417
     90  CZ       119.8970  239.0260   30.7360 C.ar  187  TYR187      0.1957
     91  OH       118.7420  239.7260   30.4740 O.3   187  TYR187     -0.2866
     92  N        124.3610  240.6710   27.3530 N.3   189  THR189     -0.1203
     93  CA       123.3330  241.6640   27.0790 C.3   189  THR189      0.1994
     94  C        123.8390  242.9020   26.3570 C.2   189  THR189      0.2617
     95  O        123.0130  243.7090   25.9150 O.2   189  THR189     -0.2717
     96  CB       122.6690  242.1350   28.3810 C.3   189  THR189      0.1784
     97  OG1      123.6520  242.7750   29.2030 O.3   189  THR189     -0.2211
     98  CG2      122.0530  240.9700   29.1350 C.3   189  THR189      0.0376
     99  N        125.1540  243.1170   26.2770 N.am  190  ARG190     -0.1979
    100  CA       125.6420  244.3930   25.7610 C.3   190  ARG190      0.1597
    101  C        125.6400  244.4350   24.2410 C.2   190  ARG190      0.2287
    102  O        125.4820  245.5130   23.6530 O.2   190  ARG190     -0.2864
    103  CB       127.0570  244.6620   26.2710 C.3   190  ARG190      0.0334
    104  CG       127.1540  244.7660   27.7800 C.3   190  ARG190      0.0492
    105  CD       128.5030  245.3230   28.2060 C.3   190  ARG190      0.2205
    106  NE       128.5960  245.4880   29.6560 N.pl3 190  ARG190     -0.0865
    107  CZ       129.5480  246.1850   30.2730 C.cat 190  ARG190      0.5346
    108  NH1      130.4920  246.8060   29.5780 N.pl3 190  ARG190      0.1354
    109  NH2      129.5510  246.2780   31.5940 N.pl3 190  ARG190      0.1354
    110  N        116.0600  233.4110   32.5530 N.3   223  LEU223     -0.1245
    111  CA       117.4040  232.9820   32.9240 C.3   223  LEU223      0.1561
    112  C        117.4000  231.5950   33.5570 C.2   223  LEU223      0.2260
    113  O        118.3420  230.8200   33.3670 O.2   223  LEU223     -0.2867
    114  CB       118.0360  234.0040   33.8690 C.3   223  LEU223      0.0270
    115  CG       118.5290  235.2900   33.2040 C.3   223  LEU223      0.0019
    116  CD1      118.9300  236.3110   34.2520 C.3   223  LEU223      0.0001
    117  CD2      119.7000  235.0070   32.2650 C.3   223  LEU223      0.0001
    118  N        118.2080  228.2890   31.5620 N.3   226  ARG226     -0.1245
    119  CA       119.5430  227.7960   31.2450 C.3   226  ARG226      0.1563
    120  C        119.8060  226.4770   31.9580 C.2   226  ARG226      0.2260
    121  O        120.2270  225.4910   31.3390 O.2   226  ARG226     -0.2867
    122  CB       120.5960  228.8370   31.6270 C.3   226  ARG226      0.0307
    123  CG       120.4750  230.1610   30.8930 C.3   226  ARG226      0.0489
    124  CD       121.4140  231.2030   31.4930 C.3   226  ARG226      0.2205
    125  NE       121.0430  231.5380   32.8650 N.pl3 226  ARG226     -0.0865
    126  CZ       121.6880  232.4160   33.6280 C.cat 226  ARG226      0.5346
    127  NH1      121.2690  232.6530   34.8600 N.pl3 226  ARG226      0.1354
    128  NH2      122.7640  233.0440   33.1720 N.pl3 226  ARG226      0.1354
@<TRIPOS>BOND
     1   102   101    2
     2   101   100    1
     3   100   103    1
     4   100    99    1
     5    64    63    2
     6    95    94    2
     7   103   104    1
     8    99    94   am
     9    63    62    1
    10    94    93    1
    11    93    92    1
    12    93    96    1
    13    62    61    1
    14    62    65    1
    15   104   105    1
    16   105   106    1
    17    96    98    1
    18    96    97    1
    19    65    66    1
    20   108   107    1
    21   106   107    2
    22    82    83    2
    23    82    81    1
    24    88    86   ar
    25    88    90   ar
    26    86    85   ar
    27    66    68    1
    28    66    67    1
    29   107   109    1
    30    91    90    1
    31    81    80    1
    32    81    84    1
    33    90    89   ar
    34    79    78    2
    35   123   124    1
    36   123   122    1
    37    80    78   am
    38    78    77    1
    39   119   118    1
    40   119   122    1
    41   119   120    1
    42    85    84    1
    43    85    87   ar
    44   121   120    2
    45     1     2    1
    46   124   125    1
    47    77    76    1
    48    89    87   ar
    49   117   115    1
    50    76    71   am
    51   110   111    1
    52     2     3    1
    53     2     5    1
    54     3     4    2
    55   125   126    2
    56   111   112    1
    57   111   114    1
    58   128   126    1
    59   115   114    1
    60   115   116    1
    61   113   112    2
    62    71    72    2
    63    71    70    1
    64   126   127    1
    65     5     6    1
    66    70    69    1
    67    70    73    1
    68    73    75    1
    69    73    74    1
    70    59    58    1
    71    60    58    1
    72    58    55    1
    73    55    56    1
    74    55    54    1
    75    57    56    2
    76    35    33   ar
    77    35    34   ar
    78    53    52    1
    79    52    49    1
    80    33    31   ar
    81    34    32   ar
    82    51    50    2
    83    14    12    1
    84    49    50    1
    85    49    48    1
    86    12    11    1
    87    31    29   ar
    88    31    30   ar
    89    32    29   ar
    90    48    38   am
    91    29    27   ar
    92    30    28   ar
    93    11    13    1
    94    11     8    1
    95    39    38    2
    96    38    37    1
    97     7     8    1
    98     8     9    1
    99    27    28   ar
   100    27    26    1
   101    37    36    1
   102    37    40    1
   103    26    23    1
   104     9    10    2
   105    40    41    1
   106    20    19    1
   107    23    22    1
   108    23    24    1
   109    22    17   am
   110    41    42   ar
   111    41    43   ar
   112    42    44   ar
   113    24    25    2
   114    19    21    1
   115    19    16    1
   116    15    16    1
   117    17    16    1
   118    17    18    2
   119    43    45   ar
   120    44    46   ar
   121    45    46   ar
   122    46    47    1
