@<TRIPOS>MOLECULE
tmp/5qawD00.pdb
 104 96 0 0 0
SMALL
GASTEIGER

@<TRIPOS>ATOM
      1  N        130.6200  237.3600   31.3300 N.3    47  SER47      -0.1217
      2  CA       131.1200  236.9800   32.6430 C.3    47  SER47       0.1889
      3  C        131.6540  235.5520   32.7000 C.2    47  SER47       0.2288
      4  O        132.2470  235.1800   33.7190 O.2    47  SER47      -0.2866
      5  CB       130.0160  237.1800   33.6800 C.3    47  SER47       0.2089
      6  OG       129.6610  238.5560   33.7650 O.3    47  SER47      -0.2183
      7  N        123.1730  246.4150   41.0290 N.3    78  ILE78      -0.1245
      8  CA       123.1720  245.0690   41.5880 C.3    78  ILE78       0.1561
      9  C        123.5950  245.1620   43.0480 C.2    78  ILE78       0.2260
     10  O        124.7700  245.3910   43.3570 O.2    78  ILE78      -0.2867
     11  CB       124.0730  244.1310   40.7770 C.3    78  ILE78       0.0252
     12  CG1      123.5760  244.0760   39.3280 C.3    78  ILE78       0.0019
     13  CG2      124.1160  242.7580   41.4040 C.3    78  ILE78       0.0019
     14  CD1      124.5450  243.4730   38.3630 C.3    78  ILE78       0.0001
     15  N        126.6950  243.5600   44.5980 N.3    81  TRP81      -0.1241
     16  CA       128.0120  244.0770   44.2430 C.3    81  TRP81       0.1605
     17  C        128.5140  245.1240   45.2240 C.2    81  TRP81       0.2264
     18  O        129.7170  245.4080   45.2460 O.2    81  TRP81      -0.2867
     19  CB       127.9890  244.7010   42.8470 C.3    81  TRP81       0.0550
     20  CG       127.8320  243.7270   41.7170 C.ar   81  TRP81       0.0003
     21  CD1      127.6000  242.3860   41.8080 C.ar   81  TRP81       0.0946
     22  CD2      127.9040  244.0280   40.3160 C.ar   81  TRP81       0.0152
     23  NE1      127.5200  241.8340   40.5510 N.ar   81  TRP81      -0.2442
     24  CE2      127.7030  242.8210   39.6190 C.ar   81  TRP81       0.0810
     25  CE3      128.1180  245.2020   39.5870 C.ar   81  TRP81       0.0012
     26  CZ2      127.7120  242.7530   38.2270 C.ar   81  TRP81       0.0191
     27  CZ3      128.1240  245.1350   38.2050 C.ar   81  TRP81       0.0001
     28  CH2      127.9220  243.9170   37.5390 C.ar   81  TRP81       0.0015
     29  N        129.1730  237.2070   40.1530 N.3    94  SER94      -0.1217
     30  CA       129.6120  237.8320   38.9040 C.3    94  SER94       0.1889
     31  C        129.8740  239.3230   39.1070 C.2    94  SER94       0.2288
     32  O        129.2940  240.1840   38.4430 O.2    94  SER94      -0.2866
     33  CB       128.5920  237.6130   37.7840 C.3    94  SER94       0.2089
     34  OG       128.3970  236.2390   37.5190 O.3    94  SER94      -0.2183
     35  N        131.3970  242.2440   38.3980 N.3    96  VAL96      -0.1245
     36  CA       132.2100  242.8420   37.3340 C.3    96  VAL96       0.1561
     37  C        133.2510  243.8160   37.8800 C.2    96  VAL96       0.2260
     38  O        134.4260  243.7010   37.5040 O.2    96  VAL96      -0.2867
     39  CB       131.3010  243.4810   36.2740 C.3    96  VAL96       0.0252
     40  CG1      132.1260  244.2500   35.2370 C.3    96  VAL96       0.0019
     41  CG2      130.4450  242.4160   35.5920 C.3    96  VAL96       0.0019
     42  N        133.1500  242.2650   27.6040 N.3   134  LEU134     -0.1245
     43  CA       131.7680  242.7240   27.6380 C.3   134  LEU134      0.1561
     44  C        131.3760  243.5280   26.4080 C.2   134  LEU134      0.2260
     45  O        130.2180  243.4690   25.9890 O.2   134  LEU134     -0.2867
     46  CB       131.5280  243.5770   28.8900 C.3   134  LEU134      0.0270
     47  CG       131.8010  242.8820   30.2260 C.3   134  LEU134      0.0019
     48  CD1      131.7900  243.8870   31.3700 C.3   134  LEU134      0.0001
     49  CD2      130.7800  241.7790   30.4760 C.3   134  LEU134      0.0001
     50  N        128.2020  231.4060   34.8990 N.3   185  THR185     -0.1203
     51  CA       127.1890  232.0240   34.0620 C.3   185  THR185      0.1994
     52  C        127.7570  233.2270   33.3190 C.2   185  THR185      0.2618
     53  O        128.8140  233.7660   33.6590 O.2   185  THR185     -0.2717
     54  CB       125.9880  232.4710   34.8950 C.3   185  THR185      0.1784
     55  OG1      126.4170  233.4110   35.8870 O.3   185  THR185     -0.2211
     56  CG2      125.3140  231.2780   35.5740 C.3   185  THR185      0.0376
     57  N        127.0410  233.6300   32.2820 N.am  186  GLY186     -0.1942
     58  CA       127.3940  234.8210   31.5290 C.3   186  GLY186      0.2014
     59  C        126.1460  235.4970   31.0190 C.2   186  GLY186      0.2638
     60  O        125.1380  234.8460   30.7250 O.2   186  GLY186     -0.2714
     61  N        126.2140  236.8190   30.9120 N.am  187  TYR187     -0.1973
     62  CA       125.0850  237.6220   30.4560 C.3   187  TYR187      0.1639
     63  C        125.6540  238.7750   29.6440 C.2   187  TYR187      0.2290
     64  O        126.2850  239.6750   30.2080 O.2   187  TYR187     -0.2864
     65  CB       124.2590  238.1320   31.6370 C.3   187  TYR187      0.0560
     66  CG       122.9640  238.8260   31.2670 C.ar  187  TYR187     -0.0198
     67  CD1      122.3850  238.6570   30.0150 C.ar  187  TYR187     -0.0009
     68  CD2      122.3160  239.6480   32.1790 C.ar  187  TYR187     -0.0009
     69  CE1      121.1990  239.2880   29.6850 C.ar  187  TYR187      0.0417
     70  CE2      121.1340  240.2820   31.8580 C.ar  187  TYR187      0.0417
     71  CZ       120.5800  240.1010   30.6120 C.ar  187  TYR187      0.1957
     72  OH       119.4010  240.7360   30.2970 O.3   187  TYR187     -0.2866
     73  N        125.0110  241.9300   27.3400 N.3   189  THR189     -0.1218
     74  CA       124.0060  242.9310   27.0220 C.3   189  THR189      0.1862
     75  C        124.5590  244.1450   26.2960 C.2   189  THR189      0.2287
     76  O        123.7790  244.8710   25.6720 O.2   189  THR189     -0.2866
     77  CB       123.3000  243.4130   28.3000 C.3   189  THR189      0.1770
     78  OG1      124.2680  243.9370   29.2210 O.3   189  THR189     -0.2211
     79  CG2      122.5300  242.2740   28.9550 C.3   189  THR189      0.0375
     80  N        116.0900  240.2120   30.8950 N.3   220  SER220     -0.1217
     81  CA       116.6370  239.5270   32.0600 C.3   220  SER220      0.1889
     82  C        115.6750  238.5020   32.6450 C.2   220  SER220      0.2288
     83  O        116.0910  237.6950   33.4830 O.2   220  SER220     -0.2866
     84  CB       117.0090  240.5450   33.1380 C.3   220  SER220      0.2089
     85  OG       115.8560  241.2220   33.6120 O.3   220  SER220     -0.2183
     86  N        116.7590  234.6620   32.4750 N.3   223  LEU223     -0.1245
     87  CA       118.1020  234.2510   32.8760 C.3   223  LEU223      0.1561
     88  C        118.0960  232.8660   33.5100 C.2   223  LEU223      0.2260
     89  O        119.0250  232.0770   33.3000 O.2   223  LEU223     -0.2867
     90  CB       118.6980  235.2800   33.8360 C.3   223  LEU223      0.0270
     91  CG       119.2210  236.5740   33.2070 C.3   223  LEU223      0.0019
     92  CD1      119.5820  237.5820   34.2850 C.3   223  LEU223      0.0001
     93  CD2      120.4360  236.2910   32.3400 C.3   223  LEU223      0.0001
     94  N        118.9130  229.6090   31.4610 N.3   226  ARG226     -0.1245
     95  CA       120.2540  229.1130   31.1740 C.3   226  ARG226      0.1563
     96  C        120.4980  227.7820   31.8750 C.2   226  ARG226      0.2260
     97  O        120.9050  226.7980   31.2470 O.2   226  ARG226     -0.2867
     98  CB       121.2960  230.1470   31.6070 C.3   226  ARG226      0.0307
     99  CG       121.1980  231.4790   30.8780 C.3   226  ARG226      0.0489
    100  CD       122.1240  232.5180   31.5000 C.3   226  ARG226      0.2205
    101  NE       121.7220  232.8590   32.8620 N.pl3 226  ARG226     -0.0865
    102  CZ       122.3730  233.7150   33.6430 C.cat 226  ARG226      0.5346
    103  NH1      121.9310  233.9650   34.8700 N.pl3 226  ARG226      0.1354
    104  NH2      123.4660  234.3250   33.2000 N.pl3 226  ARG226      0.1354
@<TRIPOS>BOND
     1    76    75    2
     2    45    44    2
     3    75    74    1
     4    44    43    1
     5    74    73    1
     6    74    77    1
     7    42    43    1
     8    43    46    1
     9    77    79    1
    10    77    78    1
    11    46    47    1
    12    63    64    2
    13    63    62    1
    14    69    67   ar
    15    69    71   ar
    16    67    66   ar
    17    47    49    1
    18    47    48    1
    19    72    71    1
    20    62    61    1
    21    62    65    1
    22    71    70   ar
    23    60    59    2
    24    99   100    1
    25    99    98    1
    26    80    81    1
    27    61    59   am
    28    59    58    1
    29    95    94    1
    30    95    98    1
    31    95    96    1
    32    97    96    2
    33    66    65    1
    34    66    68   ar
    35     1     2    1
    36   100   101    1
    37    58    57    1
    38    70    68   ar
    39    81    82    1
    40    81    84    1
    41    57    52   am
    42    93    91    1
    43    86    87    1
    44     2     3    1
    45     2     5    1
    46    82    83    2
    47     3     4    2
    48   101   102    2
    49    87    88    1
    50    87    90    1
    51    84    85    1
    52   104   102    1
    53    91    90    1
    54    91    92    1
    55    89    88    2
    56    52    53    2
    57    52    51    1
    58   102   103    1
    59     5     6    1
    60    51    54    1
    61    51    50    1
    62    54    56    1
    63    54    55    1
    64    40    39    1
    65    41    39    1
    66    39    36    1
    67    36    37    1
    68    36    35    1
    69    38    37    2
    70    34    33    1
    71    28    27   ar
    72    28    26   ar
    73    33    30    1
    74    27    25   ar
    75    26    24   ar
    76    14    12    1
    77    32    31    2
    78    30    31    1
    79    30    29    1
    80    12    11    1
    81    25    22   ar
    82    24    22   ar
    83    24    23   ar
    84    22    20   ar
    85    23    21   ar
    86    11    13    1
    87    11     8    1
    88     7     8    1
    89     8     9    1
    90    20    21   ar
    91    20    19    1
    92    19    16    1
    93     9    10    2
    94    16    15    1
    95    16    17    1
    96    17    18    2
