@<TRIPOS>MOLECULE
tmp/5qayA00.pdb
 120 116 0 0 0
SMALL
GASTEIGER

@<TRIPOS>ATOM
      1  N         12.1030  -85.4360  146.3720 N.3    78  ILE78      -0.1245
      2  CA        12.1270  -86.7940  145.8470 C.3    78  ILE78       0.1561
      3  C         11.7430  -86.6960  144.3780 C.2    78  ILE78       0.2260
      4  O         10.5810  -86.4280  144.0470 O.2    78  ILE78      -0.2867
      5  CB        11.1720  -87.7200  146.6150 C.3    78  ILE78       0.0252
      6  CG1       11.4930  -87.7300  148.1040 C.3    78  ILE78       0.0019
      7  CG2       11.2320  -89.1280  146.0620 C.3    78  ILE78       0.0019
      8  CD1       12.8610  -88.2550  148.4560 C.3    78  ILE78       0.0001
      9  N         11.2220  -88.7600  141.9730 N.3    80  THR80      -0.1203
     10  CA        10.1570  -89.6270  141.4810 C.3    80  THR80       0.1994
     11  C          8.7680  -89.1730  141.9190 C.2    80  THR80       0.2617
     12  O          7.7780  -89.7300  141.4330 O.2    80  THR80      -0.2717
     13  CB        10.3900  -91.0750  141.9320 C.3    80  THR80       0.1784
     14  OG1        9.2940  -91.8930  141.5030 O.3    80  THR80      -0.2211
     15  CG2       10.5280  -91.1720  143.4450 C.3    80  THR80       0.0376
     16  N          8.6640  -88.1870  142.8140 N.am   81  TRP81      -0.1975
     17  CA         7.3650  -87.6490  143.1910 C.3    81  TRP81       0.1640
     18  C          6.9010  -86.5450  142.2590 C.2    81  TRP81       0.2290
     19  O          5.7110  -86.2060  142.2630 O.2    81  TRP81      -0.2864
     20  CB         7.4070  -87.0950  144.6140 C.3    81  TRP81       0.0576
     21  CG         7.6190  -88.0940  145.6700 C.ar   81  TRP81       0.0006
     22  CD1        7.8840  -89.4300  145.5330 C.ar   81  TRP81       0.0946
     23  CD2        7.5760  -87.8360  147.0670 C.ar   81  TRP81       0.0152
     24  NE1        8.0060  -90.0140  146.7690 N.ar   81  TRP81      -0.2442
     25  CE2        7.8200  -89.0530  147.7260 C.ar   81  TRP81       0.0810
     26  CE3        7.3540  -86.6820  147.8270 C.ar   81  TRP81       0.0012
     27  CZ2        7.8470  -89.1550  149.1120 C.ar   81  TRP81       0.0191
     28  CZ3        7.3900  -86.7910  149.1890 C.ar   81  TRP81       0.0001
     29  CH2        7.6280  -88.0210  149.8140 C.ar   81  TRP81       0.0015
     30  N          4.8690  -97.9060  144.8500 N.3    92  LYS92      -0.1231
     31  CA         6.2610  -98.2300  144.5610 C.3    92  LYS92       0.1693
     32  C          7.2150  -97.1200  145.0270 C.2    92  LYS92       0.2592
     33  O          8.2780  -97.4020  145.5850 O.2    92  LYS92      -0.2718
     34  CB         6.4090  -98.4930  143.0520 C.3    92  LYS92       0.0285
     35  CG         7.8280  -98.7920  142.5830 C.3    92  LYS92       0.0035
     36  CD         7.8200  -99.0960  141.0770 C.3    92  LYS92       0.0206
     37  CE         9.2320  -99.3040  140.5140 C.3    92  LYS92       0.1093
     38  NZ         9.1910  -99.5010  139.0840 N.3    92  LYS92      -0.1314
     39  N          6.8800  -95.8630  144.7790 N.am   93  TYR93      -0.1962
     40  CA         7.7880  -94.7670  145.0860 C.3    93  TYR93       0.1771
     41  C          7.3970  -94.0410  146.3690 C.2    93  TYR93       0.2620
     42  O          7.9930  -93.0100  146.6990 O.2    93  TYR93      -0.2715
     43  CB         7.8510  -93.7900  143.9020 C.3    93  TYR93       0.0574
     44  CG         8.4430  -94.4310  142.6640 C.ar   93  TYR93      -0.0198
     45  CD1        9.8090  -94.6850  142.5900 C.ar   93  TYR93      -0.0009
     46  CD2        7.6430  -94.8190  141.5970 C.ar   93  TYR93      -0.0009
     47  CE1       10.3630  -95.2980  141.4830 C.ar   93  TYR93       0.0417
     48  CE2        8.1960  -95.4140  140.4830 C.ar   93  TYR93       0.0417
     49  CZ         9.5540  -95.6560  140.4380 C.ar   93  TYR93       0.1957
     50  OH        10.1100  -96.2720  139.3280 O.3    93  TYR93      -0.2866
     51  N          6.4330  -94.5830  147.1120 N.am   94  SER94      -0.1950
     52  CA         5.9680  -94.0080  148.3770 C.3    94  SER94       0.1924
     53  C          5.6750  -92.5090  148.2430 C.2    94  SER94       0.2314
     54  O          6.1790  -91.6750  148.9940 O.2    94  SER94      -0.2863
     55  CB         6.9850  -94.3260  149.4720 C.3    94  SER94       0.2116
     56  OG         6.3480  -94.3680  150.7440 O.3    94  SER94      -0.2180
     57  N          7.4320 -100.5600  152.3840 N.3   185  THR185     -0.1203
     58  CA         8.4230  -99.8780  153.2230 C.3   185  THR185      0.1994
     59  C          7.8310  -98.6540  153.9130 C.2   185  THR185      0.2618
     60  O          6.8310  -98.0850  153.4800 O.2   185  THR185     -0.2717
     61  CB         9.6210  -99.4030  152.3930 C.3   185  THR185      0.1784
     62  OG1        9.1460  -98.5120  151.3670 O.3   185  THR185     -0.2211
     63  CG2       10.3520 -100.5810  151.7210 C.3   185  THR185      0.0376
     64  N          8.4960  -98.2460  154.9800 N.am  186  GLY186     -0.1942
     65  CA         8.1970  -96.9810  155.6460 C.3   186  GLY186      0.2014
     66  C          9.4550  -96.3540  156.1740 C.2   186  GLY186      0.2638
     67  O         10.4210  -97.0400  156.5290 O.2   186  GLY186     -0.2714
     68  N          9.4120  -95.0330  156.2980 N.am  187  TYR187     -0.1973
     69  CA        10.5320  -94.2500  156.8140 C.3   187  TYR187      0.1639
     70  C          9.9100  -93.1270  157.6330 C.2   187  TYR187      0.2290
     71  O          9.2500  -92.2560  157.0670 O.2   187  TYR187     -0.2864
     72  CB        11.3890  -93.7080  155.6730 C.3   187  TYR187      0.0560
     73  CG        12.6580  -92.9580  156.0330 C.ar  187  TYR187     -0.0198
     74  CD1       13.2980  -93.1390  157.2520 C.ar  187  TYR187     -0.0009
     75  CD2       13.2350  -92.0880  155.1210 C.ar  187  TYR187     -0.0009
     76  CE1       14.4570  -92.4410  157.5600 C.ar  187  TYR187      0.0417
     77  CE2       14.3790  -91.3830  155.4280 C.ar  187  TYR187      0.0417
     78  CZ        14.9900  -91.5770  156.6300 C.ar  187  TYR187      0.1957
     79  OH        16.1310  -90.8900  156.9090 O.3   187  TYR187     -0.2866
     80  N         10.5430  -89.9740  159.8890 N.3   189  THR189     -0.1218
     81  CA        11.5910  -88.9880  160.1530 C.3   189  THR189      0.1862
     82  C         11.1080  -87.7700  160.9110 C.2   189  THR189      0.2287
     83  O         11.9420  -86.9620  161.3270 O.2   189  THR189     -0.2866
     84  CB        12.1960  -88.4420  158.8540 C.3   189  THR189      0.1770
     85  OG1       11.1890  -87.7030  158.1350 O.3   189  THR189     -0.2211
     86  CG2       12.7100  -89.5870  157.9870 C.3   189  THR189      0.0375
     87  N         19.2030  -91.4200  156.1030 N.3   220  SER220     -0.1217
     88  CA        18.6750  -92.1750  154.9720 C.3   220  SER220      0.1889
     89  C         19.6980  -93.1260  154.3620 C.2   220  SER220      0.2288
     90  O         19.3310  -93.9300  153.4940 O.2   220  SER220     -0.2866
     91  CB        18.1400  -91.2290  153.8900 C.3   220  SER220      0.2089
     92  OG        19.1210  -90.3330  153.4010 O.3   220  SER220     -0.2183
     93  N         18.6970  -96.9910  154.5850 N.3   223  LEU223     -0.1245
     94  CA        17.3540  -97.4540  154.2330 C.3   223  LEU223      0.1561
     95  C         17.3800  -98.8380  153.5730 C.2   223  LEU223      0.2260
     96  O         16.4960  -99.6630  153.8110 O.2   223  LEU223     -0.2867
     97  CB        16.6820  -96.4280  153.3150 C.3   223  LEU223      0.0270
     98  CG        16.1820  -95.1650  154.0030 C.3   223  LEU223      0.0019
     99  CD1       15.7800  -94.1120  152.9980 C.3   223  LEU223      0.0001
    100  CD2       15.0140  -95.5100  154.9200 C.3   223  LEU223      0.0001
    101  N         16.7020 -102.1460  155.5270 N.3   226  ARG226     -0.1231
    102  CA        15.3830 -102.6660  155.8760 C.3   226  ARG226      0.1694
    103  C         15.1290 -103.9870  155.1560 C.2   226  ARG226      0.2591
    104  O         14.7650 -104.9930  155.7770 O.2   226  ARG226     -0.2718
    105  CB        14.3000 -101.6510  155.5190 C.3   226  ARG226      0.0321
    106  CG        14.3960 -100.3420  156.2860 C.3   226  ARG226      0.0489
    107  CD        13.4110  -99.3190  155.7270 C.3   226  ARG226      0.2205
    108  NE        13.7390  -98.9900  154.3410 N.pl3 226  ARG226     -0.0865
    109  CZ        13.0750  -98.1190  153.5920 C.cat 226  ARG226      0.5346
    110  NH1       13.4490  -97.9100  152.3430 N.pl3 226  ARG226      0.1354
    111  NH2       12.0370  -97.4540  154.0890 N.pl3 226  ARG226      0.1354
    112  N         15.3580 -104.0130  153.8380 N.am  227  GLN227     -0.1979
    113  CA        15.1650 -105.2440  153.0780 C.3   227  GLN227      0.1601
    114  C         16.3100 -106.2270  153.2770 C.2   227  GLN227      0.2287
    115  O         16.0740 -107.4360  153.3810 O.2   227  GLN227     -0.2864
    116  CB        15.0020 -104.9290  151.5810 C.3   227  GLN227      0.0394
    117  CG        13.7960 -104.0990  151.2650 C.3   227  GLN227      0.0908
    118  CD        14.1140 -102.6440  151.2060 C.2   227  GLN227      0.2608
    119  OE1       15.0840 -102.1720  151.8260 O.2   227  GLN227     -0.2717
    120  NE2       13.2820 -101.8940  150.4860 N.am  227  GLN227     -0.0878
@<TRIPOS>BOND
     1    38    37    1
     2    50    49    1
     3    49    48   ar
     4    49    47   ar
     5    48    46   ar
     6    37    36    1
     7    36    35    1
     8    12    11    2
     9    10    11    1
    10    10    13    1
    11    10     9    1
    12    47    45   ar
    13    14    13    1
    14    46    44   ar
    15    11    16   am
    16    13    15    1
    17    18    19    2
    18    18    17    1
    19    35    34    1
    20    45    44   ar
    21    44    43    1
    22    16    17    1
    23    34    31    1
    24    17    20    1
    25    43    40    1
    26     4     3    2
    27     3     2    1
    28    31    30    1
    29    31    32    1
    30    20    21    1
    31    39    32   am
    32    39    40    1
    33    32    33    2
    34    40    41    1
    35    22    21   ar
    36    22    24   ar
    37    21    23   ar
    38     2     1    1
    39     2     5    1
    40     7     5    1
    41    41    42    2
    42    41    51   am
    43     5     6    1
    44    24    25   ar
    45    23    25   ar
    46    23    26   ar
    47    51    52    1
    48    25    27   ar
    49    26    28   ar
    50     6     8    1
    51    53    52    1
    52    53    54    2
    53    52    55    1
    54    27    29   ar
    55    28    29   ar
    56    55    56    1
    57   120   118   am
    58   118   117    1
    59   118   119    2
    60   117   116    1
    61    62    61    1
    62   116   113    1
    63    63    61    1
    64   110   109    1
    65    57    58    1
    66    61    58    1
    67    99    98    1
    68   113   114    1
    69   113   112    1
    70    58    59    1
    71   114   115    2
    72    97    98    1
    73    97    94    1
    74    92    91    1
    75    60    59    2
    76    90    89    2
    77    95    96    2
    78    95    94    1
    79   109   111    1
    80   109   108    2
    81   112   103   am
    82    91    88    1
    83    59    64   am
    84    98   100    1
    85    94    93    1
    86   108   107    1
    87    89    88    1
    88    88    87    1
    89    64    65    1
    90    75    77   ar
    91    75    73   ar
    92   103   104    2
    93   103   102    1
    94    77    78   ar
    95   105   102    1
    96   105   106    1
    97   101   102    1
    98    65    66    1
    99    72    73    1
   100    72    69    1
   101   107   106    1
   102    73    74   ar
   103    66    68   am
   104    66    67    2
   105    68    69    1
   106    78    79    1
   107    78    76   ar
   108    69    70    1
   109    71    70    2
   110    74    76   ar
   111    86    84    1
   112    85    84    1
   113    84    81    1
   114    80    81    1
   115    81    82    1
   116    82    83    2
