@<TRIPOS>MOLECULE
tmp/5qazA00.pdb
 110 106 0 0 0
SMALL
GASTEIGER

@<TRIPOS>ATOM
      1  N         89.0590  253.6760    2.1100 N.3    47  SER47      -0.1217
      2  CA        88.8430  254.1850    3.4600 C.3    47  SER47       0.1889
      3  C         88.6200  255.6890    3.5080 C.2    47  SER47       0.2288
      4  O         88.3170  256.2110    4.5880 O.2    47  SER47      -0.2866
      5  CB        90.0270  253.8270    4.3540 C.3    47  SER47       0.2089
      6  OG        90.1990  252.4270    4.4310 O.3    47  SER47      -0.2183
      7  N         95.4810  243.2150   11.2900 N.3    78  ILE78      -0.1245
      8  CA        95.8550  244.5570   11.7350 C.3    78  ILE78       0.1561
      9  C         95.6200  244.6190   13.2400 C.2    78  ILE78       0.2260
     10  O         94.4790  244.5520   13.7090 O.2    78  ILE78      -0.2867
     11  CB        95.0870  245.6670   10.9970 C.3    78  ILE78       0.0252
     12  CG1       95.4270  245.6940    9.5020 C.3    78  ILE78       0.0019
     13  CG2       95.3940  247.0230   11.5930 C.3    78  ILE78       0.0019
     14  CD1       94.5290  244.8600    8.6570 C.3    78  ILE78       0.0001
     15  N         95.7420  246.9200   15.5830 N.3    80  THR80      -0.1203
     16  CA        94.9440  247.9950   16.1720 C.3    80  THR80       0.1994
     17  C         93.4480  247.8110   15.9630 C.2    80  THR80       0.2617
     18  O         92.6570  248.4980   16.6210 O.2    80  THR80      -0.2717
     19  CB        95.3610  249.3390   15.5870 C.3    80  THR80       0.1784
     20  OG1       95.3590  249.2470   14.1590 O.3    80  THR80      -0.2211
     21  CG2       96.7590  249.7380   16.0890 C.3    80  THR80       0.0376
     22  N         93.0470  246.9330   15.0430 N.am   81  TRP81      -0.1975
     23  CA        91.6400  246.6200   14.8300 C.3    81  TRP81       0.1640
     24  C         91.0870  245.6540   15.8750 C.2    81  TRP81       0.2290
     25  O         89.8710  245.6320   16.0920 O.2    81  TRP81      -0.2864
     26  CB        91.4460  246.0050   13.4350 C.3    81  TRP81       0.0576
     27  CG        91.7020  246.9580   12.2880 C.ar   81  TRP81       0.0006
     28  CD1       92.2070  248.2180   12.3670 C.ar   81  TRP81       0.0946
     29  CD2       91.4580  246.7110   10.8960 C.ar   81  TRP81       0.0152
     30  NE1       92.2940  248.7770   11.1110 N.ar   81  TRP81      -0.2442
     31  CE2       91.8400  247.8700   10.1910 C.ar   81  TRP81       0.0810
     32  CE3       90.9530  245.6220   10.1790 C.ar   81  TRP81       0.0012
     33  CZ2       91.7270  247.9730    8.8040 C.ar   81  TRP81       0.0191
     34  CZ3       90.8460  245.7250    8.8100 C.ar   81  TRP81       0.0001
     35  CH2       91.2330  246.8960    8.1340 C.ar   81  TRP81       0.0015
     36  N         90.9930  257.1040   13.1410 N.3    92  LYS92      -0.1231
     37  CA        92.4480  257.2250   13.1350 C.3    92  LYS92       0.1693
     38  C         93.1160  255.9820   12.5560 C.2    92  LYS92       0.2592
     39  O         94.1000  256.0850   11.8120 O.2    92  LYS92      -0.2718
     40  CB        92.9340  257.4870   14.5630 C.3    92  LYS92       0.0285
     41  CG        94.4380  257.6270   14.7440 C.3    92  LYS92       0.0035
     42  CD        94.7620  257.8860   16.2230 C.3    92  LYS92       0.0206
     43  CE        96.2420  257.9130   16.4830 C.3    92  LYS92       0.1093
     44  NZ        96.5180  258.1290   17.9320 N.3    92  LYS92      -0.1314
     45  N         92.6160  254.7990   12.9080 N.am   93  TYR93      -0.1962
     46  CA        93.1960  253.5360   12.4680 C.3    93  TYR93       0.1771
     47  C         92.4340  252.9030   11.3100 C.2    93  TYR93       0.2620
     48  O         92.6390  251.7210   11.0200 O.2    93  TYR93      -0.2715
     49  CB        93.2750  252.5610   13.6410 C.3    93  TYR93       0.0574
     50  CG        94.1630  253.0730   14.7560 C.ar   93  TYR93      -0.0198
     51  CD1       95.5500  253.0090   14.6470 C.ar   93  TYR93      -0.0009
     52  CD2       93.6200  253.6330   15.9100 C.ar   93  TYR93      -0.0009
     53  CE1       96.3750  253.4750   15.6600 C.ar   93  TYR93       0.0417
     54  CE2       94.4330  254.1020   16.9240 C.ar   93  TYR93       0.0417
     55  CZ        95.8130  254.0200   16.7930 C.ar   93  TYR93       0.1957
     56  OH        96.6340  254.4850   17.7930 O.3    93  TYR93      -0.2866
     57  N         91.5460  253.6540   10.6660 N.am   94  SER94      -0.1950
     58  CA        90.8570  253.2140    9.4630 C.3    94  SER94       0.1924
     59  C         90.3020  251.7980    9.6500 C.2    94  SER94       0.2314
     60  O         90.5800  250.8790    8.8780 O.2    94  SER94      -0.2863
     61  CB        91.8080  253.3040    8.2640 C.3    94  SER94       0.2116
     62  OG        91.1070  253.1760    7.0490 O.3    94  SER94      -0.2180
     63  N         93.0420  259.0760    5.0990 N.3   185  THR185     -0.1203
     64  CA        93.8060  258.2640    4.1670 C.3   185  THR185      0.1994
     65  C         92.9110  257.2120    3.5210 C.2   185  THR185      0.2618
     66  O         91.8330  256.8790    4.0200 O.2   185  THR185     -0.2717
     67  CB        94.9590  257.5560    4.8750 C.3   185  THR185      0.1784
     68  OG1       94.4250  256.6830    5.8780 O.3   185  THR185     -0.2211
     69  CG2       95.9010  258.5680    5.5280 C.3   185  THR185      0.0376
     70  N         93.3940  256.6670    2.4130 N.am  186  GLY186     -0.1942
     71  CA        92.7360  255.5480    1.7610 C.3   186  GLY186      0.2014
     72  C         93.7560  254.6460    1.1060 C.2   186  GLY186      0.2638
     73  O         94.8530  255.0790    0.7400 O.2   186  GLY186     -0.2714
     74  N         93.3950  253.3690    0.9730 N.am  187  TYR187     -0.1973
     75  CA        94.2800  252.3700    0.3730 C.3   187  TYR187      0.1639
     76  C         93.3900  251.3560   -0.3400 C.2   187  TYR187      0.2290
     77  O         92.7710  250.5120    0.3150 O.2   187  TYR187     -0.2864
     78  CB        95.1410  251.7110    1.4410 C.3   187  TYR187      0.0560
     79  CG        96.1600  250.7140    0.9390 C.ar  187  TYR187     -0.0198
     80  CD1       96.6280  250.7420   -0.3670 C.ar  187  TYR187     -0.0009
     81  CD2       96.6350  249.7170    1.7800 C.ar  187  TYR187     -0.0009
     82  CE1       97.5580  249.8200   -0.8100 C.ar  187  TYR187      0.0417
     83  CE2       97.5580  248.7900    1.3450 C.ar  187  TYR187      0.0417
     84  CZ        98.0120  248.8420    0.0540 C.ar  187  TYR187      0.1957
     85  OH        98.9270  247.9040   -0.3550 O.3   187  TYR187     -0.2866
     86  N        102.2300  247.8540   -0.1010 N.3   220  SER220     -0.1217
     87  CA       101.9910  248.6350    1.1010 C.3   220  SER220      0.1889
     88  C        103.2320  249.3830    1.5730 C.2   220  SER220      0.2288
     89  O        103.1280  250.2070    2.4880 O.2   220  SER220     -0.2866
     90  CB       101.4830  247.7120    2.2100 C.3   220  SER220      0.2089
     91  OG       102.3710  246.6300    2.4000 O.3   220  SER220     -0.2183
     92  N        103.0190  253.4900    1.4750 N.3   223  LEU223     -0.1245
     93  CA       101.8640  254.2090    2.0100 C.3   223  LEU223      0.1561
     94  C        102.2630  255.5490    2.6290 C.2   223  LEU223      0.2260
     95  O        101.5200  256.5330    2.5260 O.2   223  LEU223     -0.2867
     96  CB       101.1370  253.3240    3.0190 C.3   223  LEU223      0.0270
     97  CG       100.3610  252.1600    2.3890 C.3   223  LEU223      0.0019
     98  CD1       99.8720  251.1830    3.4410 C.3   223  LEU223      0.0001
     99  CD2       99.1790  252.6660    1.5910 C.3   223  LEU223      0.0001
    100  N        102.0150  258.9610    0.6210 N.3   226  ARG226     -0.1245
    101  CA       100.7880  259.7380    0.4790 C.3   226  ARG226      0.1563
    102  C        100.8940  261.0630    1.2260 C.2   226  ARG226      0.2260
    103  O        100.6050  262.1310    0.6730 O.2   226  ARG226     -0.2867
    104  CB        99.6010  258.9230    0.9950 C.3   226  ARG226      0.0307
    105  CG        99.3670  257.6150    0.2530 C.3   226  ARG226      0.0489
    106  CD        98.3230  256.7620    0.9540 C.3   226  ARG226      0.2205
    107  NE        98.7450  256.3610    2.2960 N.pl3 226  ARG226     -0.0865
    108  CZ        98.0130  255.6300    3.1330 C.cat 226  ARG226      0.5346
    109  NH1       98.4930  255.3200    4.3330 N.pl3 226  ARG226      0.1354
    110  NH2       96.8080  255.2010    2.7760 N.pl3 226  ARG226      0.1354
@<TRIPOS>BOND
     1    82    80   ar
     2    82    84   ar
     3    80    79   ar
     4    85    84    1
     5    76    77    2
     6    76    75    1
     7    86    87    1
     8    84    83   ar
     9   105   106    1
    10   105   104    1
    11    75    74    1
    12    75    78    1
    13   101   100    1
    14   101   104    1
    15   101   102    1
    16   103   102    2
    17    73    72    2
    18    79    78    1
    19    79    81   ar
    20   106   107    1
    21    74    72   am
    22    87    88    1
    23    87    90    1
    24    72    71    1
    25    83    81   ar
    26    92    93    1
    27    88    89    2
    28    99    97    1
    29    71    70    1
    30    93    94    1
    31    93    96    1
    32     1     2    1
    33    90    91    1
    34   107   108    2
    35    97    96    1
    36    97    98    1
    37    70    65   am
    38    95    94    2
    39   110   108    1
    40   108   109    1
    41     2     3    1
    42     2     5    1
    43     3     4    2
    44    65    66    2
    45    65    64    1
    46    64    67    1
    47    64    63    1
    48     5     6    1
    49    67    69    1
    50    67    68    1
    51    62    61    1
    52    35    33   ar
    53    35    34   ar
    54    61    58    1
    55    14    12    1
    56    33    31   ar
    57    34    32   ar
    58    60    59    2
    59    58    59    1
    60    58    57    1
    61    12    11    1
    62    32    29   ar
    63    31    29   ar
    64    31    30   ar
    65    57    47   am
    66    29    27   ar
    67    11    13    1
    68    11     8    1
    69    48    47    2
    70    30    28   ar
    71     7     8    1
    72    47    46    1
    73     8     9    1
    74    39    38    2
    75    27    28   ar
    76    27    26    1
    77    46    45    1
    78    46    49    1
    79    38    45   am
    80    38    37    1
    81    37    36    1
    82    37    40    1
    83     9    10    2
    84    26    23    1
    85    49    50    1
    86    20    19    1
    87    40    41    1
    88    51    50   ar
    89    51    53   ar
    90    41    42    1
    91    50    52   ar
    92    23    22    1
    93    23    24    1
    94    22    17   am
    95    15    16    1
    96    19    21    1
    97    19    16    1
    98    53    55   ar
    99    24    25    2
   100    52    54   ar
   101    17    16    1
   102    17    18    2
   103    42    43    1
   104    43    44    1
   105    55    54   ar
   106    55    56    1
