@<TRIPOS>MOLECULE
tmp/5qb0B00.pdb
 104 101 0 0 0
SMALL
GASTEIGER

@<TRIPOS>ATOM
      1  N         89.3700  227.9790   -1.9950 N.3    47  SER47      -0.1217
      2  CA        89.0810  227.4480   -3.3360 C.3    47  SER47       0.1889
      3  C         88.8000  225.9460   -3.3520 C.2    47  SER47       0.2288
      4  O         88.3880  225.4280   -4.4000 O.2    47  SER47      -0.2866
      5  CB        90.2240  227.7660   -4.3000 C.3    47  SER47       0.2089
      6  OG        90.3540  229.1700   -4.5040 O.3    47  SER47      -0.2183
      7  N         95.8090  238.4750  -11.2740 N.3    78  ILE78      -0.1245
      8  CA        96.1810  237.1260  -11.6810 C.3    78  ILE78       0.1561
      9  C         95.9540  237.0590  -13.1860 C.2    78  ILE78       0.2260
     10  O         94.8050  237.0530  -13.6350 O.2    78  ILE78      -0.2867
     11  CB        95.3410  236.0600  -10.9630 C.3    78  ILE78       0.0252
     12  CG1       95.3780  236.2180   -9.4290 C.3    78  ILE78       0.0019
     13  CG2       95.7990  234.6720  -11.3870 C.3    78  ILE78       0.0019
     14  CD1       96.6490  235.8330   -8.8000 C.3    78  ILE78       0.0001
     15  N         96.0080  234.8080  -15.5270 N.3    80  THR80      -0.1203
     16  CA        95.1390  233.8060  -16.1340 C.3    80  THR80       0.1994
     17  C         93.6650  234.0460  -15.8440 C.2    80  THR80       0.2617
     18  O         92.8190  233.4170  -16.4880 O.2    80  THR80      -0.2717
     19  CB        95.5170  232.4090  -15.6610 C.3    80  THR80       0.1784
     20  OG1       94.7840  231.4310  -16.4120 O.3    80  THR80      -0.2211
     21  CG2       95.1940  232.2420  -14.2170 C.3    80  THR80       0.0376
     22  N         93.3330  234.9130  -14.8850 N.am   81  TRP81      -0.1975
     23  CA        91.9330  235.2500  -14.6480 C.3    81  TRP81       0.1640
     24  C         91.3870  236.2350  -15.6740 C.2    81  TRP81       0.2290
     25  O         90.1680  236.3770  -15.7940 O.2    81  TRP81      -0.2864
     26  CB        91.7500  235.8580  -13.2680 C.3    81  TRP81       0.0576
     27  CG        91.9950  234.9120  -12.1220 C.ar   81  TRP81       0.0006
     28  CD1       92.5010  233.6410  -12.1740 C.ar   81  TRP81       0.0946
     29  CD2       91.7360  235.1880  -10.7500 C.ar   81  TRP81       0.0152
     30  NE1       92.5730  233.1090  -10.8980 N.ar   81  TRP81      -0.2442
     31  CE2       92.1100  234.0450  -10.0090 C.ar   81  TRP81       0.0810
     32  CE3       91.2250  236.2990  -10.0740 C.ar   81  TRP81       0.0012
     33  CZ2       91.9680  233.9780   -8.6250 C.ar   81  TRP81       0.0191
     34  CZ3       91.0940  236.2420   -8.7000 C.ar   81  TRP81       0.0001
     35  CH2       91.4640  235.0860   -7.9870 C.ar   81  TRP81       0.0015
     36  N         91.2750  224.6670  -12.9270 N.3    92  LYS92      -0.1231
     37  CA        92.7300  224.5850  -13.0120 C.3    92  LYS92       0.1693
     38  C         93.4010  225.8430  -12.4850 C.2    92  LYS92       0.2592
     39  O         94.4330  225.7640  -11.8140 O.2    92  LYS92      -0.2718
     40  CB        93.1410  224.3460  -14.4690 C.3    92  LYS92       0.0285
     41  CG        94.6390  224.3040  -14.7360 C.3    92  LYS92       0.0035
     42  CD        94.9250  224.0460  -16.2240 C.3    92  LYS92       0.0206
     43  CE        96.4060  224.0890  -16.5460 C.3    92  LYS92       0.1093
     44  NZ        96.6660  223.8800  -17.9980 N.3    92  LYS92      -0.1314
     45  N         92.8730  227.0140  -12.8360 N.am   93  TYR93      -0.1962
     46  CA        93.4590  228.2880  -12.4390 C.3    93  TYR93       0.1771
     47  C         92.7200  228.9320  -11.2680 C.2    93  TYR93       0.2620
     48  O         92.9610  230.1010  -10.9710 O.2    93  TYR93      -0.2715
     49  CB        93.4950  229.2380  -13.6370 C.3    93  TYR93       0.0574
     50  CG        94.3780  228.7250  -14.7660 C.ar   93  TYR93      -0.0198
     51  CD1       95.7620  228.6570  -14.6160 C.ar   93  TYR93      -0.0009
     52  CD2       93.8390  228.3010  -15.9760 C.ar   93  TYR93      -0.0009
     53  CE1       96.5810  228.1770  -15.6270 C.ar   93  TYR93       0.0417
     54  CE2       94.6660  227.8180  -17.0010 C.ar   93  TYR93       0.0417
     55  CZ        96.0320  227.7570  -16.8050 C.ar   93  TYR93       0.1957
     56  OH        96.8730  227.2910  -17.7860 O.3    93  TYR93      -0.2866
     57  N         91.8210  228.1960  -10.6160 N.am   94  SER94      -0.1950
     58  CA        91.1290  228.6460   -9.4180 C.3    94  SER94       0.1924
     59  C         90.5700  230.0560   -9.5990 C.2    94  SER94       0.2314
     60  O         90.8320  230.9760   -8.8200 O.2    94  SER94      -0.2863
     61  CB        92.0580  228.5560   -8.1990 C.3    94  SER94       0.2116
     62  OG        91.2970  228.3280   -7.0390 O.3    94  SER94      -0.2180
     63  N         93.3820  222.6200   -5.0150 N.3   185  THR185     -0.1203
     64  CA        94.1300  223.4430   -4.0810 C.3   185  THR185      0.1994
     65  C         93.2210  224.5020   -3.4780 C.2   185  THR185      0.2618
     66  O         92.1830  224.8670   -4.0440 O.2   185  THR185     -0.2717
     67  CB        95.2890  224.1530   -4.7740 C.3   185  THR185      0.1784
     68  OG1       94.7550  224.9310   -5.8490 O.3   185  THR185     -0.2211
     69  CG2       96.3420  223.1590   -5.3080 C.3   185  THR185      0.0376
     70  N         93.6530  225.0200   -2.3410 N.am  186  GLY186     -0.1942
     71  CA        92.9850  226.1340   -1.6960 C.3   186  GLY186      0.2014
     72  C         93.9960  227.0210   -0.9970 C.2   186  GLY186      0.2638
     73  O         95.0710  226.5680   -0.5850 O.2   186  GLY186     -0.2714
     74  N         93.6480  228.3010   -0.8830 N.am  187  TYR187     -0.1973
     75  CA        94.5080  229.3070   -0.2600 C.3   187  TYR187      0.1639
     76  C         93.6260  230.3280    0.4520 C.2   187  TYR187      0.2290
     77  O         92.9810  231.1480   -0.2080 O.2   187  TYR187     -0.2864
     78  CB        95.3490  229.9690   -1.3380 C.3   187  TYR187      0.0560
     79  CG        96.3470  231.0110   -0.8990 C.ar  187  TYR187     -0.0198
     80  CD1       96.8590  231.0510    0.3980 C.ar  187  TYR187     -0.0009
     81  CD2       96.7860  231.9670   -1.8060 C.ar  187  TYR187     -0.0009
     82  CE1       97.7870  232.0170    0.7620 C.ar  187  TYR187      0.0417
     83  CE2       97.6930  232.9210   -1.4490 C.ar  187  TYR187      0.0417
     84  CZ        98.1940  232.9430   -0.1720 C.ar  187  TYR187      0.1957
     85  OH        99.1000  233.9270    0.1480 O.3   187  TYR187     -0.2866
     86  N        103.3990  228.3240   -1.3990 N.3   223  LEU223     -0.1245
     87  CA       102.2400  227.6160   -1.9390 C.3   223  LEU223      0.1561
     88  C        102.6030  226.2740   -2.5570 C.2   223  LEU223      0.2260
     89  O        101.7950  225.3390   -2.5190 O.2   223  LEU223     -0.2867
     90  CB       101.5390  228.4940   -2.9660 C.3   223  LEU223      0.0270
     91  CG       100.7410  229.6510   -2.3510 C.3   223  LEU223      0.0019
     92  CD1      100.2910  230.5570   -3.4670 C.3   223  LEU223      0.0001
     93  CD2       99.5670  229.1380   -1.5270 C.3   223  LEU223      0.0001
     94  N        102.1980  222.8720   -0.5870 N.3   226  ARG226     -0.1245
     95  CA       100.9620  222.1170   -0.4600 C.3   226  ARG226      0.1563
     96  C        101.0990  220.7640   -1.1430 C.2   226  ARG226      0.2260
     97  O        100.7930  219.7220   -0.5560 O.2   226  ARG226     -0.2867
     98  CB        99.8090  222.9200   -1.0620 C.3   226  ARG226      0.0307
     99  CG        99.5450  224.2290   -0.3200 C.3   226  ARG226      0.0489
    100  CD        98.5050  225.0800   -1.0210 C.3   226  ARG226      0.2205
    101  NE        98.9470  225.5070   -2.3410 N.pl3 226  ARG226     -0.0865
    102  CZ        98.2320  226.2760   -3.1490 C.cat 226  ARG226      0.5346
    103  NH1       98.7160  226.6080   -4.3330 N.pl3 226  ARG226      0.1354
    104  NH2       97.0370  226.7210   -2.7690 N.pl3 226  ARG226      0.1354
@<TRIPOS>BOND
     1    44    43    1
     2    56    55    1
     3    54    55   ar
     4    54    52   ar
     5    55    53   ar
     6    43    42    1
     7    18    17    2
     8    20    19    1
     9    42    41    1
    10    16    17    1
    11    16    19    1
    12    16    15    1
    13    52    50   ar
    14    17    22   am
    15    25    24    2
    16    24    23    1
    17    19    21    1
    18    53    51   ar
    19    22    23    1
    20    50    51   ar
    21    50    49    1
    22    41    40    1
    23    23    26    1
    24    40    37    1
    25    49    46    1
    26    10     9    2
    27    26    27    1
    28     9     8    1
    29    37    36    1
    30    37    38    1
    31    45    38   am
    32    45    46    1
    33    38    39    2
    34    46    47    1
    35    28    27   ar
    36    28    30   ar
    37    27    29   ar
    38     8     7    1
    39     8    11    1
    40    13    11    1
    41    47    48    2
    42    47    57   am
    43    11    12    1
    44    30    31   ar
    45    29    32   ar
    46    29    31   ar
    47    57    58    1
    48    32    34   ar
    49    31    33   ar
    50    59    58    1
    51    59    60    2
    52    12    14    1
    53    58    61    1
    54    34    35   ar
    55    33    35   ar
    56    61    62    1
    57    68    67    1
    58    69    67    1
    59    63    64    1
    60    67    64    1
    61     6     5    1
    62     4     3    2
    63   103   102    1
    64     5     2    1
    65    64    65    1
    66    66    65    2
    67    65    70   am
    68    92    91    1
    69     3     2    1
    70     2     1    1
    71   102   104    1
    72   102   101    2
    73    90    91    1
    74    90    87    1
    75    88    89    2
    76    88    87    1
    77    91    93    1
    78    70    71    1
    79   101   100    1
    80    87    86    1
    81    81    83   ar
    82    81    79   ar
    83    71    72    1
    84    83    84   ar
    85    78    79    1
    86    78    75    1
    87    96    97    2
    88    96    95    1
    89    98    95    1
    90    98    99    1
    91   100    99    1
    92    72    74   am
    93    72    73    2
    94    79    80   ar
    95    74    75    1
    96    94    95    1
    97    75    76    1
    98    77    76    2
    99    84    85    1
   100    84    82   ar
   101    80    82   ar
