@<TRIPOS>MOLECULE
tmp/5qb1B00.pdb
 115 107 0 0 0
SMALL
GASTEIGER

@<TRIPOS>ATOM
      1  N          0.6570   12.9880  121.9060 N.3    47  SER47      -0.1217
      2  CA         1.2930   11.7150  121.5900 C.3    47  SER47       0.1889
      3  C          2.0320   11.7150  120.2550 C.2    47  SER47       0.2288
      4  O          2.7290   10.7280  119.9600 O.2    47  SER47      -0.2866
      5  CB         0.2240   10.6140  121.6350 C.3    47  SER47       0.2089
      6  OG        -0.2710   10.4600  122.9710 O.3    47  SER47      -0.2183
      7  N         -7.0250    3.7040  130.4800 N.3    78  ILE78      -0.1245
      8  CA        -6.9290    3.1360  129.1430 C.3    78  ILE78       0.1561
      9  C         -6.5580    1.6680  129.2850 C.2    78  ILE78       0.2260
     10  O         -5.4550    1.3340  129.7330 O.2    78  ILE78      -0.2867
     11  CB        -5.9140    3.9070  128.2940 C.3    78  ILE78       0.0252
     12  CG1       -6.4070    5.3430  128.1150 C.3    78  ILE78       0.0019
     13  CG2       -5.7290    3.2420  126.9490 C.3    78  ILE78       0.0019
     14  CD1       -5.3750    6.2620  127.6270 C.3    78  ILE78       0.0001
     15  N         -3.2990    0.1340  128.0000 N.3    81  TRP81      -0.1241
     16  CA        -2.0800    0.5240  128.6980 C.3    81  TRP81       0.1605
     17  C         -1.7320   -0.4330  129.8300 C.2    81  TRP81       0.2264
     18  O         -0.6000   -0.4090  130.3250 O.2    81  TRP81      -0.2867
     19  CB        -2.2230    1.9350  129.2850 C.3    81  TRP81       0.0550
     20  CG        -2.2540    3.0380  128.2790 C.ar   81  TRP81       0.0003
     21  CD1       -2.2900    2.9150  126.9200 C.ar   81  TRP81       0.0946
     22  CD2       -2.2570    4.4440  128.5570 C.ar   81  TRP81       0.0152
     23  NE1       -2.3170    4.1590  126.3350 N.ar   81  TRP81      -0.2442
     24  CE2       -2.3010    5.1130  127.3210 C.ar   81  TRP81       0.0810
     25  CE3       -2.2320    5.2000  129.7340 C.ar   81  TRP81       0.0012
     26  CZ2       -2.3020    6.5060  127.2250 C.ar   81  TRP81       0.0191
     27  CZ3       -2.2400    6.5850  129.6350 C.ar   81  TRP81       0.0001
     28  CH2       -2.2820    7.2190  128.3930 C.ar   81  TRP81       0.0015
     29  N         -0.4140    4.3530  121.8670 N.3    94  SER94      -0.1217
     30  CA        -0.0620    5.6240  122.5070 C.3    94  SER94       0.1889
     31  C          0.0800    5.4560  124.0160 C.2    94  SER94       0.2288
     32  O         -0.5430    6.1710  124.7970 O.2    94  SER94      -0.2866
     33  CB        -1.0980    6.7120  122.1940 C.3    94  SER94       0.2089
     34  OG        -1.2850    6.8940  120.8100 O.3    94  SER94      -0.2183
     35  N          1.2620    6.1810  127.1420 N.3    96  VAL96      -0.1245
     36  CA         2.0080    7.2470  127.8190 C.3    96  VAL96       0.1561
     37  C          2.9420    6.7040  128.8980 C.2    96  VAL96       0.2260
     38  O          4.1150    7.1020  128.9220 O.2    96  VAL96      -0.2867
     39  CB         1.0390    8.3160  128.3480 C.3    96  VAL96       0.0252
     40  CG1        1.7710    9.3470  129.2090 C.3    96  VAL96       0.0019
     41  CG2        0.3490    8.9960  127.1640 C.3    96  VAL96       0.0019
     42  N          2.5580   16.8780  126.9430 N.3   134  LEU134     -0.1245
     43  CA         1.1230   16.8330  127.2120 C.3   134  LEU134      0.1561
     44  C          0.6000   18.0530  127.9510 C.2   134  LEU134      0.2260
     45  O         -0.5600   18.4290  127.7610 O.2   134  LEU134     -0.2867
     46  CB         0.7780   15.6020  128.0620 C.3   134  LEU134      0.0270
     47  CG         1.1750   14.2520  127.4650 C.3   134  LEU134      0.0019
     48  CD1        1.0200   13.1550  128.5210 C.3   134  LEU134      0.0001
     49  CD2        0.3200   13.9400  126.2560 C.3   134  LEU134      0.0001
     50  N         -0.8140    9.2490  115.8500 N.3   185  THR185     -0.1203
     51  CA        -1.9360   10.0340  116.3420 C.3   185  THR185      0.1994
     52  C         -1.5420   10.8170  117.5870 C.2   185  THR185      0.2618
     53  O         -0.5390   10.5390  118.2490 O.2   185  THR185     -0.2717
     54  CB        -3.1220    9.1390  116.6920 C.3   185  THR185      0.1784
     55  OG1       -2.7170    8.1960  117.6900 O.3   185  THR185     -0.2211
     56  CG2       -3.6270    8.3990  115.4480 C.3   185  THR185      0.0376
     57  N         -2.3430   11.8240  117.8820 N.am  186  GLY186     -0.1942
     58  CA        -2.1720   12.5970  119.1020 C.3   186  GLY186      0.2014
     59  C         -3.4930   13.1120  119.6150 C.2   186  GLY186      0.2638
     60  O         -4.4100   13.4180  118.8460 O.2   186  GLY186     -0.2714
     61  N         -3.5670   13.2610  120.9310 N.am  187  TYR187     -0.1973
     62  CA        -4.7830   13.7330  121.5760 C.3   187  TYR187      0.1639
     63  C         -4.3370   14.5920  122.7460 C.2   187  TYR187      0.2290
     64  O         -3.8650   14.0600  123.7550 O.2   187  TYR187     -0.2864
     65  CB        -5.6430   12.5690  122.0500 C.3   187  TYR187      0.0560
     66  CG        -6.9960   12.9480  122.6240 C.ar  187  TYR187     -0.0198
     67  CD1       -7.6050   14.1610  122.3130 C.ar  187  TYR187     -0.0009
     68  CD2       -7.6750   12.0710  123.4600 C.ar  187  TYR187     -0.0009
     69  CE1       -8.8580   14.4870  122.8320 C.ar  187  TYR187      0.0417
     70  CE2       -8.9190   12.3870  123.9870 C.ar  187  TYR187      0.0417
     71  CZ        -9.5060   13.5910  123.6700 C.ar  187  TYR187      0.1957
     72  OH       -10.7450   13.8830  124.1950 O.3   187  TYR187     -0.2866
     73  N         -5.3190   16.9180  125.6740 N.3   189  THR189     -0.1203
     74  CA        -6.4870   17.1660  126.5110 C.3   189  THR189      0.1994
     75  C         -6.1910   17.9190  127.7970 C.2   189  THR189      0.2617
     76  O         -7.1400   18.3340  128.4740 O.2   189  THR189     -0.2717
     77  CB        -7.1670   15.8420  126.9030 C.3   189  THR189      0.1784
     78  OG1       -6.2830   15.0750  127.7260 O.3   189  THR189     -0.2211
     79  CG2       -7.5130   15.0510  125.6780 C.3   189  THR189      0.0376
     80  N         -4.9230   18.0670  128.1850 N.am  190  ARG190     -0.1979
     81  CA        -4.6270   18.6350  129.4970 C.3   190  ARG190      0.1597
     82  C         -4.7050   20.1540  129.5020 C.2   190  ARG190      0.2287
     83  O         -5.0590   20.7400  130.5310 O.2   190  ARG190     -0.2864
     84  CB        -3.2290   18.2080  129.9600 C.3   190  ARG190      0.0334
     85  CG        -3.0430   16.7190  130.1100 C.3   190  ARG190      0.0492
     86  CD        -1.7820   16.3700  130.8950 C.3   190  ARG190      0.2205
     87  NE        -1.6150   14.9300  131.0340 N.pl3 190  ARG190     -0.0865
     88  CZ        -0.6730   14.3400  131.7640 C.cat 190  ARG190      0.5346
     89  NH1        0.2100   15.0580  132.4410 N.pl3 190  ARG190      0.1354
     90  NH2       -0.6110   13.0180  131.8100 N.pl3 190  ARG190      0.1354
     91  N        -13.6490   13.0640  123.5000 N.3   220  SER220     -0.1217
     92  CA       -13.0110   11.9360  122.8380 C.3   220  SER220      0.1889
     93  C        -13.8780   11.3290  121.7450 C.2   220  SER220      0.2288
     94  O        -13.3830   10.5000  120.9750 O.2   220  SER220     -0.2866
     95  CB       -12.6570   10.8680  123.8680 C.3   220  SER220      0.2089
     96  OG       -13.8150   10.4140  124.5520 O.3   220  SER220     -0.2183
     97  N        -12.5200   11.4420  117.9580 N.3   223  LEU223     -0.1245
     98  CA       -11.1410   11.0760  117.6530 C.3   223  LEU223      0.1561
     99  C        -11.0260   10.4020  116.2870 C.2   223  LEU223      0.2260
    100  O        -10.0610   10.6310  115.5600 O.2   223  LEU223     -0.2867
    101  CB       -10.5990   10.1710  118.7580 C.3   223  LEU223      0.0270
    102  CG       -10.2550   10.8970  120.0620 C.3   223  LEU223      0.0019
    103  CD1       -9.9790    9.9060  121.1870 C.3   223  LEU223      0.0001
    104  CD2       -9.0670   11.8160  119.8590 C.3   223  LEU223      0.0001
    105  N         -9.9680   12.3680  113.0200 N.3   226  ARG226     -0.1245
    106  CA        -8.6090   12.7110  112.6210 C.3   226  ARG226      0.1563
    107  C         -8.2250   11.9770  111.3450 C.2   226  ARG226      0.2260
    108  O         -7.8410   12.5960  110.3470 O.2   226  ARG226     -0.2867
    109  CB        -7.6340   12.3790  113.7490 C.3   226  ARG226      0.0307
    110  CG        -7.8700   13.1800  115.0280 C.3   226  ARG226      0.0489
    111  CD        -7.0540   12.6190  116.1740 C.3   226  ARG226      0.2205
    112  NE        -7.4430   11.2440  116.4800 N.pl3 226  ARG226     -0.0865
    113  CZ        -6.8610   10.4890  117.4040 C.cat 226  ARG226      0.5346
    114  NH1       -7.2940    9.2530  117.6020 N.pl3 226  ARG226      0.1354
    115  NH2       -5.8560   10.9710  118.1320 N.pl3 226  ARG226      0.1354
@<TRIPOS>BOND
     1   108   107    2
     2   107   106    1
     3   106   105    1
     4   106   109    1
     5   109   110    1
     6   110   111    1
     7    56    54    1
     8   100    99    2
     9    50    51    1
    10   111   112    1
    11    99    98    1
    12    51    54    1
    13    51    52    1
    14   112   113    2
    15    54    55    1
    16   113   114    1
    17   113   115    1
    18    52    57   am
    19    52    53    2
    20    98    97    1
    21    98   101    1
    22    57    58    1
    23   101   102    1
    24    60    59    2
    25    58    59    1
    26    59    61   am
    27   104   102    1
    28     4     3    2
    29   102   103    1
    30     3     2    1
    31    34    33    1
    32    61    62    1
    33    94    93    2
    34    62    65    1
    35    62    63    1
    36     2     5    1
    37     2     1    1
    38     5     6    1
    39    93    92    1
    40    29    30    1
    41    65    66    1
    42    33    30    1
    43    67    66   ar
    44    67    69   ar
    45    30    31    1
    46    66    68   ar
    47    63    64    2
    48    69    71   ar
    49    92    91    1
    50    92    95    1
    51    68    70   ar
    52    71    70   ar
    53    71    72    1
    54    95    96    1
    55    31    32    2
    56    73    74    1
    57    79    77    1
    58    49    47    1
    59    23    21   ar
    60    23    24   ar
    61    74    77    1
    62    74    75    1
    63    77    78    1
    64    21    20   ar
    65    42    43    1
    66    13    11    1
    67    35    36    1
    68    41    39    1
    69    43    44    1
    70    43    46    1
    71    26    24   ar
    72    26    28   ar
    73    24    22   ar
    74    47    46    1
    75    47    48    1
    76    14    12    1
    77    45    44    2
    78    75    80   am
    79    75    76    2
    80    36    39    1
    81    36    37    1
    82    15    16    1
    83    12    11    1
    84    80    81    1
    85    20    22   ar
    86    20    19    1
    87    11     8    1
    88    39    40    1
    89    28    27   ar
    90    22    25   ar
    91    16    19    1
    92    16    17    1
    93    37    38    2
    94     8     9    1
    95     8     7    1
    96     9    10    2
    97    81    82    1
    98    81    84    1
    99    82    83    2
   100    27    25   ar
   101    17    18    2
   102    84    85    1
   103    85    86    1
   104    86    87    1
   105    87    88    2
   106    88    90    1
   107    88    89    1
