@<TRIPOS>MOLECULE
tmp/5qb2B00.pdb
 122 118 0 0 0
SMALL
GASTEIGER

@<TRIPOS>ATOM
      1  N         90.0380  229.5800   -2.0700 N.3    47  SER47      -0.1217
      2  CA        89.7530  229.0330   -3.3940 C.3    47  SER47       0.1889
      3  C         89.5150  227.5300   -3.4030 C.2    47  SER47       0.2288
      4  O         89.0780  227.0140   -4.4350 O.2    47  SER47      -0.2866
      5  CB        90.8730  229.3670   -4.3620 C.3    47  SER47       0.2089
      6  OG        90.9850  230.7870   -4.4720 O.3    47  SER47      -0.2183
      7  N         96.5110  240.0220  -11.5300 N.3    78  ILE78      -0.1231
      8  CA        96.9370  238.6960  -11.9650 C.3    78  ILE78       0.1692
      9  C         96.6410  238.6210  -13.4550 C.2    78  ILE78       0.2592
     10  O         95.4770  238.6380  -13.8710 O.2    78  ILE78      -0.2718
     11  CB        96.2470  237.5790  -11.1750 C.3    78  ILE78       0.0266
     12  CG1       96.6690  237.6640   -9.7050 C.3    78  ILE78       0.0019
     13  CG2       96.6310  236.2410  -11.7490 C.3    78  ILE78       0.0020
     14  CD1       96.0300  236.6610   -8.8220 C.3    78  ILE78       0.0001
     15  N         97.7030  238.5830  -14.2610 N.am   79  ALA79      -0.1966
     16  CA        97.5490  238.7170  -15.6990 C.3    79  ALA79       0.1728
     17  C         96.6210  237.6480  -16.2590 C.2    79  ALA79       0.2617
     18  O         95.7870  237.9310  -17.1250 O.2    79  ALA79      -0.2715
     19  CB        98.9200  238.6520  -16.3660 C.3    79  ALA79       0.0334
     20  N         96.7320  236.4190  -15.7680 N.am   80  THR80      -0.1937
     21  CA        95.8920  235.3670  -16.3250 C.3    80  THR80       0.2028
     22  C         94.4130  235.5630  -16.0080 C.2    80  THR80       0.2642
     23  O         93.5750  234.8800  -16.6070 O.2    80  THR80      -0.2714
     24  CB        96.3600  234.0020  -15.8220 C.3    80  THR80       0.1808
     25  OG1       95.6190  232.9750  -16.4820 O.3    80  THR80      -0.2208
     26  CG2       96.1380  233.9100  -14.3710 C.3    80  THR80       0.0379
     27  N         94.0690  236.4440  -15.0580 N.am   81  TRP81      -0.1973
     28  CA        92.6670  236.7620  -14.8200 C.3    81  TRP81       0.1640
     29  C         92.0940  237.7160  -15.8620 C.2    81  TRP81       0.2290
     30  O         90.8680  237.7920  -16.0060 O.2    81  TRP81      -0.2864
     31  CB        92.4870  237.3970  -13.4370 C.3    81  TRP81       0.0576
     32  CG        92.7140  236.4630  -12.3280 C.ar   81  TRP81       0.0006
     33  CD1       93.2210  235.1900  -12.3890 C.ar   81  TRP81       0.0946
     34  CD2       92.3980  236.7090  -10.9640 C.ar   81  TRP81       0.0152
     35  NE1       93.2510  234.6370  -11.1240 N.ar   81  TRP81      -0.2442
     36  CE2       92.7490  235.5530  -10.2350 C.ar   81  TRP81       0.0810
     37  CE3       91.8620  237.8060  -10.2850 C.ar   81  TRP81       0.0012
     38  CZ2       92.5780  235.4590   -8.8610 C.ar   81  TRP81       0.0191
     39  CZ3       91.6930  237.7080   -8.9020 C.ar   81  TRP81       0.0001
     40  CH2       92.0480  236.5340   -8.2110 C.ar   81  TRP81       0.0015
     41  N         91.9980  226.2200  -13.0150 N.3    92  LYS92      -0.1231
     42  CA        93.4530  226.1480  -13.0740 C.3    92  LYS92       0.1693
     43  C         94.1120  227.4140  -12.5460 C.2    92  LYS92       0.2592
     44  O         95.1420  227.3490  -11.8650 O.2    92  LYS92      -0.2718
     45  CB        93.8830  225.8990  -14.5090 C.3    92  LYS92       0.0285
     46  CG        95.3840  225.9220  -14.7410 C.3    92  LYS92       0.0035
     47  CD        95.6770  225.5120  -16.1960 C.3    92  LYS92       0.0206
     48  CE        97.1470  225.6220  -16.5390 C.3    92  LYS92       0.1093
     49  NZ        97.3500  225.3420  -17.9910 N.3    92  LYS92      -0.1314
     50  N         93.5850  228.5720  -12.9230 N.am   93  TYR93      -0.1962
     51  CA        94.1860  229.8440  -12.5520 C.3    93  TYR93       0.1771
     52  C         93.4710  230.4990  -11.3800 C.2    93  TYR93       0.2620
     53  O         93.7070  231.6820  -11.1050 O.2    93  TYR93      -0.2715
     54  CB        94.2140  230.7680  -13.7640 C.3    93  TYR93       0.0574
     55  CG        95.1310  230.2480  -14.8790 C.ar   93  TYR93      -0.0198
     56  CD1       96.5120  230.2700  -14.7290 C.ar   93  TYR93      -0.0009
     57  CD2       94.6180  229.7280  -16.0590 C.ar   93  TYR93      -0.0009
     58  CE1       97.3620  229.7980  -15.7140 C.ar   93  TYR93       0.0417
     59  CE2       95.4680  229.2570  -17.0770 C.ar   93  TYR93       0.0417
     60  CZ        96.8390  229.2830  -16.8810 C.ar   93  TYR93       0.1957
     61  OH        97.7040  228.8120  -17.8450 O.3    93  TYR93      -0.2866
     62  N         92.5980  229.7470  -10.7150 N.am   94  SER94      -0.1950
     63  CA        91.9260  230.1690   -9.5090 C.3    94  SER94       0.1924
     64  C         91.3110  231.5460   -9.7070 C.2    94  SER94       0.2314
     65  O         91.5420  232.4710   -8.9350 O.2    94  SER94      -0.2863
     66  CB        92.8990  230.1490   -8.3310 C.3    94  SER94       0.2116
     67  OG        92.2180  229.8320   -7.1640 O.3    94  SER94      -0.2180
     68  N         94.0280  224.1970   -5.0760 N.3   185  THR185     -0.1203
     69  CA        94.7670  225.0250   -4.1340 C.3   185  THR185      0.1994
     70  C         93.8730  226.1190   -3.5470 C.2   185  THR185      0.2618
     71  O         92.8140  226.4550   -4.0830 O.2   185  THR185     -0.2717
     72  CB        95.9460  225.7100   -4.8190 C.3   185  THR185      0.1784
     73  OG1       95.4390  226.4710   -5.9160 O.3   185  THR185     -0.2211
     74  CG2       96.9830  224.7180   -5.3020 C.3   185  THR185      0.0376
     75  N         94.3230  226.6680   -2.4290 N.am  186  GLY186     -0.1942
     76  CA        93.6910  227.8380   -1.8430 C.3   186  GLY186      0.2014
     77  C         94.7070  228.6630   -1.0940 C.2   186  GLY186      0.2638
     78  O         95.7370  228.1490   -0.6410 O.2   186  GLY186     -0.2714
     79  N         94.4230  229.9650   -0.9850 N.am  187  TYR187     -0.1973
     80  CA        95.2480  230.8900   -0.2150 C.3   187  TYR187      0.1639
     81  C         94.3040  231.8690    0.4730 C.2   187  TYR187      0.2290
     82  O         93.6260  232.6530   -0.1990 O.2   187  TYR187     -0.2864
     83  CB        96.2590  231.6340   -1.1010 C.3   187  TYR187      0.0560
     84  CG        97.2500  232.4940   -0.3100 C.ar  187  TYR187     -0.0198
     85  CD1       97.4570  232.2700    1.0450 C.ar  187  TYR187     -0.0009
     86  CD2       97.9580  233.5360   -0.9080 C.ar  187  TYR187     -0.0009
     87  CE1       98.3390  233.0330    1.7860 C.ar  187  TYR187      0.0417
     88  CE2       98.8610  234.3140   -0.1530 C.ar  187  TYR187      0.0417
     89  CZ        99.0360  234.0440    1.1910 C.ar  187  TYR187      0.1957
     90  OH        99.9080  234.7940    1.9740 O.3   187  TYR187     -0.2866
     91  N         93.8690  234.9920    2.9610 N.3   189  THR189     -0.1218
     92  CA        94.6310  236.1060    3.5040 C.3   189  THR189      0.1862
     93  C         93.7950  237.1310    4.2470 C.2   189  THR189      0.2287
     94  O         94.3740  237.9630    4.9510 O.2   189  THR189     -0.2866
     95  CB        95.3680  236.8820    2.3960 C.3   189  THR189      0.1770
     96  OG1       94.3980  237.4310    1.5080 O.3   189  THR189     -0.2211
     97  CG2       96.3150  236.0060    1.6280 C.3   189  THR189      0.0375
     98  N        102.9610  235.4140    0.0040 N.3   220  SER220     -0.1217
     99  CA       102.7380  234.5990   -1.1830 C.3   220  SER220      0.1889
    100  C        104.0070  233.9150   -1.6750 C.2   220  SER220      0.2288
    101  O        103.9200  233.0150   -2.5130 O.2   220  SER220     -0.2866
    102  CB       102.1490  235.4640   -2.2930 C.3   220  SER220      0.2089
    103  OG       103.0310  236.5220   -2.5920 O.3   220  SER220     -0.2183
    104  N        103.9650  229.8820   -1.5460 N.3   223  LEU223     -0.1245
    105  CA       102.8040  229.1150   -1.9840 C.3   223  LEU223      0.1561
    106  C        103.1910  227.7710   -2.5840 C.2   223  LEU223      0.2260
    107  O        102.4400  226.7920   -2.4600 O.2   223  LEU223     -0.2867
    108  CB       102.0010  229.9450   -2.9700 C.3   223  LEU223      0.0270
    109  CG       101.1920  231.0740   -2.3500 C.3   223  LEU223      0.0019
    110  CD1      100.6670  231.9720   -3.4490 C.3   223  LEU223      0.0001
    111  CD2      100.0500  230.5450   -1.5210 C.3   223  LEU223      0.0001
    112  N        102.9440  224.4070   -0.6170 N.3   226  ARG226     -0.1245
    113  CA       101.7360  223.6070   -0.4370 C.3   226  ARG226      0.1563
    114  C        101.8720  222.2540   -1.1240 C.2   226  ARG226      0.2260
    115  O        101.6430  221.1990   -0.5150 O.2   226  ARG226     -0.2867
    116  CB       100.5380  224.3700   -0.9870 C.3   226  ARG226      0.0307
    117  CG       100.2860  225.6750   -0.2490 C.3   226  ARG226      0.0489
    118  CD        99.2100  226.4990   -0.9170 C.3   226  ARG226      0.2205
    119  NE        99.6040  226.9150   -2.2660 N.pl3 226  ARG226     -0.0865
    120  CZ        98.8210  227.6100   -3.0820 C.cat 226  ARG226      0.5346
    121  NH1       99.2460  227.9400   -4.2960 N.pl3 226  ARG226      0.1354
    122  NH2       97.6010  227.9490   -2.6990 N.pl3 226  ARG226      0.1354
@<TRIPOS>BOND
     1    49    48    1
     2    61    60    1
     3    18    17    2
     4    59    60   ar
     5    59    57   ar
     6    60    58   ar
     7    23    22    2
     8    48    47    1
     9    25    24    1
    10    19    16    1
    11    21    22    1
    12    21    24    1
    13    21    20    1
    14    17    20   am
    15    17    16    1
    16    47    46    1
    17    57    55   ar
    18    22    27   am
    19    30    29    2
    20    29    28    1
    21    24    26    1
    22    58    56   ar
    23    16    15    1
    24    27    28    1
    25    55    56   ar
    26    55    54    1
    27    28    31    1
    28    46    45    1
    29    45    42    1
    30    15     9   am
    31    10     9    2
    32    54    51    1
    33     9     8    1
    34    31    32    1
    35    42    41    1
    36    42    43    1
    37    50    51    1
    38    50    43   am
    39    51    52    1
    40    43    44    2
    41    33    32   ar
    42    33    35   ar
    43    32    34   ar
    44     8     7    1
    45     8    11    1
    46    13    11    1
    47    52    53    2
    48    52    62   am
    49    11    12    1
    50    35    36   ar
    51    34    37   ar
    52    34    36   ar
    53    62    63    1
    54    37    39   ar
    55    36    38   ar
    56    64    63    1
    57    64    65    2
    58    12    14    1
    59    63    66    1
    60    39    40   ar
    61    38    40   ar
    62    66    67    1
    63    73    72    1
    64    74    72    1
    65    68    69    1
    66    72    69    1
    67     6     5    1
    68     4     3    2
    69     5     2    1
    70   121   120    1
    71    69    70    1
    72    71    70    2
    73    70    75   am
    74   110   109    1
    75     3     2    1
    76     2     1    1
    77   120   122    1
    78   120   119    2
    79   108   109    1
    80   108   105    1
    81   103   102    1
    82   106   107    2
    83   106   105    1
    84   101   100    2
    85    75    76    1
    86   109   111    1
    87   102    99    1
    88   119   118    1
    89   105   104    1
    90    76    77    1
    91   100    99    1
    92    99    98    1
    93   114   115    2
    94   114   113    1
    95    83    84    1
    96    83    80    1
    97    77    79   am
    98    77    78    2
    99   116   113    1
   100   116   117    1
   101    79    80    1
   102   118   117    1
   103    86    84   ar
   104    86    88   ar
   105   112   113    1
   106    84    85   ar
   107    80    81    1
   108    82    81    2
   109    88    89   ar
   110    85    87   ar
   111    89    87   ar
   112    89    90    1
   113    96    95    1
   114    97    95    1
   115    95    92    1
   116    91    92    1
   117    92    93    1
   118    93    94    2
