@<TRIPOS>MOLECULE
tmp/5qb3C00.pdb
 115 107 0 0 0
SMALL
GASTEIGER

@<TRIPOS>ATOM
      1  N         84.4850  230.6100   31.4070 N.3    46  SER46      -0.1217
      2  CA        85.0310  230.2000   32.6920 C.3    46  SER46       0.1889
      3  C         85.5890  228.7830   32.7060 C.2    46  SER46       0.2288
      4  O         86.2050  228.4050   33.7110 O.2    46  SER46      -0.2866
      5  CB        83.9760  230.3430   33.7910 C.3    46  SER46       0.2089
      6  OG        83.5760  231.6990   33.9100 O.3    46  SER46      -0.2183
      7  N         77.3230  239.8540   41.0140 N.3    77  ILE77      -0.1245
      8  CA        77.2410  238.4820   41.5020 C.3    77  ILE77       0.1561
      9  C         77.6930  238.4990   42.9570 C.2    77  ILE77       0.2260
     10  O         78.8560  238.8010   43.2550 O.2    77  ILE77      -0.2867
     11  CB        78.0820  237.5200   40.6510 C.3    77  ILE77       0.0252
     12  CG1       77.4970  237.4420   39.2360 C.3    77  ILE77       0.0019
     13  CG2       78.1180  236.1340   41.2870 C.3    77  ILE77       0.0019
     14  CD1       78.3350  236.6770   38.2610 C.3    77  ILE77       0.0001
     15  N         80.8820  236.8740   44.4450 N.3    80  TRP80      -0.1241
     16  CA        82.1670  237.4530   44.0710 C.3    80  TRP80       0.1605
     17  C         82.6380  238.5170   45.0530 C.2    80  TRP80       0.2264
     18  O         83.8360  238.8250   45.0890 O.2    80  TRP80      -0.2867
     19  CB        82.0770  238.0780   42.6810 C.3    80  TRP80       0.0550
     20  CG        81.9010  237.0920   41.5680 C.ar   80  TRP80       0.0003
     21  CD1       81.6790  235.7510   41.6810 C.ar   80  TRP80       0.0946
     22  CD2       81.9200  237.3790   40.1650 C.ar   80  TRP80       0.0152
     23  NE1       81.5640  235.1840   40.4330 N.ar   80  TRP80      -0.2442
     24  CE2       81.7100  236.1630   39.4870 C.ar   80  TRP80       0.0810
     25  CE3       82.1000  238.5470   39.4180 C.ar   80  TRP80       0.0012
     26  CZ2       81.6740  236.0820   38.0970 C.ar   80  TRP80       0.0191
     27  CZ3       82.0650  238.4630   38.0440 C.ar   80  TRP80       0.0001
     28  CH2       81.8520  237.2410   37.3970 C.ar   80  TRP80       0.0015
     29  N         83.1230  230.4780   40.1940 N.3    93  SER93      -0.1217
     30  CA        83.5670  231.0470   38.9250 C.3    93  SER93       0.1889
     31  C         83.8760  232.5390   39.0760 C.2    93  SER93       0.2288
     32  O         83.3580  233.3890   38.3450 O.2    93  SER93      -0.2866
     33  CB        82.5120  230.7960   37.8460 C.3    93  SER93       0.2089
     34  OG        83.1110  230.6850   36.5690 O.3    93  SER93      -0.2183
     35  N         85.4260  235.4870   38.3680 N.3    95  VAL95      -0.1245
     36  CA        86.2320  236.0880   37.3020 C.3    95  VAL95       0.1561
     37  C         87.2830  237.0560   37.8420 C.2    95  VAL95       0.2260
     38  O         88.4540  236.9310   37.4620 O.2    95  VAL95      -0.2867
     39  CB        85.3130  236.7370   36.2540 C.3    95  VAL95       0.0252
     40  CG1       86.1210  237.4990   35.1960 C.3    95  VAL95       0.0019
     41  CG2       84.4450  235.6820   35.5950 C.3    95  VAL95       0.0019
     42  N         87.0930  235.4900   27.6920 N.3   133  LEU133     -0.1245
     43  CA        85.7000  235.9240   27.6950 C.3   133  LEU133      0.1561
     44  C         85.3070  236.6960   26.4410 C.2   133  LEU133      0.2260
     45  O         84.1490  236.6200   26.0190 O.2   133  LEU133     -0.2867
     46  CB        85.4160  236.8110   28.9150 C.3   133  LEU133      0.0270
     47  CG        85.7010  236.1870   30.2830 C.3   133  LEU133      0.0019
     48  CD1       85.6530  237.2320   31.3860 C.3   133  LEU133      0.0001
     49  CD2       84.7080  235.0790   30.5530 C.3   133  LEU133      0.0001
     50  N         82.1380  224.6230   34.9950 N.3   184  THR184     -0.1203
     51  CA        81.1060  225.2640   34.1960 C.3   184  THR184      0.1994
     52  C         81.6740  226.4760   33.4670 C.2   184  THR184      0.2618
     53  O         82.7220  227.0200   33.8280 O.2   184  THR184     -0.2717
     54  CB        79.9330  225.7080   35.0730 C.3   184  THR184      0.1784
     55  OG1       80.4060  226.6110   36.0790 O.3   184  THR184     -0.2211
     56  CG2       79.2540  224.5090   35.7310 C.3   184  THR184      0.0376
     57  N         80.9520  226.9060   32.4430 N.am  185  GLY185     -0.1942
     58  CA        81.3060  228.1130   31.7190 C.3   185  GLY185      0.2014
     59  C         80.0690  228.7770   31.1630 C.2   185  GLY185      0.2638
     60  O         79.0610  228.1200   30.8840 O.2   185  GLY185     -0.2714
     61  N         80.1470  230.0950   31.0070 N.am  186  TYR186     -0.1973
     62  CA        79.0280  230.8760   30.4850 C.3   186  TYR186      0.1639
     63  C         79.6100  232.0020   29.6410 C.2   186  TYR186      0.2290
     64  O         80.1730  232.9520   30.1870 O.2   186  TYR186     -0.2864
     65  CB        78.1720  231.4240   31.6240 C.3   186  TYR186      0.0560
     66  CG        76.8950  232.1290   31.2030 C.ar  186  TYR186     -0.0198
     67  CD1       76.3400  231.9320   29.9410 C.ar  186  TYR186     -0.0009
     68  CD2       76.2400  232.9930   32.0790 C.ar  186  TYR186     -0.0009
     69  CE1       75.1710  232.5750   29.5660 C.ar  186  TYR186      0.0417
     70  CE2       75.0740  233.6420   31.7120 C.ar  186  TYR186      0.0417
     71  CZ        74.5440  233.4270   30.4550 C.ar  186  TYR186      0.1957
     72  OH        73.3850  234.0670   30.0860 O.3   186  TYR186     -0.2866
     73  N         78.9990  235.0840   27.2990 N.3   188  THR188     -0.1203
     74  CA        77.9530  236.0570   26.9940 C.3   188  THR188      0.1994
     75  C         78.4460  237.3020   26.2830 C.2   188  THR188      0.2617
     76  O         77.6140  238.0540   25.7630 O.2   188  THR188     -0.2717
     77  CB        77.2390  236.5110   28.2750 C.3   188  THR188      0.1784
     78  OG1       78.1820  237.1260   29.1650 O.3   188  THR188     -0.2211
     79  CG2       76.5880  235.3410   28.9650 C.3   188  THR188      0.0376
     80  N         79.7510  237.5680   26.2640 N.am  189  ARG189     -0.1979
     81  CA        80.2420  238.8310   25.7380 C.3   189  ARG189      0.1597
     82  C         80.2490  238.8670   24.2160 C.2   189  ARG189      0.2287
     83  O         80.1780  239.9540   23.6380 O.2   189  ARG189     -0.2864
     84  CB        81.6600  239.0930   26.2600 C.3   189  ARG189      0.0334
     85  CG        81.7620  239.2310   27.7810 C.3   189  ARG189      0.0492
     86  CD        83.1510  239.7050   28.2170 C.3   189  ARG189      0.2205
     87  NE        83.2450  239.8790   29.6660 N.pl3 189  ARG189     -0.0865
     88  CZ        84.2580  240.4720   30.2920 C.cat 189  ARG189      0.5346
     89  NH1       85.2760  240.9710   29.6040 N.pl3 189  ARG189      0.1354
     90  NH2       84.2490  240.5710   31.6170 N.pl3 189  ARG189      0.1354
     91  N         70.3370  233.6550   31.0760 N.3   219  SER219     -0.1217
     92  CA        70.8470  232.9220   32.2330 C.3   219  SER219      0.1889
     93  C         69.8260  231.9580   32.8250 C.2   219  SER219      0.2288
     94  O         70.1900  231.1550   33.6910 O.2   219  SER219     -0.2866
     95  CB        71.3040  233.9010   33.3170 C.3   219  SER219      0.2089
     96  OG        70.2230  234.6830   33.7930 O.3   219  SER219     -0.2183
     97  N         70.8120  228.0940   32.6290 N.3   222  LEU222     -0.1245
     98  CA        72.1410  227.6280   33.0160 C.3   222  LEU222      0.1561
     99  C         72.0760  226.2570   33.6760 C.2   222  LEU222      0.2260
    100  O         72.9500  225.4130   33.4540 O.2   222  LEU222     -0.2867
    101  CB        72.8020  228.6380   33.9570 C.3   222  LEU222      0.0270
    102  CG        73.3270  229.9190   33.2980 C.3   222  LEU222      0.0019
    103  CD1       73.7560  230.9220   34.3600 C.3   222  LEU222      0.0001
    104  CD2       74.4840  229.6290   32.3600 C.3   222  LEU222      0.0001
    105  N         72.7460  222.9350   31.7710 N.3   225  ARG225     -0.1245
    106  CA        74.0650  222.4090   31.4350 C.3   225  ARG225      0.1563
    107  C         74.3110  221.0800   32.1380 C.2   225  ARG225      0.2260
    108  O         74.6370  220.0710   31.4990 O.2   225  ARG225     -0.2867
    109  CB        75.1420  223.4300   31.8090 C.3   225  ARG225      0.0307
    110  CG        75.0340  224.7680   31.0670 C.3   225  ARG225      0.0489
    111  CD        76.0180  225.7990   31.6340 C.3   225  ARG225      0.2205
    112  NE        75.7180  226.1270   33.0280 N.pl3 225  ARG225     -0.0865
    113  CZ        76.4280  226.9680   33.7750 C.cat 225  ARG225      0.5346
    114  NH1       76.0720  227.1940   35.0300 N.pl3 225  ARG225      0.1354
    115  NH2       77.4920  227.5800   33.2760 N.pl3 225  ARG225      0.1354
@<TRIPOS>BOND
     1    83    82    2
     2    82    81    1
     3    81    84    1
     4    81    80    1
     5    76    75    2
     6    45    44    2
     7    84    85    1
     8    80    75   am
     9    75    74    1
    10    44    43    1
    11    74    73    1
    12    74    77    1
    13    42    43    1
    14    43    46    1
    15    85    86    1
    16    86    87    1
    17    77    79    1
    18    77    78    1
    19    46    47    1
    20    69    67   ar
    21    69    71   ar
    22    89    88    1
    23    63    64    2
    24    63    62    1
    25    87    88    2
    26    67    66   ar
    27    72    71    1
    28    47    49    1
    29    47    48    1
    30    88    90    1
    31    71    70   ar
    32    62    61    1
    33    62    65    1
    34    60    59    2
    35    61    59   am
    36   110   111    1
    37   110   109    1
    38    91    92    1
    39    59    58    1
    40    66    65    1
    41    66    68   ar
    42     1     2    1
    43   106   105    1
    44   106   109    1
    45   106   107    1
    46   108   107    2
    47   111   112    1
    48    70    68   ar
    49    58    57    1
    50    92    93    1
    51    92    95    1
    52   104   102    1
    53    57    52   am
    54    97    98    1
    55     2     3    1
    56     2     5    1
    57     3     4    2
    58    93    94    2
    59    98    99    1
    60    98   101    1
    61   112   113    2
    62   115   113    1
    63   102   101    1
    64   102   103    1
    65    95    96    1
    66   100    99    2
    67    52    53    2
    68    52    51    1
    69   113   114    1
    70     5     6    1
    71    51    50    1
    72    51    54    1
    73    54    56    1
    74    54    55    1
    75    40    39    1
    76    41    39    1
    77    39    36    1
    78    34    33    1
    79    36    37    1
    80    36    35    1
    81    28    27   ar
    82    28    26   ar
    83    38    37    2
    84    33    30    1
    85    27    25   ar
    86    26    24   ar
    87    14    12    1
    88    32    31    2
    89    30    31    1
    90    30    29    1
    91    12    11    1
    92    25    22   ar
    93    24    22   ar
    94    24    23   ar
    95    22    20   ar
    96    23    21   ar
    97    11    13    1
    98    11     8    1
    99     7     8    1
   100     8     9    1
   101    20    21   ar
   102    20    19    1
   103    19    16    1
   104     9    10    2
   105    16    15    1
   106    16    17    1
   107    17    18    2
