@<TRIPOS>MOLECULE
tmp/5qb4A00.pdb
 143 138 0 0 0
SMALL
GASTEIGER

@<TRIPOS>ATOM
      1  N         87.4690  251.4630   -1.2720 N.3    46  ALA46      -0.1231
      2  CA        87.9960  250.6740   -0.1630 C.3    46  ALA46       0.1694
      3  C         87.7520  251.4390    1.1320 C.2    46  ALA46       0.2592
      4  O         86.6650  251.9930    1.3200 O.2    46  ALA46      -0.2718
      5  CB        89.4720  250.3260   -0.3860 C.3    46  ALA46       0.0304
      6  N         88.7330  251.5020    2.0340 N.am   47  SER47      -0.1952
      7  CA        88.4360  252.0390    3.3540 C.3    47  SER47       0.1924
      8  C         88.1730  253.5490    3.3480 C.2    47  SER47       0.2314
      9  O         87.7660  254.0850    4.3870 O.2    47  SER47      -0.2863
     10  CB        89.5600  251.6950    4.3500 C.3    47  SER47       0.2116
     11  OG        89.9180  250.3160    4.3090 O.3    47  SER47      -0.2180
     12  N         93.9740  238.5930   10.6280 N.3    77  ASP77      -0.1225
     13  CA        95.4190  238.7570   10.4830 C.3    77  ASP77       0.1805
     14  C         95.9080  240.1640   10.8150 C.2    77  ASP77       0.2597
     15  O         97.1200  240.3900   10.8210 O.2    77  ASP77      -0.2718
     16  CB        95.8730  238.3750    9.0750 C.3    77  ASP77       0.1424
     17  CG        95.2790  239.2390    8.0180 C.2    77  ASP77       0.3668
     18  OD1       94.5100  240.1570    8.3590 O.co2  77  ASP77      -0.2456
     19  OD2       95.6010  238.9980    6.8320 O.co2  77  ASP77      -0.2456
     20  N         95.0170  241.1170   11.0410 N.am   78  ILE78      -0.1980
     21  CA        95.4080  242.4470   11.4900 C.3    78  ILE78       0.1595
     22  C         95.1250  242.4970   12.9860 C.2    78  ILE78       0.2287
     23  O         93.9690  242.4830   13.4240 O.2    78  ILE78      -0.2864
     24  CB        94.6810  243.5420   10.7080 C.3    78  ILE78       0.0276
     25  CG1       95.0770  243.4400    9.2270 C.3    78  ILE78       0.0022
     26  CG2       95.0370  244.9430   11.2470 C.3    78  ILE78       0.0022
     27  CD1       94.2630  244.2600    8.3470 C.3    78  ILE78       0.0001
     28  N         92.6600  244.6750   14.7510 N.3    81  TRP81      -0.1241
     29  CA        91.2540  244.3570   14.5340 C.3    81  TRP81       0.1605
     30  C         90.7030  243.4020   15.5790 C.2    81  TRP81       0.2264
     31  O         89.4770  243.3400   15.7510 O.2    81  TRP81      -0.2867
     32  CB        91.0400  243.7360   13.1530 C.3    81  TRP81       0.0550
     33  CG        91.2610  244.6720   12.0030 C.ar   81  TRP81       0.0003
     34  CD1       91.7440  245.9540   12.0490 C.ar   81  TRP81       0.0946
     35  CD2       90.9880  244.3920   10.6310 C.ar   81  TRP81       0.0152
     36  NE1       91.7890  246.4830   10.7830 N.ar   81  TRP81      -0.2442
     37  CE2       91.3360  245.5400    9.8920 C.ar   81  TRP81       0.0810
     38  CE3       90.4850  243.2720    9.9530 C.ar   81  TRP81       0.0012
     39  CZ2       91.1880  245.6090    8.5190 C.ar   81  TRP81       0.0191
     40  CZ3       90.3490  243.3420    8.5740 C.ar   81  TRP81       0.0001
     41  CH2       90.6990  244.5000    7.8750 C.ar   81  TRP81       0.0015
     42  N         92.1260  252.4930   12.7090 N.3    93  TYR93      -0.1227
     43  CA        92.7360  251.2290   12.2990 C.3    93  TYR93       0.1736
     44  C         92.0100  250.5720   11.1280 C.2    93  TYR93       0.2596
     45  O         92.2750  249.4020   10.8370 O.2    93  TYR93      -0.2718
     46  CB        92.8070  250.2620   13.4840 C.3    93  TYR93       0.0548
     47  CG        93.7200  250.7640   14.5910 C.ar   93  TYR93      -0.0200
     48  CD1       95.0970  250.7670   14.4260 C.ar   93  TYR93      -0.0009
     49  CD2       93.2050  251.2750   15.7700 C.ar   93  TYR93      -0.0009
     50  CE1       95.9410  251.2570   15.4250 C.ar   93  TYR93       0.0417
     51  CE2       94.0310  251.7630   16.7650 C.ar   93  TYR93       0.0417
     52  CZ        95.3980  251.7460   16.5850 C.ar   93  TYR93       0.1957
     53  OH        96.2260  252.2260   17.5670 O.3    93  TYR93      -0.2866
     54  N         91.1280  251.3000   10.4380 N.am   94  SER94      -0.1952
     55  CA        90.4150  250.7950    9.2570 C.3    94  SER94       0.1924
     56  C         89.8410  249.4070    9.5080 C.2    94  SER94       0.2314
     57  O         90.1270  248.4470    8.7890 O.2    94  SER94      -0.2863
     58  CB        91.3040  250.7650    8.0080 C.3    94  SER94       0.2116
     59  OG        91.8070  252.0250    7.6830 O.3    94  SER94      -0.2180
     60  N         87.6640  246.8320    9.0910 N.3    96  VAL96      -0.1245
     61  CA        86.6310  246.4120    8.1480 C.3    96  VAL96       0.1561
     62  C         85.4610  245.7050    8.8220 C.2    96  VAL96       0.2260
     63  O         84.3080  246.0250    8.5020 O.2    96  VAL96      -0.2867
     64  CB        87.2600  245.5540    7.0350 C.3    96  VAL96       0.0252
     65  CG1       86.1770  245.0080    6.0980 C.3    96  VAL96       0.0019
     66  CG2       88.2710  246.3610    6.2570 C.3    96  VAL96       0.0019
     67  N         82.1930  248.0630   -1.1770 N.3   133  TRP133     -0.1227
     68  CA        83.2660  249.0470   -1.2850 C.3   133  TRP133      0.1737
     69  C         84.6430  248.4060   -1.4020 C.2   133  TRP133      0.2595
     70  O         85.6210  249.1100   -1.6720 O.2   133  TRP133     -0.2718
     71  CB        83.2470  250.0170   -0.0890 C.3   133  TRP133      0.0564
     72  CG        83.4620  249.3840    1.2400 C.ar  133  TRP133      0.0003
     73  CD1       84.6370  249.2640    1.9210 C.ar  133  TRP133      0.0946
     74  CD2       82.4550  248.7910    2.0700 C.ar  133  TRP133      0.0152
     75  NE1       84.4220  248.6150    3.1190 N.ar  133  TRP133     -0.2442
     76  CE2       83.0890  248.3180    3.2270 C.ar  133  TRP133      0.0810
     77  CE3       81.0760  248.6110    1.9360 C.ar  133  TRP133      0.0012
     78  CZ2       82.3900  247.6880    4.2510 C.ar  133  TRP133      0.0191
     79  CZ3       80.3900  247.9760    2.9440 C.ar  133  TRP133      0.0001
     80  CH2       81.0400  247.5280    4.0830 C.ar  133  TRP133      0.0015
     81  N         84.7320  247.0950   -1.2530 N.am  134  LEU134     -0.1980
     82  CA        85.9750  246.3640   -1.4300 C.3   134  LEU134      0.1596
     83  C         85.9970  245.5410   -2.7080 C.2   134  LEU134      0.2287
     84  O         87.0720  245.3350   -3.2770 O.2   134  LEU134     -0.2864
     85  CB        86.2170  245.4260   -0.2390 C.3   134  LEU134      0.0297
     86  CG        86.2190  246.0960    1.1380 C.3   134  LEU134      0.0022
     87  CD1       86.2130  245.0580    2.2630 C.3   134  LEU134      0.0001
     88  CD2       87.4150  247.0350    1.2590 C.3   134  LEU134      0.0001
     89  N         92.6880  256.8470    5.0100 N.3   185  THR185     -0.1203
     90  CA        93.4320  256.0100    4.0930 C.3   185  THR185      0.1994
     91  C         92.5120  254.9560    3.4890 C.2   185  THR185      0.2618
     92  O         91.4420  254.6370    4.0250 O.2   185  THR185     -0.2717
     93  CB        94.6020  255.3080    4.7790 C.3   185  THR185      0.1784
     94  OG1       94.1030  254.5120    5.8530 O.3   185  THR185     -0.2211
     95  CG2       95.6090  256.3010    5.3090 C.3   185  THR185      0.0376
     96  N         92.9630  254.4130    2.3710 N.am  186  GLY186     -0.1942
     97  CA        92.3100  253.2830    1.7400 C.3   186  GLY186      0.2014
     98  C         93.3300  252.4210    1.0410 C.2   186  GLY186      0.2638
     99  O         94.3860  252.8970    0.6080 O.2   186  GLY186     -0.2714
    100  N         93.0010  251.1380    0.9240 N.am  187  TYR187     -0.1973
    101  CA        93.8520  250.1620    0.2560 C.3   187  TYR187      0.1639
    102  C         92.9520  249.1590   -0.4660 C.2   187  TYR187      0.2290
    103  O         92.3130  248.3240    0.1760 O.2   187  TYR187     -0.2864
    104  CB        94.7450  249.4840    1.2820 C.3   187  TYR187      0.0560
    105  CG        95.7200  248.4770    0.7450 C.ar  187  TYR187     -0.0198
    106  CD1       96.1760  248.5260   -0.5570 C.ar  187  TYR187     -0.0009
    107  CD2       96.1850  247.4600    1.5650 C.ar  187  TYR187     -0.0009
    108  CE1       97.0810  247.5830   -1.0230 C.ar  187  TYR187      0.0417
    109  CE2       97.0800  246.5330    1.1100 C.ar  187  TYR187      0.0417
    110  CZ        97.5210  246.5930   -0.1700 C.ar  187  TYR187      0.1957
    111  OH        98.4070  245.6430   -0.5810 O.3   187  TYR187     -0.2866
    112  N         92.5560  246.0200   -2.9480 N.3   189  THR189     -0.1218
    113  CA        93.3170  244.8900   -3.4850 C.3   189  THR189      0.1862
    114  C         92.5030  243.8520   -4.2640 C.2   189  THR189      0.2287
    115  O         93.0970  243.0630   -5.0100 O.2   189  THR189     -0.2866
    116  CB        94.0390  244.1430   -2.3480 C.3   189  THR189      0.1770
    117  OG1       93.0700  243.6330   -1.4320 O.3   189  THR189     -0.2211
    118  CG2       95.0030  245.0570   -1.5960 C.3   189  THR189      0.0375
    119  N        101.7850  245.6780   -0.0990 N.3   220  SER220     -0.1217
    120  CA       101.5480  246.4880    1.0900 C.3   220  SER220      0.1889
    121  C        102.8000  247.2100    1.5640 C.2   220  SER220      0.2288
    122  O        102.6980  248.0760    2.4370 O.2   220  SER220     -0.2866
    123  CB       101.0210  245.6090    2.2230 C.3   220  SER220      0.2089
    124  OG       101.9180  244.5470    2.4840 O.3   220  SER220     -0.2183
    125  N        102.6570  251.1400    1.3530 N.3   223  LEU223     -0.1245
    126  CA       101.4840  251.8300    1.8660 C.3   223  LEU223      0.1561
    127  C        101.8450  253.1690    2.4970 C.2   223  LEU223      0.2260
    128  O        101.0940  254.1390    2.3680 O.2   223  LEU223     -0.2867
    129  CB       100.7500  250.9300    2.8580 C.3   223  LEU223      0.0270
    130  CG        99.9200  249.8190    2.2030 C.3   223  LEU223      0.0019
    131  CD1       99.4050  248.8410    3.2260 C.3   223  LEU223      0.0001
    132  CD2       98.7390  250.4260    1.4280 C.3   223  LEU223      0.0001
    133  N        101.5520  256.6210    0.5840 N.3   226  ARG226     -0.1245
    134  CA       100.3440  257.4210    0.4160 C.3   226  ARG226      0.1563
    135  C        100.4850  258.7530    1.1490 C.2   226  ARG226      0.2260
    136  O        100.2730  259.8240    0.5710 O.2   226  ARG226     -0.2867
    137  CB        99.1340  256.6350    0.9240 C.3   226  ARG226      0.0307
    138  CG        98.8910  255.3090    0.1830 C.3   226  ARG226      0.0489
    139  CD        97.8390  254.4670    0.8710 C.3   226  ARG226      0.2205
    140  NE        98.2690  254.0560    2.2140 N.pl3 226  ARG226     -0.0865
    141  CZ        97.5260  253.3420    3.0520 C.cat 226  ARG226      0.5346
    142  NH1       97.9920  253.0220    4.2550 N.pl3 226  ARG226      0.1354
    143  NH2       96.3050  252.9650    2.6980 N.pl3 226  ARG226      0.1354
@<TRIPOS>BOND
     1   115   114    2
     2   114   113    1
     3   113   112    1
     4   113   116    1
     5    84    83    2
     6    83    82    1
     7   116   118    1
     8   116   117    1
     9    70    69    2
    10    82    81    1
    11    82    85    1
    12    69    68    1
    13    69    81   am
    14    68    67    1
    15    68    71    1
    16     1     2    1
    17   108   106   ar
    18   108   110   ar
    19   111   110    1
    20   106   105   ar
    21   102   103    2
    22   102   101    1
    23     5     2    1
    24    85    86    1
    25   110   109   ar
    26     2     3    1
    27   119   120    1
    28    71    72    1
    29   138   139    1
    30   138   137    1
    31   101   100    1
    32   101   104    1
    33   134   133    1
    34   134   137    1
    35   134   135    1
    36   136   135    2
    37    99    98    2
    38   105   104    1
    39   105   107   ar
    40   139   140    1
    41   100    98   am
    42    98    97    1
    43   120   121    1
    44   120   123    1
    45   109   107   ar
    46     3     4    2
    47     3     6   am
    48    86    88    1
    49    86    87    1
    50    72    73   ar
    51    72    74   ar
    52   125   126    1
    53   132   130    1
    54   121   122    2
    55    97    96    1
    56   126   127    1
    57   126   129    1
    58    73    75   ar
    59    77    74   ar
    60    77    79   ar
    61     6     7    1
    62    74    76   ar
    63   130   129    1
    64   130   131    1
    65   140   141    2
    66   123   124    1
    67   128   127    2
    68    96    91   am
    69   143   141    1
    70    79    80   ar
    71   141   142    1
    72    75    76   ar
    73    76    78   ar
    74     8     7    1
    75     8     9    2
    76     7    10    1
    77    91    92    2
    78    91    90    1
    79    80    78   ar
    80    90    93    1
    81    90    89    1
    82    11    10    1
    83    93    95    1
    84    93    94    1
    85    65    64    1
    86    66    64    1
    87    19    17   ar
    88    64    61    1
    89    59    58    1
    90    41    39   ar
    91    41    40   ar
    92    58    55    1
    93    17    18   ar
    94    17    16    1
    95    61    62    1
    96    61    60    1
    97    27    25    1
    98    63    62    2
    99    39    37   ar
   100    40    38   ar
   101    57    56    2
   102    16    13    1
   103    25    24    1
   104    55    56    1
   105    55    54    1
   106    37    35   ar
   107    37    36   ar
   108    38    35   ar
   109    54    44   am
   110    13    12    1
   111    13    14    1
   112    35    33   ar
   113    24    26    1
   114    24    21    1
   115    36    34   ar
   116    14    15    2
   117    14    20   am
   118    45    44    2
   119    20    21    1
   120    44    43    1
   121    21    22    1
   122    33    34   ar
   123    33    32    1
   124    43    42    1
   125    43    46    1
   126    22    23    2
   127    32    29    1
   128    46    47    1
   129    48    47   ar
   130    48    50   ar
   131    29    28    1
   132    29    30    1
   133    47    49   ar
   134    50    52   ar
   135    30    31    2
   136    49    51   ar
   137    52    51   ar
   138    52    53    1
