@<TRIPOS>MOLECULE
tmp/5qbuB00.pdb
 182 180 0 0 0
SMALL
GASTEIGER

@<TRIPOS>ATOM
      1  N          8.3950   -3.6650   17.4070 N.3    25  SER25      -0.1202
      2  CA         9.2150   -3.0540   16.3700 C.3    25  SER25       0.2020
      3  C          8.5750   -1.7850   15.7730 C.2    25  SER25       0.2618
      4  O          9.2690   -0.7760   15.5750 O.2    25  SER25      -0.2717
      5  CB         9.5250   -4.0760   15.2710 C.3    25  SER25       0.2103
      6  OG         8.3650   -4.5170   14.5860 O.3    25  SER25      -0.2182
      7  N          7.2660   -1.8330   15.5060 N.am   26  TRP26      -0.1975
      8  CA         6.4920   -0.6320   15.1150 C.3    26  TRP26       0.1640
      9  C          6.6980    0.5760   16.0280 C.2    26  TRP26       0.2290
     10  O          6.9610    1.6830   15.5470 O.2    26  TRP26      -0.2864
     11  CB         4.9970   -0.9190   15.0230 C.3    26  TRP26       0.0576
     12  CG         4.3380   -1.4120   16.2580 C.ar   26  TRP26       0.0006
     13  CD1        4.3410   -2.6870   16.7280 C.ar   26  TRP26       0.0946
     14  CD2        3.5480   -0.6460   17.1690 C.ar   26  TRP26       0.0152
     15  NE1        3.6170   -2.7590   17.8860 N.ar   26  TRP26      -0.2442
     16  CE2        3.1040   -1.5220   18.1720 C.ar   26  TRP26       0.0810
     17  CE3        3.1830    0.7060   17.2480 C.ar   26  TRP26       0.0012
     18  CZ2        2.3020   -1.0930   19.2470 C.ar   26  TRP26       0.0191
     19  CZ3        2.3870    1.1330   18.3190 C.ar   26  TRP26       0.0001
     20  CH2        1.9600    0.2370   19.2950 C.ar   26  TRP26       0.0015
     21  N         -6.0810   -0.7830   20.7760 N.3    59  GLU59      -0.1231
     22  CA        -7.1050   -1.1850   19.7870 C.3    59  GLU59       0.1699
     23  C         -7.8280   -0.0300   19.0910 C.2    59  GLU59       0.2592
     24  O         -8.1710   -0.1210   17.9190 O.2    59  GLU59      -0.2718
     25  CB        -8.1290   -2.1670   20.3980 C.3    59  GLU59       0.0402
     26  CG        -9.1460   -1.6000   21.4080 C.3    59  GLU59       0.1161
     27  CD        -8.5680   -1.2800   22.8050 C.2    59  GLU59       0.3649
     28  OE1       -7.5700   -1.9460   23.2160 O.co2  59  GLU59      -0.2457
     29  OE2       -9.0900   -0.3460   23.4840 O.co2  59  GLU59      -0.2457
     30  N         -8.0390    1.0570   19.8170 N.am   60  LYS60      -0.1966
     31  CA        -8.5460    2.3180   19.2460 C.3    60  LYS60       0.1728
     32  C         -7.6660    2.8770   18.0880 C.2    60  LYS60       0.2616
     33  O         -8.1750    3.6020   17.2410 O.2    60  LYS60      -0.2715
     34  CB        -8.7390    3.3420   20.3870 C.3    60  LYS60       0.0311
     35  CG        -9.1670    4.7530   19.9990 C.3    60  LYS60       0.0038
     36  CD        -9.7530    5.5170   21.1970 C.3    60  LYS60       0.0206
     37  CE        -9.4340    7.0170   21.1710 C.3    60  LYS60       0.1093
     38  NZ        -8.1890    7.3450   21.9350 N.3    60  LYS60      -0.1314
     39  N         -6.3710    2.5310   18.0460 N.am   61  TYR61      -0.1960
     40  CA        -5.4640    2.8870   16.9350 C.3    61  TYR61       0.1771
     41  C         -5.0820    1.7070   16.0670 C.2    61  TYR61       0.2620
     42  O         -4.1400    1.7880   15.3020 O.2    61  TYR61      -0.2715
     43  CB        -4.1960    3.5400   17.5000 C.3    61  TYR61       0.0574
     44  CG        -4.5040    4.8420   18.1530 C.ar   61  TYR61      -0.0198
     45  CD1       -4.8520    4.8900   19.4960 C.ar   61  TYR61      -0.0009
     46  CD2       -4.5290    6.0250   17.4120 C.ar   61  TYR61      -0.0009
     47  CE1       -5.1870    6.0800   20.0990 C.ar   61  TYR61       0.0417
     48  CE2       -4.8460    7.2310   18.0110 C.ar   61  TYR61       0.0417
     49  CZ        -5.1810    7.2490   19.3540 C.ar   61  TYR61       0.1957
     50  OH        -5.4890    8.4300   19.9670 O.3    61  TYR61      -0.2866
     51  N         -5.8210    0.6140   16.1740 N.am   62  GLY62      -0.1954
     52  CA        -5.5570   -0.5890   15.4000 C.3    62  GLY62       0.1869
     53  C         -4.3390   -1.3700   15.8010 C.2    62  GLY62       0.2309
     54  O         -3.8850   -2.2000   15.0420 O.2    62  GLY62      -0.2863
     55  N          1.4060   -3.7680   15.4950 N.3    69  GLY69      -0.1210
     56  CA         0.8230   -2.4540   15.3310 C.3    69  GLY69       0.1956
     57  C          1.5570   -1.7220   14.2250 C.2    69  GLY69       0.2612
     58  O          2.4470   -2.2860   13.5650 O.2    69  GLY69      -0.2717
     59  N          1.2090   -0.4550   14.0490 N.am   70  PHE70      -0.1962
     60  CA         1.6370    0.3220   12.9090 C.3    70  PHE70       0.1771
     61  C          2.2330    1.6340   13.3890 C.2    70  PHE70       0.2619
     62  O          1.7710    2.1810   14.3750 O.2    70  PHE70      -0.2715
     63  CB         0.4080    0.5940   12.0240 C.3    70  PHE70       0.0574
     64  CG        -0.3540   -0.6430   11.6200 C.ar   70  PHE70      -0.0200
     65  CD1       -1.3670   -1.1420   12.4400 C.ar   70  PHE70      -0.0042
     66  CD2       -0.0690   -1.3000   10.4230 C.ar   70  PHE70      -0.0042
     67  CE1       -2.0870   -2.2780   12.0680 C.ar   70  PHE70      -0.0003
     68  CE2       -0.7600   -2.4470   10.0540 C.ar   70  PHE70      -0.0003
     69  CZ        -1.7680   -2.9390   10.8790 C.ar   70  PHE70      -0.0000
     70  N          3.2390    2.1470   12.6920 N.am   71  MET71      -0.1963
     71  CA         3.8090    3.4710   13.0140 C.3    71  MET71       0.1736
     72  C          2.8450    4.6520   12.7570 C.2    71  MET71       0.2617
     73  O          2.7640    5.5910   13.5640 O.2    71  MET71      -0.2715
     74  CB         5.0940    3.7010   12.2190 C.3    71  MET71       0.0427
     75  CG         6.1890    2.7070   12.5340 C.3    71  MET71       0.0599
     76  SD         6.0570    1.1690   11.6010 S.3    71  MET71      -0.1393
     77  CE         6.7070    1.6550    9.9970 C.3    71  MET71       0.0692
     78  N          2.1270    4.6030   11.6300 N.am   72  THR72      -0.1937
     79  CA         1.1920    5.6660   11.2720 C.3    72  THR72       0.2028
     80  C          0.2110    5.9650   12.4130 C.2    72  THR72       0.2642
     81  O          0.0080    7.1340   12.7690 O.2    72  THR72      -0.2714
     82  CB         0.3930    5.3570    9.9790 C.3    72  THR72       0.1808
     83  OG1       -0.1800    4.0410   10.0380 O.3    72  THR72      -0.2208
     84  CG2        1.2830    5.4450    8.7690 C.3    72  THR72       0.0379
     85  N         -0.3680    4.9180   12.9950 N.am   73  THR73      -0.1950
     86  CA        -1.3740    5.0950   14.0370 C.3    73  THR73       0.1897
     87  C         -0.7220    5.4750   15.3600 C.2    73  THR73       0.2313
     88  O         -1.3190    6.1940   16.1480 O.2    73  THR73      -0.2863
     89  CB        -2.2580    3.8550   14.2200 C.3    73  THR73       0.1794
     90  OG1       -1.4930    2.7520   14.7450 O.3    73  THR73      -0.2208
     91  CG2       -2.9220    3.4870   12.8840 C.3    73  THR73       0.0378
     92  N         -0.4230    9.1110   15.1690 N.3    76  GLN76      -0.1245
     93  CA        -1.7370    9.7000   15.4670 C.3    76  GLN76       0.1566
     94  C         -2.0120    9.7780   16.9770 C.2    76  GLN76       0.2260
     95  O         -2.4870   10.8050   17.4570 O.2    76  GLN76      -0.2867
     96  CB        -2.8780    8.9350   14.7650 C.3    76  GLN76       0.0367
     97  CG        -4.2310    9.6560   14.7960 C.3    76  GLN76       0.0905
     98  CD        -4.1970   10.9950   14.0780 C.2    76  GLN76       0.2608
     99  OE1       -3.8370   11.0830   12.8890 O.2    76  GLN76      -0.2717
    100  NE2       -4.5560   12.0540   14.8020 N.am   76  GLN76      -0.0878
    101  N          2.4900    9.8950    4.8160 N.3   115  GLU115     -0.1245
    102  CA         2.7300    8.5820    4.2600 C.3   115  GLU115      0.1567
    103  C          3.2490    8.7810    2.8480 C.2   115  GLU115      0.2260
    104  O          2.7720    9.6450    2.1350 O.2   115  GLU115     -0.2867
    105  CB         1.4530    7.7640    4.2460 C.3   115  GLU115      0.0388
    106  CG         0.9430    7.4060    5.6310 C.3   115  GLU115      0.1160
    107  CD        -0.4100    6.6860    5.6120 C.2   115  GLU115      0.3649
    108  OE1       -0.6100    5.8420    4.7040 O.co2 115  GLU115     -0.2457
    109  OE2       -1.2820    6.9690    6.4920 O.co2 115  GLU115     -0.2457
    110  N          3.4760    3.9130   -2.1100 N.3   118  TYR118     -0.1241
    111  CA         3.9950    2.5510   -2.0380 C.3   118  TYR118      0.1605
    112  C          5.0300    2.2960   -3.1370 C.2   118  TYR118      0.2264
    113  O          4.8280    2.6880   -4.2820 O.2   118  TYR118     -0.2867
    114  CB         2.8120    1.5730   -2.1570 C.3   118  TYR118      0.0534
    115  CG         3.1040    0.0930   -1.9990 C.ar  118  TYR118     -0.0201
    116  CD1        3.8630   -0.5990   -2.9590 C.ar  118  TYR118     -0.0009
    117  CD2        2.5490   -0.6450   -0.9480 C.ar  118  TYR118     -0.0009
    118  CE1        4.1160   -1.9550   -2.8430 C.ar  118  TYR118      0.0417
    119  CE2        2.7970   -1.9940   -0.8250 C.ar  118  TYR118      0.0417
    120  CZ         3.5930   -2.6440   -1.7860 C.ar  118  TYR118      0.1957
    121  OH         3.8560   -3.9870   -1.7340 O.3   118  TYR118     -0.2866
    122  N          8.4410   -0.3860    7.1110 N.3   137  GLY137     -0.1225
    123  CA         8.2910   -1.7900    7.4240 C.3   137  GLY137      0.1811
    124  C          9.1450   -2.5570    6.4540 C.2   137  GLY137      0.2280
    125  O          9.4030   -2.0870    5.3330 O.2   137  GLY137     -0.2866
    126  N          7.2150   -8.2000   -0.6770 N.3   160  GLN160     -0.1231
    127  CA         6.7930   -6.8570   -0.3040 C.3   160  GLN160      0.1698
    128  C          5.6970   -6.8630    0.7600 C.2   160  GLN160      0.2592
    129  O          5.1020   -5.8170    1.0250 O.2   160  GLN160     -0.2718
    130  CB         6.3540   -6.0780   -1.5540 C.3   160  GLN160      0.0381
    131  CG         7.5020   -5.8800   -2.5330 C.3   160  GLN160      0.0905
    132  CD         7.0970   -5.2700   -3.8570 C.2   160  GLN160      0.2608
    133  OE1        6.1680   -4.4600   -3.9500 O.2   160  GLN160     -0.2717
    134  NE2        7.8070   -5.6740   -4.9050 N.am  160  GLN160     -0.0878
    135  N          5.4430   -8.0190    1.3830 N.am  161  ASN161     -0.1960
    136  CA         4.5550   -8.0770    2.5540 C.3   161  ASN161      0.1819
    137  C          5.3260   -7.8430    3.8400 C.2   161  ASN161      0.2621
    138  O          5.9130   -8.7850    4.4110 O.2   161  ASN161     -0.2715
    139  CB         3.8060   -9.3970    2.6230 C.3   161  ASN161      0.1195
    140  CG         3.0410   -9.6950    1.3550 C.2   161  ASN161      0.2630
    141  OD1        2.3870   -8.8110    0.7760 O.2   161  ASN161     -0.2716
    142  ND2        3.1350  -10.9520    0.8970 N.am  161  ASN161     -0.0877
    143  N          5.3180   -6.5860    4.2940 N.am  162  VAL162     -0.1963
    144  CA         6.1560   -6.1840    5.4290 C.3   162  VAL162      0.1727
    145  C          5.5410   -6.6160    6.7650 C.2   162  VAL162      0.2616
    146  O          4.3440   -6.7100    6.9000 O.2   162  VAL162     -0.2715
    147  CB         6.4790   -4.6660    5.4370 C.3   162  VAL162      0.0290
    148  CG1        6.9390   -4.2110    4.0730 C.3   162  VAL162      0.0023
    149  CG2        5.3270   -3.8020    5.9590 C.3   162  VAL162      0.0023
    150  N          6.3910   -6.8730    7.7390 N.am  163  ASN163     -0.1958
    151  CA         5.9520   -7.4090    9.0170 C.3   163  ASN163      0.1819
    152  C          6.8130   -6.9980   10.2140 C.2   163  ASN163      0.2621
    153  O          6.6080   -7.4910   11.2950 O.2   163  ASN163     -0.2715
    154  CB         5.9460   -8.9180    8.8820 C.3   163  ASN163      0.1195
    155  CG         7.2690   -9.4550    8.3550 C.2   163  ASN163      0.2630
    156  OD1        8.2890   -9.3820    9.0490 O.2   163  ASN163     -0.2716
    157  ND2        7.2650   -9.9770    7.1220 N.am  163  ASN163     -0.0877
    158  N          7.7450   -6.0670   10.0260 N.am  164  HIS164     -0.1959
    159  CA         8.7220   -5.7050   11.0570 C.3   164  HIS164      0.1787
    160  C          9.1270   -4.2310   10.8500 C.2   164  HIS164      0.2620
    161  O          9.5770   -3.8490    9.7690 O.2   164  HIS164     -0.2715
    162  CB         9.9410   -6.6500   10.9920 C.3   164  HIS164      0.0785
    163  CG        11.0350   -6.2810   11.9390 C.ar  164  HIS164      0.0821
    164  ND1       10.8410   -6.1860   13.3010 N.ar  164  HIS164     -0.2267
    165  CD2       12.3220   -5.9370   11.7170 C.ar  164  HIS164      0.1154
    166  CE1       11.9710   -5.8170   13.8800 C.ar  164  HIS164      0.1986
    167  NE2       12.8830   -5.6530   12.9390 N.ar  164  HIS164     -0.2212
    168  N          8.9210   -3.4190   11.8780 N.am  165  GLY165     -0.1954
    169  CA         9.1520   -1.9830   11.8110 C.3   165  GLY165      0.1869
    170  C         10.5820   -1.5930   12.1140 C.2   165  GLY165      0.2309
    171  O         11.1760   -2.0750   13.0820 O.2   165  GLY165     -0.2863
    172  N          5.3860    0.9210    2.9420 N.3   211  PHE211     -0.1241
    173  CA         4.6350    1.8370    3.8300 C.3   211  PHE211      0.1605
    174  C          5.5320    2.7760    4.6320 C.2   211  PHE211      0.2264
    175  O          5.6620    2.6460    5.8550 O.2   211  PHE211     -0.2867
    176  CB         3.6960    1.0480    4.7390 C.3   211  PHE211      0.0534
    177  CG         2.6450    0.3190    3.9830 C.ar  211  PHE211     -0.0203
    178  CD1        1.5870    1.0060    3.4080 C.ar  211  PHE211     -0.0042
    179  CD2        2.7380   -1.0480    3.7830 C.ar  211  PHE211     -0.0042
    180  CE1        0.6290    0.3550    2.6600 C.ar  211  PHE211     -0.0003
    181  CE2        1.7740   -1.7060    3.0530 C.ar  211  PHE211     -0.0003
    182  CZ         0.7100   -1.0080    2.4850 C.ar  211  PHE211     -0.0000
@<TRIPOS>BOND
     1   134   132   am
     2   113   112    2
     3   133   132    2
     4   132   131    1
     5   112   111    1
     6   116   118   ar
     7   116   115   ar
     8   118   120   ar
     9   131   130    1
    10   114   111    1
    11   114   115    1
    12   110   111    1
    13   115   117   ar
    14   120   121    1
    15   120   119   ar
    16   130   127    1
    17   117   119   ar
    18   126   127    1
    19   127   128    1
    20   128   129    2
    21   128   135   am
    22   141   140    2
    23   142   140   am
    24   140   139    1
    25   135   136    1
    26   104   103    2
    27   182   180   ar
    28   182   181   ar
    29   136   139    1
    30   136   137    1
    31   180   178   ar
    32   103   102    1
    33   172   173    1
    34   181   179   ar
    35   178   177   ar
    36   179   177   ar
    37   173   174    1
    38   173   176    1
    39   137   143   am
    40   137   138    2
    41   177   176    1
    42   148   147    1
    43   105   102    1
    44   105   106    1
    45   102   101    1
    46   143   144    1
    47   174   175    2
    48   108   107   ar
    49   125   124    2
    50   144   147    1
    51   144   145    1
    52   147   149    1
    53   107   106    1
    54   107   109   ar
    55   124   123    1
    56   145   146    2
    57   145   150   am
    58   122   123    1
    59   157   155   am
    60   150   151    1
    61   155   154    1
    62   155   156    2
    63    84    82    1
    64   154   151    1
    65   151   152    1
    66   161   160    2
    67    82    83    1
    68    82    79    1
    69    77    76    1
    70   158   152   am
    71   158   159    1
    72    68    66   ar
    73    68    69   ar
    74   152   153    2
    75    66    64   ar
    76   160   159    1
    77   160   168   am
    78    69    67   ar
    79   162   159    1
    80   162   163    1
    81    79    78    1
    82    79    80    1
    83    76    75    1
    84    64    63    1
    85    64    65   ar
    86    78    72   am
    87   165   163   ar
    88   165   167   ar
    89   169   168    1
    90   169   170    1
    91   163   164   ar
    92    63    60    1
    93    67    65   ar
    94   170   171    2
    95    74    75    1
    96    74    71    1
    97    80    81    2
    98    80    85   am
    99    70    71    1
   100    70    61   am
   101    72    71    1
   102    72    73    2
   103    91    89    1
   104    99    98    2
   105    60    61    1
   106    60    59    1
   107   167   166   ar
   108    85    86    1
   109   164   166   ar
   110    61    62    2
   111    58    57    2
   112    86    89    1
   113    86    87    1
   114    59    57   am
   115    98    97    1
   116    98   100   am
   117    89    90    1
   118    57    56    1
   119     6     5    1
   120    96    97    1
   121    96    93    1
   122    11     8    1
   123    11    12    1
   124    54    53    2
   125     8     7    1
   126     8     9    1
   127    92    93    1
   128     5     2    1
   129    42    41    2
   130    56    55    1
   131    87    88    2
   132    52    53    1
   133    52    51    1
   134    93    94    1
   135     7     3   am
   136    10     9    2
   137     4     3    2
   138     3     2    1
   139    41    51   am
   140    41    40    1
   141    12    13   ar
   142    12    14   ar
   143     2     1    1
   144    13    15   ar
   145    40    43    1
   146    40    39    1
   147    94    95    2
   148    14    17   ar
   149    14    16   ar
   150    33    32    2
   151    17    19   ar
   152    46    48   ar
   153    46    44   ar
   154    43    44    1
   155    15    16   ar
   156    24    23    2
   157    48    49   ar
   158    39    32   am
   159    32    31    1
   160    44    45   ar
   161    16    18   ar
   162    19    20   ar
   163    23    22    1
   164    23    30   am
   165    31    30    1
   166    31    34    1
   167    18    20   ar
   168    49    50    1
   169    49    47   ar
   170    45    47   ar
   171    22    25    1
   172    22    21    1
   173    35    34    1
   174    35    36    1
   175    25    26    1
   176    37    36    1
   177    37    38    1
   178    26    27    1
   179    27    28   ar
   180    27    29   ar
