@<TRIPOS>MOLECULE
tmp/5qbvB00.pdb
 197 193 0 0 0
SMALL
GASTEIGER

@<TRIPOS>ATOM
      1  N        -15.8810   -6.6660  -77.7970 N.3    26  SER26      -0.1202
      2  CA       -15.0560   -7.5290  -78.6430 C.3    26  SER26       0.2020
      3  C        -13.6390   -6.9870  -78.7620 C.2    26  SER26       0.2618
      4  O        -12.6720   -7.7600  -78.8040 O.2    26  SER26      -0.2717
      5  CB       -15.6810   -7.6860  -80.0350 C.3    26  SER26       0.2103
      6  OG       -15.6890   -6.4490  -80.7600 O.3    26  SER26      -0.2182
      7  N        -13.5010   -5.6560  -78.8070 N.am   27  TRP27      -0.1975
      8  CA       -12.1810   -5.0300  -78.8580 C.3    27  TRP27       0.1640
      9  C        -11.3140   -5.4490  -77.6690 C.2    27  TRP27       0.2290
     10  O        -10.1050   -5.6810  -77.8190 O.2    27  TRP27      -0.2864
     11  CB       -12.3400   -3.5020  -78.8850 C.3    27  TRP27       0.0576
     12  CG       -13.0580   -2.9210  -77.6710 C.ar   27  TRP27       0.0006
     13  CD1      -14.4230   -2.8350  -77.4690 C.ar   27  TRP27       0.0946
     14  CD2      -12.4480   -2.3400  -76.5000 C.ar   27  TRP27       0.0152
     15  NE1      -14.6830   -2.2490  -76.2390 N.ar   27  TRP27      -0.2442
     16  CE2      -13.4910   -1.9360  -75.6340 C.ar   27  TRP27       0.0810
     17  CE3      -11.1210   -2.1210  -76.1050 C.ar   27  TRP27       0.0012
     18  CZ2      -13.2470   -1.3170  -74.4010 C.ar   27  TRP27       0.0191
     19  CZ3      -10.8820   -1.5060  -74.8700 C.ar   27  TRP27       0.0001
     20  CH2      -11.9380   -1.1180  -74.0360 C.ar   27  TRP27       0.0015
     21  N        -12.3660    6.9900  -71.9240 N.3    60  GLU60      -0.1231
     22  CA       -12.4720    8.1700  -72.7910 C.3    60  GLU60       0.1699
     23  C        -11.1130    8.6980  -73.2400 C.2    60  GLU60       0.2592
     24  O        -10.9790    9.2010  -74.3670 O.2    60  GLU60      -0.2718
     25  CB       -13.2410    9.2910  -72.0810 C.3    60  GLU60       0.0402
     26  CG       -14.7100    8.9880  -71.8270 C.3    60  GLU60       0.1161
     27  CD       -14.9710    8.3540  -70.4640 C.2    60  GLU60       0.3649
     28  OE1      -16.1560    8.3130  -70.0530 O.co2  60  GLU60      -0.2457
     29  OE2      -14.0040    7.9220  -69.7990 O.co2  60  GLU60      -0.2457
     30  N        -10.1000    8.6330  -72.3720 N.am   61  LYS61      -0.1966
     31  CA        -8.7810    9.1200  -72.7800 C.3    61  LYS61       0.1728
     32  C         -8.1930    8.2850  -73.9040 C.2    61  LYS61       0.2616
     33  O         -7.3040    8.7590  -74.6210 O.2    61  LYS61      -0.2715
     34  CB        -7.8020    9.1320  -71.6010 C.3    61  LYS61       0.0311
     35  CG        -8.2030   10.0780  -70.4740 C.3    61  LYS61       0.0038
     36  CD        -7.2320    9.9900  -69.2990 C.3    61  LYS61       0.0206
     37  CE        -7.4860    8.7490  -68.4280 C.3    61  LYS61       0.1093
     38  NZ        -7.2880    7.4260  -69.1190 N.3    61  LYS61      -0.1314
     39  N         -8.6730    7.0560  -74.0650 N.am   62  TYR62      -0.1960
     40  CA        -8.2170    6.1290  -75.0900 C.3    62  TYR62       0.1771
     41  C         -9.2280    6.0000  -76.2170 C.2    62  TYR62       0.2620
     42  O         -9.0490    5.1670  -77.1090 O.2    62  TYR62      -0.2715
     43  CB        -7.9210    4.7640  -74.4490 C.3    62  TYR62       0.0574
     44  CG        -6.7920    4.8770  -73.4520 C.ar   62  TYR62      -0.0198
     45  CD1       -7.0370    5.1150  -72.1060 C.ar   62  TYR62      -0.0009
     46  CD2       -5.4740    4.8140  -73.8770 C.ar   62  TYR62      -0.0009
     47  CE1       -5.9820    5.2610  -71.2030 C.ar   62  TYR62       0.0417
     48  CE2       -4.4270    4.9560  -72.9900 C.ar   62  TYR62       0.0417
     49  CZ        -4.6880    5.1760  -71.6580 C.ar   62  TYR62       0.1957
     50  OH        -3.6330    5.3140  -70.7880 O.3    62  TYR62      -0.2866
     51  N        -10.2660    6.8390  -76.2150 N.am   63  GLY63      -0.1954
     52  CA       -11.2680    6.8100  -77.2560 C.3    63  GLY63       0.1869
     53  C        -12.2340    5.6590  -77.1800 C.2    63  GLY63       0.2309
     54  O        -13.0230    5.4720  -78.1060 O.2    63  GLY63      -0.2863
     55  N        -15.3170    3.1830  -75.4510 N.3    65  LYS65      -0.1245
     56  CA       -16.6370    3.3560  -74.8620 C.3    65  LYS65       0.1561
     57  C        -17.1160    2.0740  -74.1900 C.2    65  LYS65       0.2260
     58  O        -18.3220    1.7990  -74.1630 O.2    65  LYS65      -0.2867
     59  CB       -17.6430    3.8070  -75.9250 C.3    65  LYS65       0.0271
     60  CG       -17.4340    5.2290  -76.4240 C.3    65  LYS65       0.0035
     61  CD       -18.5050    5.6170  -77.4510 C.3    65  LYS65       0.0206
     62  CE       -18.8380    7.1090  -77.3800 C.3    65  LYS65       0.1093
     63  NZ       -19.2590    7.6370  -78.7280 N.3    65  LYS65      -0.1314
     64  N        -19.9060   -0.2150  -75.3620 N.3    68  ASN68      -0.1225
     65  CA       -20.3610    0.3380  -76.6320 C.3    68  ASN68       0.1785
     66  C        -19.2340    0.5120  -77.6480 C.2    68  ASN68       0.2598
     67  O        -19.3780    1.2980  -78.5890 O.2    68  ASN68      -0.2718
     68  CB       -21.0950    1.6560  -76.3970 C.3    68  ASN68       0.1169
     69  CG       -22.4350    1.4390  -75.7160 C.2    68  ASN68       0.2627
     70  OD1      -22.6110    1.7600  -74.5420 O.2    68  ASN68      -0.2716
     71  ND2      -23.3700    0.8380  -76.4420 N.am   68  ASN68      -0.0877
     72  N        -18.1390   -0.2280  -77.5050 N.am   69  GLY69      -0.1942
     73  CA       -17.1390   -0.3260  -78.5490 C.3    69  GLY69       0.2014
     74  C        -15.8100    0.2790  -78.1280 C.2    69  GLY69       0.2639
     75  O        -15.6990    0.9810  -77.1220 O.2    69  GLY69      -0.2714
     76  N        -14.7930   -0.0240  -78.9290 N.am   70  GLY70      -0.1939
     77  CA       -13.4420    0.4420  -78.6470 C.3    70  GLY70       0.2014
     78  C        -12.4620   -0.0330  -79.7050 C.2    70  GLY70       0.2639
     79  O        -12.8510   -0.6470  -80.7030 O.2    70  GLY70      -0.2714
     80  N        -11.1720    0.2550  -79.4610 N.am   71  PHE71      -0.1959
     81  CA       -10.0550   -0.0950  -80.3410 C.3    71  PHE71       0.1771
     82  C         -9.0720   -1.0070  -79.6180 C.2    71  PHE71       0.2619
     83  O         -8.7510   -0.7720  -78.4480 O.2    71  PHE71      -0.2715
     84  CB        -9.2600    1.1490  -80.7930 C.3    71  PHE71       0.0574
     85  CG       -10.0750    2.1770  -81.5240 C.ar   71  PHE71      -0.0200
     86  CD1      -10.5660    3.2890  -80.8550 C.ar   71  PHE71      -0.0042
     87  CD2      -10.3310    2.0400  -82.8760 C.ar   71  PHE71      -0.0042
     88  CE1      -11.3140    4.2600  -81.5390 C.ar   71  PHE71      -0.0003
     89  CE2      -11.0800    2.9950  -83.5660 C.ar   71  PHE71      -0.0003
     90  CZ       -11.5710    4.1030  -82.8940 C.ar   71  PHE71      -0.0000
     91  N         -8.5430   -2.0160  -80.3300 N.am   72  MET72      -0.1963
     92  CA        -7.4920   -2.8420  -79.7380 C.3    72  MET72       0.1736
     93  C         -6.2050   -2.0420  -79.5330 C.2    72  MET72       0.2617
     94  O         -5.5110   -2.2240  -78.5230 O.2    72  MET72      -0.2715
     95  CB        -7.2240   -4.0710  -80.6130 C.3    72  MET72       0.0427
     96  CG        -8.3530   -5.0950  -80.6140 C.3    72  MET72       0.0599
     97  SD        -9.6980   -4.6610  -81.7280 S.3    72  MET72      -0.1393
     98  CE        -9.0090   -5.1350  -83.3110 C.3    72  MET72       0.0692
     99  N         -5.8650   -1.1530  -80.4720 N.am   73  THR73      -0.1937
    100  CA        -4.6010   -0.4210  -80.3500 C.3    73  THR73       0.2028
    101  C         -4.5780    0.4630  -79.1130 C.2    73  THR73       0.2642
    102  O         -3.5550    0.5480  -78.4330 O.2    73  THR73      -0.2714
    103  CB        -4.3190    0.4310  -81.5850 C.3    73  THR73       0.1808
    104  OG1       -5.4310    1.2950  -81.8330 O.3    73  THR73      -0.2208
    105  CG2       -4.0230   -0.4280  -82.8050 C.3    73  THR73       0.0379
    106  N         -5.6710    1.1750  -78.8210 N.am   74  THR74      -0.1950
    107  CA        -5.6380    2.0040  -77.6180 C.3    74  THR74       0.1897
    108  C         -5.8090    1.1830  -76.3440 C.2    74  THR74       0.2313
    109  O         -5.3800    1.6290  -75.2740 O.2    74  THR74      -0.2863
    110  CB        -6.6920    3.1120  -77.6840 C.3    74  THR74       0.1794
    111  OG1       -7.9960    2.5350  -77.7550 O.3    74  THR74      -0.2208
    112  CG2       -6.4660    4.0010  -78.8980 C.3    74  THR74       0.0378
    113  N         -2.2590    0.6160  -75.7290 N.3    77  GLN77      -0.1245
    114  CA        -1.6310    1.8120  -75.1620 C.3    77  GLN77       0.1566
    115  C         -1.9840    1.9860  -73.6890 C.2    77  GLN77       0.2260
    116  O         -1.1470    2.4280  -72.8950 O.2    77  GLN77      -0.2867
    117  CB        -2.0350    3.0660  -75.9450 C.3    77  GLN77       0.0367
    118  CG        -1.1670    4.2820  -75.5790 C.3    77  GLN77       0.0905
    119  CD         0.2910    4.0620  -75.9300 C.2    77  GLN77       0.2608
    120  OE1        0.6260    3.7980  -77.0840 O.2    77  GLN77      -0.2717
    121  NE2        1.1670    4.1730  -74.9410 N.am   77  GLN77      -0.0878
    122  N          3.2170   -1.7320  -79.3740 N.3   114  TYR114     -0.1241
    123  CA         2.3660   -2.4540  -80.3090 C.3   114  TYR114      0.1605
    124  C          2.6970   -1.9880  -81.7180 C.2   114  TYR114      0.2264
    125  O          3.2650   -0.9120  -81.9250 O.2   114  TYR114     -0.2867
    126  CB         0.8610   -2.2770  -79.9940 C.3   114  TYR114      0.0534
    127  CG         0.3240   -0.8770  -80.2440 C.ar  114  TYR114     -0.0201
    128  CD1       -0.2350   -0.5280  -81.4780 C.ar  114  TYR114     -0.0009
    129  CD2        0.3580    0.0840  -79.2440 C.ar  114  TYR114     -0.0009
    130  CE1       -0.7300    0.7530  -81.7080 C.ar  114  TYR114      0.0417
    131  CE2       -0.1280    1.3760  -79.4690 C.ar  114  TYR114      0.0417
    132  CZ        -0.6730    1.6950  -80.6940 C.ar  114  TYR114      0.1957
    133  OH        -1.1540    2.9690  -80.9140 O.3   114  TYR114     -0.2866
    134  N          1.1810   -1.7110  -85.7970 N.3   116  GLU116     -0.1245
    135  CA         0.0720   -1.7590  -86.7420 C.3   116  GLU116      0.1567
    136  C          0.5690   -2.2020  -88.1120 C.2   116  GLU116      0.2260
    137  O          1.6440   -1.7880  -88.5630 O.2   116  GLU116     -0.2867
    138  CB        -0.6100   -0.3950  -86.8450 C.3   116  GLU116      0.0388
    139  CG        -1.1710    0.0740  -85.5120 C.3   116  GLU116      0.1160
    140  CD        -1.7530    1.4690  -85.5800 C.2   116  GLU116      0.3649
    141  OE1       -2.9900    1.5990  -85.6590 O.co2 116  GLU116     -0.2457
    142  OE2       -0.9640    2.4350  -85.5960 O.co2 116  GLU116     -0.2457
    143  N         -9.8960   -6.2070  -86.9400 N.3   138  GLY138     -0.1225
    144  CA       -11.3080   -5.9040  -87.0420 C.3   138  GLY138      0.1811
    145  C        -11.9060   -6.6390  -88.2300 C.2   138  GLY138      0.2280
    146  O        -11.2220   -6.9280  -89.2120 O.2   138  GLY138     -0.2866
    147  N        -21.4170   -7.4330  -89.5470 N.3   142  ARG142     -0.1245
    148  CA       -22.8240   -7.0160  -89.5680 C.3   142  ARG142      0.1563
    149  C        -23.5820   -7.6700  -90.7220 C.2   142  ARG142      0.2260
    150  O        -24.1420   -7.0160  -91.6090 O.2   142  ARG142     -0.2867
    151  CB       -22.9200   -5.4990  -89.6270 C.3   142  ARG142      0.0307
    152  CG       -22.4830   -4.8520  -88.3270 C.3   142  ARG142      0.0489
    153  CD       -22.6470   -3.3390  -88.3370 C.3   142  ARG142      0.2205
    154  NE       -22.2900   -2.7930  -87.0280 N.pl3 142  ARG142     -0.0865
    155  CZ       -21.8490   -1.5570  -86.8230 C.cat 142  ARG142      0.5346
    156  NH1      -21.7040   -0.7240  -87.8470 N.pl3 142  ARG142      0.1354
    157  NH2      -21.5380   -1.1610  -85.5930 N.pl3 142  ARG142      0.1354
    158  N        -14.6430   -2.1750  -90.7820 N.3   163  VAL163     -0.1231
    159  CA       -14.7480   -3.1270  -89.6740 C.3   163  VAL163      0.1692
    160  C        -15.5640   -2.5590  -88.5220 C.2   163  VAL163      0.2592
    161  O        -15.6590   -1.3420  -88.3210 O.2   163  VAL163     -0.2718
    162  CB       -13.3380   -3.5520  -89.2180 C.3   163  VAL163      0.0266
    163  CG1      -12.5800   -4.1110  -90.3990 C.3   163  VAL163      0.0020
    164  CG2      -12.5870   -2.3680  -88.6250 C.3   163  VAL163      0.0020
    165  N        -16.1470   -3.4750  -87.7300 N.am  164  ASN164     -0.1960
    166  CA       -16.9900   -3.0710  -86.6110 C.3   164  ASN164      0.1819
    167  C        -16.9550   -4.0700  -85.4560 C.2   164  ASN164      0.2621
    168  O        -17.7320   -3.9110  -84.5060 O.2   164  ASN164     -0.2715
    169  CB       -18.4350   -2.8910  -87.0970 C.3   164  ASN164      0.1195
    170  CG       -18.8850   -4.0420  -87.9890 C.2   164  ASN164      0.2630
    171  OD1      -18.9070   -5.1930  -87.5560 O.2   164  ASN164     -0.2716
    172  ND2      -19.2230   -3.7370  -89.2510 N.am  164  ASN164     -0.0877
    173  N        -16.0840   -5.0760  -85.4940 N.am  165  HIS165     -0.1959
    174  CA       -16.0690   -6.1570  -84.5170 C.3   165  HIS165      0.1787
    175  C        -14.6280   -6.6230  -84.3850 C.2   165  HIS165      0.2620
    176  O        -13.9800   -6.9130  -85.3930 O.2   165  HIS165     -0.2715
    177  CB       -16.9740   -7.3060  -84.9810 C.3   165  HIS165      0.0785
    178  CG       -17.1290   -8.4120  -83.9840 C.ar  165  HIS165      0.0821
    179  ND1      -17.8020   -8.2510  -82.7880 N.ar  165  HIS165     -0.2267
    180  CD2      -16.7340   -9.7070  -84.0210 C.ar  165  HIS165      0.1154
    181  CE1      -17.7920   -9.3940  -82.1230 C.ar  165  HIS165      0.1986
    182  NE2      -17.1520  -10.2930  -82.8490 N.ar  165  HIS165     -0.2212
    183  N        -14.1100   -6.6570  -83.1520 N.am  166  GLY166     -0.1954
    184  CA       -12.7340   -7.0700  -82.9230 C.3   166  GLY166      0.1869
    185  C        -12.6340   -8.5670  -82.6860 C.2   166  GLY166      0.2309
    186  O        -13.4250   -9.1340  -81.9300 O.2   166  GLY166     -0.2863
    187  N         -7.2210   -3.3280  -90.4280 N.3   212  PHE212     -0.1241
    188  CA        -6.5440   -2.7170  -89.2760 C.3   212  PHE212      0.1605
    189  C         -5.9880   -3.7700  -88.3190 C.2   212  PHE212      0.2264
    190  O         -6.4560   -3.9170  -87.1840 O.2   212  PHE212     -0.2867
    191  CB        -7.4910   -1.7460  -88.5640 C.3   212  PHE212      0.0534
    192  CG        -7.8920   -0.5860  -89.4300 C.ar  212  PHE212     -0.0203
    193  CD1       -6.9740    0.4070  -89.7390 C.ar  212  PHE212     -0.0042
    194  CD2       -9.1520   -0.5210  -89.9900 C.ar  212  PHE212     -0.0042
    195  CE1       -7.3220    1.4600  -90.5710 C.ar  212  PHE212     -0.0003
    196  CE2       -9.5000    0.5360  -90.8140 C.ar  212  PHE212     -0.0003
    197  CZ        -8.5760    1.5190  -91.1050 C.ar  212  PHE212     -0.0000
@<TRIPOS>BOND
     1   150   149    2
     2   197   196   ar
     3   197   195   ar
     4   196   194   ar
     5   158   159    1
     6   149   148    1
     7   195   193   ar
     8   187   188    1
     9   163   162    1
    10   194   192   ar
    11   193   192   ar
    12   159   162    1
    13   159   160    1
    14   151   148    1
    15   151   152    1
    16   148   147    1
    17   192   191    1
    18   188   191    1
    19   188   189    1
    20   172   170   am
    21   162   164    1
    22   146   145    2
    23   137   136    2
    24   160   161    2
    25   160   165   am
    26   153   152    1
    27   153   154    1
    28   189   190    2
    29   145   144    1
    30   136   135    1
    31   170   171    2
    32   170   169    1
    33   156   155    1
    34   165   166    1
    35   169   166    1
    36   144   143    1
    37   154   155    2
    38   138   135    1
    39   138   139    1
    40   155   157    1
    41   135   134    1
    42   166   167    1
    43   141   140   ar
    44   142   140   ar
    45   140   139    1
    46   173   167   am
    47   173   174    1
    48   167   168    2
    49   176   175    2
    50   177   174    1
    51   177   178    1
    52   174   175    1
    53   175   183   am
    54   180   178   ar
    55   180   182   ar
    56   178   179   ar
    57    89    90   ar
    58    89    87   ar
    59    98    97    1
    60   183   184    1
    61   184   185    1
    62    90    88   ar
    63    87    85   ar
    64   182   181   ar
    65   105   103    1
    66   179   181   ar
    67   185   186    2
    68   125   124    2
    69   104   103    1
    70    97    96    1
    71   124   123    1
    72   130   128   ar
    73   130   132   ar
    74   103   100    1
    75    88    86   ar
    76    85    86   ar
    77    85    84    1
    78   128   127   ar
    79   133   132    1
    80    84    81    1
    81     6     5    1
    82    79    78    2
    83   132   131   ar
    84    96    95    1
    85    95    92    1
    86    99   100    1
    87    99    93   am
    88   100   101    1
    89    81    82    1
    90    81    80    1
    91    91    92    1
    92    91    82   am
    93   123   126    1
    94   123   122    1
    95   127   126    1
    96   127   129   ar
    97     5     2    1
    98    92    93    1
    99    78    80   am
   100    78    77    1
   101    82    83    2
   102    93    94    2
   103   131   129   ar
   104   101   106   am
   105   101   102    2
   106    76    77    1
   107    76    74   am
   108   112   110    1
   109    11     8    1
   110    11    12    1
   111     8     7    1
   112     8     9    1
   113   106   107    1
   114     7     3   am
   115     4     3    2
   116     3     2    1
   117    63    62    1
   118     2     1    1
   119    67    66    2
   120    73    74    1
   121    73    72    1
   122    74    75    2
   123    54    53    2
   124    10     9    2
   125   111   110    1
   126   110   107    1
   127    12    13   ar
   128    12    14   ar
   129    66    72   am
   130    66    65    1
   131   107   108    1
   132    13    15   ar
   133    61    62    1
   134    61    60    1
   135    52    53    1
   136    52    51    1
   137    42    41    2
   138   120   119    2
   139    65    68    1
   140    65    64    1
   141    14    17   ar
   142    14    16   ar
   143    71    69   am
   144    60    59    1
   145    68    69    1
   146   108   109    2
   147    15    16   ar
   148    41    51   am
   149    41    40    1
   150    17    19   ar
   151   117   118    1
   152   117   114    1
   153   119   118    1
   154   119   121   am
   155    59    56    1
   156   113   114    1
   157    69    70    2
   158    16    18   ar
   159    55    56    1
   160   114   115    1
   161    40    43    1
   162    40    39    1
   163    19    20   ar
   164    56    57    1
   165    33    32    2
   166    43    44    1
   167    18    20   ar
   168    24    23    2
   169    57    58    2
   170    39    32   am
   171    32    31    1
   172    46    44   ar
   173    46    48   ar
   174   115   116    2
   175    44    45   ar
   176    23    22    1
   177    23    30   am
   178    48    49   ar
   179    22    25    1
   180    22    21    1
   181    31    30    1
   182    31    34    1
   183    45    47   ar
   184    25    26    1
   185    26    27    1
   186    49    47   ar
   187    49    50    1
   188    34    35    1
   189    35    36    1
   190    27    28   ar
   191    27    29   ar
   192    36    37    1
   193    38    37    1
