@<TRIPOS>MOLECULE
tmp/5qbxA00.pdb
 165 163 0 0 0
SMALL
GASTEIGER

@<TRIPOS>ATOM
      1  N          3.7790   -0.0230   -8.3070 N.3    26  SER26      -0.1202
      2  CA         2.8840   -0.5190   -7.2600 C.3    26  SER26       0.2020
      3  C          3.3970   -0.0270   -5.8950 C.2    26  SER26       0.2618
      4  O          2.6100    0.3800   -5.0400 O.2    26  SER26      -0.2717
      5  CB         2.7580   -2.0420   -7.3090 C.3    26  SER26       0.2103
      6  OG         3.8910   -2.6860   -6.7540 O.3    26  SER26      -0.2182
      7  N          4.7180   -0.0480   -5.7170 N.am   27  TRP27      -0.1975
      8  CA         5.3540    0.5390   -4.5450 C.3    27  TRP27       0.1640
      9  C          4.8850    1.9750   -4.2540 C.2    27  TRP27       0.2290
     10  O          4.6240    2.3210   -3.1130 O.2    27  TRP27      -0.2864
     11  CB         6.8790    0.4820   -4.6790 C.3    27  TRP27       0.0576
     12  CG         7.4270    1.3180   -5.7770 C.ar   27  TRP27       0.0006
     13  CD1        7.5190    0.9760   -7.0820 C.ar   27  TRP27       0.0946
     14  CD2        7.9460    2.6430   -5.6620 C.ar   27  TRP27       0.0152
     15  NE1        8.0630    2.0000   -7.7960 N.ar   27  TRP27      -0.2442
     16  CE2        8.3360    3.0430   -6.9540 C.ar   27  TRP27       0.0810
     17  CE3        8.1260    3.5290   -4.5920 C.ar   27  TRP27       0.0012
     18  CZ2        8.9030    4.3010   -7.2170 C.ar   27  TRP27       0.0191
     19  CZ3        8.6790    4.7910   -4.8500 C.ar   27  TRP27       0.0001
     20  CH2        9.0480    5.1630   -6.1610 C.ar   27  TRP27       0.0015
     21  N         16.9840    7.0670   -7.3400 N.3    60  GLU60      -0.1231
     22  CA        18.1540    6.2440   -7.0190 C.3    60  GLU60       0.1699
     23  C         18.8140    6.5280   -5.6480 C.2    60  GLU60       0.2592
     24  O         19.5100    5.6550   -5.1230 O.2    60  GLU60      -0.2718
     25  CB        19.2010    6.3180   -8.1430 C.3    60  GLU60       0.0402
     26  CG        19.8040    7.7070   -8.3740 C.3    60  GLU60       0.1161
     27  CD        18.9460    8.6200   -9.2520 C.2    60  GLU60       0.3649
     28  OE1       18.1280    8.1270  -10.0680 O.co2  60  GLU60      -0.2457
     29  OE2       19.0820    9.8580   -9.1240 O.co2  60  GLU60      -0.2457
     30  N         18.5780    7.7070   -5.0660 N.am   61  LYS61      -0.1966
     31  CA        19.0610    8.0020   -3.7160 C.3    61  LYS61       0.1728
     32  C         18.2890    7.1950   -2.6720 C.2    61  LYS61       0.2616
     33  O         18.7690    6.9960   -1.5490 O.2    61  LYS61      -0.2715
     34  CB        18.9780    9.5000   -3.3740 C.3    61  LYS61       0.0311
     35  CG        19.7290   10.4000   -4.3380 C.3    61  LYS61       0.0038
     36  CD        21.1750   10.0160   -4.4730 C.3    61  LYS61       0.0206
     37  CE        21.9510   11.1130   -5.2030 C.3    61  LYS61       0.1093
     38  NZ        21.6590   11.1830   -6.6600 N.3    61  LYS61      -0.1314
     39  N         17.1110    6.7120   -3.0610 N.am   62  TYR62      -0.1960
     40  CA        16.2290    5.9460   -2.1990 C.3    62  TYR62       0.1771
     41  C         16.1690    4.4590   -2.5530 C.2    62  TYR62       0.2620
     42  O         15.3340    3.7270   -2.0300 O.2    62  TYR62      -0.2715
     43  CB        14.8470    6.5990   -2.2580 C.3    62  TYR62       0.0574
     44  CG        14.8750    7.9640   -1.6370 C.ar   62  TYR62      -0.0198
     45  CD1       15.1210    9.0960   -2.4050 C.ar   62  TYR62      -0.0009
     46  CD2       14.7050    8.1210   -0.2630 C.ar   62  TYR62      -0.0009
     47  CE1       15.1740   10.3560   -1.8290 C.ar   62  TYR62       0.0417
     48  CE2       14.7480    9.3800    0.3230 C.ar   62  TYR62       0.0417
     49  CZ        14.9890   10.4950   -0.4680 C.ar   62  TYR62       0.1957
     50  OH        15.0200   11.7510    0.1110 O.3    62  TYR62      -0.2866
     51  N         17.0780    4.0160   -3.4280 N.am   63  GLY63      -0.1954
     52  CA        17.0620    2.6450   -3.9130 C.3    63  GLY63       0.1869
     53  C         15.9230    2.2880   -4.8500 C.2    63  GLY63       0.2309
     54  O         15.7220    1.0940   -5.1380 O.2    63  GLY63      -0.2863
     55  N         13.5420    2.7360   -8.5000 N.3    65  LYS65      -0.1245
     56  CA        13.7720    2.7700   -9.9410 C.3    65  LYS65       0.1561
     57  C         12.4880    3.0700  -10.7140 C.2    65  LYS65       0.2260
     58  O         12.2730    2.5300  -11.7890 O.2    65  LYS65      -0.2867
     59  CB        14.3180    1.4270  -10.4130 C.3    65  LYS65       0.0271
     60  CG        15.6250    0.9990   -9.8020 C.3    65  LYS65       0.0035
     61  CD        15.9190   -0.4080  -10.2500 C.3    65  LYS65       0.0206
     62  CE        16.5290   -0.4620  -11.6380 C.3    65  LYS65       0.1093
     63  NZ        16.7040   -1.8810  -12.0810 N.3    65  LYS65      -0.1314
     64  N         10.4150    0.7480  -12.8990 N.3    68  ASN68      -0.1225
     65  CA        11.0410   -0.5670  -12.7180 C.3    68  ASN68       0.1785
     66  C         11.1360   -1.0170  -11.2790 C.2    68  ASN68       0.2598
     67  O         11.9670   -1.8550  -10.9550 O.2    68  ASN68      -0.2718
     68  CB        12.4310   -0.5780  -13.3540 C.3    68  ASN68       0.1169
     69  CG        12.3670   -0.6710  -14.8460 C.2    68  ASN68       0.2627
     70  OD1       12.7110    0.2700  -15.5460 O.2    68  ASN68      -0.2716
     71  ND2       11.8960   -1.8030  -15.3410 N.am   68  ASN68      -0.0877
     72  N         10.2700   -0.4880  -10.4210 N.am   69  GLY69      -0.1942
     73  CA        10.1010   -1.0010   -9.0690 C.3    69  GLY69       0.2014
     74  C         10.6750   -0.0850   -8.0230 C.2    69  GLY69       0.2639
     75  O         11.3450    0.9010   -8.3360 O.2    69  GLY69      -0.2714
     76  N         10.3850   -0.4030   -6.7770 N.am   70  GLY70      -0.1939
     77  CA        10.7970    0.4220   -5.6570 C.3    70  GLY70       0.2014
     78  C         10.2910   -0.1110   -4.3410 C.2    70  GLY70       0.2639
     79  O          9.7530   -1.2220   -4.2830 O.2    70  GLY70      -0.2714
     80  N         10.4950    0.6770   -3.2820 N.am   71  PHE71      -0.1959
     81  CA        10.1340    0.2900   -1.9500 C.3    71  PHE71       0.1771
     82  C          9.2400    1.3410   -1.3190 C.2    71  PHE71       0.2619
     83  O          9.4890    2.5510   -1.4480 O.2    71  PHE71      -0.2715
     84  CB        11.3870    0.1150   -1.0990 C.3    71  PHE71       0.0574
     85  CG        12.4030   -0.8490   -1.6690 C.ar   71  PHE71      -0.0200
     86  CD1       13.4900   -0.3840   -2.4010 C.ar   71  PHE71      -0.0042
     87  CD2       12.2940   -2.2100   -1.4410 C.ar   71  PHE71      -0.0042
     88  CE1       14.4390   -1.2700   -2.9060 C.ar   71  PHE71      -0.0003
     89  CE2       13.2350   -3.0990   -1.9390 C.ar   71  PHE71      -0.0003
     90  CZ        14.3110   -2.6320   -2.6720 C.ar   71  PHE71      -0.0000
     91  N          8.2170    0.8810   -0.6050 N.am   72  MET72      -0.1963
     92  CA         7.3530    1.7890    0.1360 C.3    72  MET72       0.1736
     93  C          8.0880    2.5230    1.2550 C.2    72  MET72       0.2617
     94  O          7.8430    3.7040    1.4850 O.2    72  MET72      -0.2715
     95  CB         6.1640    1.0320    0.7100 C.3    72  MET72       0.0427
     96  CG         5.2620    0.4670   -0.3750 C.3    72  MET72       0.0599
     97  SD         5.6610   -1.1890   -0.9530 S.3    72  MET72      -0.1393
     98  CE         5.1670   -2.1480    0.4840 C.3    72  MET72       0.0692
     99  N          8.9970    1.8320    1.9380 N.am   73  THR73      -0.1937
    100  CA         9.7190    2.4370    3.0550 C.3    73  THR73       0.2028
    101  C         10.5530    3.6520    2.6350 C.2    73  THR73       0.2642
    102  O         10.4880    4.7210    3.2710 O.2    73  THR73      -0.2714
    103  CB        10.6410    1.4210    3.7270 C.3    73  THR73       0.1808
    104  OG1       11.4750    0.8030    2.7280 O.3    73  THR73      -0.2208
    105  CG2        9.8180    0.3690    4.4390 C.3    73  THR73       0.0379
    106  N         11.3310    3.4960    1.5750 N.am   74  THR74      -0.1950
    107  CA        12.1690    4.5900    1.0950 C.3    74  THR74       0.1897
    108  C         11.3420    5.6580    0.3700 C.2    74  THR74       0.2313
    109  O         11.7580    6.8070    0.2700 O.2    74  THR74      -0.2863
    110  CB        13.2720    4.0580    0.1790 C.3    74  THR74       0.1794
    111  OG1       12.6850    3.2790   -0.8590 O.3    74  THR74      -0.2208
    112  CG2       14.2280    3.1610    0.9640 C.3    74  THR74       0.0378
    113  N          8.4170   -0.1190   10.2210 N.3   116  GLU116     -0.1245
    114  CA         8.4670   -1.4250    9.5790 C.3   116  GLU116      0.1567
    115  C          8.0870   -2.4770   10.6180 C.2   116  GLU116      0.2260
    116  O          8.5100   -2.3840   11.7840 O.2   116  GLU116     -0.2867
    117  CB         9.8640   -1.7030    9.0280 C.3   116  GLU116      0.0388
    118  CG        10.3510   -0.6570    8.0330 C.3   116  GLU116      0.1160
    119  CD        11.7120   -1.0050    7.4450 C.2   116  GLU116      0.3649
    120  OE1       11.7840   -1.8720    6.5520 O.co2 116  GLU116     -0.2457
    121  OE2       12.7110   -0.4200    7.8680 O.co2 116  GLU116     -0.2457
    122  N          4.1460   -5.9450    0.8980 N.3   138  GLY138     -0.1225
    123  CA         4.5710   -6.6350   -0.3020 C.3   138  GLY138      0.1811
    124  C          3.8460   -7.9670   -0.3740 C.2   138  GLY138      0.2280
    125  O          3.5320   -8.5650    0.6470 O.2   138  GLY138     -0.2866
    126  N          8.4060  -11.3400   -1.7560 N.3   163  VAL163     -0.1231
    127  CA         7.4530  -10.3820   -2.2950 C.3   163  VAL163      0.1692
    128  C          7.9470   -9.7580   -3.6050 C.2   163  VAL163      0.2592
    129  O          9.1330   -9.6840   -3.8690 O.2   163  VAL163     -0.2718
    130  CB         7.1100   -9.2810   -1.2650 C.3   163  VAL163      0.0266
    131  CG1        6.5760   -9.9040    0.0120 C.3   163  VAL163      0.0020
    132  CG2        8.2970   -8.3670   -0.9840 C.3   163  VAL163      0.0020
    133  N          7.0230   -9.3350   -4.4420 N.am  164  ASN164     -0.1960
    134  CA         7.3920   -8.6790   -5.6930 C.3   164  ASN164      0.1819
    135  C          6.3650   -7.6770   -6.2270 C.2   164  ASN164      0.2621
    136  O          6.5610   -7.1470   -7.3160 O.2   164  ASN164     -0.2715
    137  CB         7.6670   -9.7650   -6.7370 C.3   164  ASN164      0.1195
    138  CG         6.5320  -10.7490   -6.8500 C.2   164  ASN164      0.2630
    139  OD1        5.3870  -10.3530   -7.0650 O.2   164  ASN164     -0.2716
    140  ND2        6.8360  -12.0400   -6.6820 N.am  164  ASN164     -0.0877
    141  N          5.3090   -7.3880   -5.4590 N.am  165  HIS165     -0.1959
    142  CA         4.2670   -6.4380   -5.8560 C.3   165  HIS165      0.1787
    143  C          3.7650   -5.7160   -4.6120 C.2   165  HIS165      0.2620
    144  O          3.4650   -6.3470   -3.5790 O.2   165  HIS165     -0.2715
    145  CB         3.1410   -7.1720   -6.5730 C.3   165  HIS165      0.0785
    146  CG         2.0280   -6.2830   -7.0320 C.ar  165  HIS165      0.0821
    147  ND1        2.1590   -5.4070   -8.0850 N.ar  165  HIS165     -0.2267
    148  CD2        0.7470   -6.1700   -6.6060 C.ar  165  HIS165      0.1154
    149  CE1        1.0120   -4.7760   -8.2770 C.ar  165  HIS165      0.1986
    150  NE2        0.1400   -5.2170   -7.3840 N.ar  165  HIS165     -0.2212
    151  N          3.7530   -4.3930   -4.6820 N.am  166  GLY166     -0.1954
    152  CA         3.3100   -3.5460   -3.5700 C.3   166  GLY166      0.1869
    153  C          1.7980   -3.4100   -3.5670 C.2   166  GLY166      0.2309
    154  O          1.2010   -3.1720   -4.6200 O.2   166  GLY166     -0.2863
    155  N          7.1710   -7.8300    4.5700 N.3   212  PHE212     -0.1241
    156  CA         7.6990   -6.4640    4.7010 C.3   212  PHE212      0.1605
    157  C          6.6070   -5.4040    4.8080 C.2   212  PHE212      0.2264
    158  O          6.4030   -4.6140    3.8850 O.2   212  PHE212     -0.2867
    159  CB         8.6750   -6.1760    3.5730 C.3   212  PHE212      0.0534
    160  CG         9.8470   -7.0860    3.5800 C.ar  212  PHE212     -0.0203
    161  CD1       10.9440   -6.8220    4.4220 C.ar  212  PHE212     -0.0042
    162  CD2        9.8440   -8.2530    2.8070 C.ar  212  PHE212     -0.0042
    163  CE1       12.0280   -7.6890    4.4620 C.ar  212  PHE212     -0.0003
    164  CE2       10.9260   -9.1330    2.8530 C.ar  212  PHE212     -0.0003
    165  CZ        12.0180   -8.8530    3.6790 C.ar  212  PHE212     -0.0000
@<TRIPOS>BOND
     1    70    69    2
     2    71    69   am
     3    69    68    1
     4    68    65    1
     5    64    65    1
     6    65    66    1
     7    63    62    1
     8    58    57    2
     9    62    61    1
    10    66    67    2
    11    66    72   am
    12    57    56    1
    13    72    73    1
    14    59    56    1
    15    59    60    1
    16    61    60    1
    17    28    27   ar
    18    56    55    1
    19    27    29   ar
    20    27    26    1
    21    73    74    1
    22    26    25    1
    23    75    74    2
    24     1     2    1
    25   149   147   ar
    26   149   150   ar
    27    25    22    1
    28   147   146   ar
    29    74    76   am
    30    15    13   ar
    31    15    16   ar
    32   150   148   ar
    33    21    22    1
    34   136   135    2
    35     5     2    1
    36     5     6    1
    37     2     3    1
    38    18    16   ar
    39    18    20   ar
    40    13    12   ar
    41   139   138    2
    42   146   148   ar
    43   146   145    1
    44    22    23    1
    45    16    14   ar
    46   138   137    1
    47   138   140   am
    48    76    77    1
    49   137   134    1
    50    38    37    1
    51   145   142    1
    52   135   134    1
    53   135   141   am
    54    20    19   ar
    55     3     7   am
    56     3     4    2
    57   142   141    1
    58   142   143    1
    59    12    14   ar
    60    12    11    1
    61     7     8    1
    62   134   133    1
    63    14    17   ar
    64    77    78    1
    65    23    24    2
    66    23    30   am
    67    37    36    1
    68    54    53    2
    69    30    31    1
    70    19    17   ar
    71    53    52    1
    72   151   143   am
    73   151   152    1
    74    11     8    1
    75   154   153    2
    76   143   144    2
    77     8     9    1
    78    36    35    1
    79   133   128   am
    80    78    79    2
    81    78    80   am
    82    35    34    1
    83     9    10    2
    84    52    51    1
    85   129   128    2
    86    31    34    1
    87    31    32    1
    88   128   127    1
    89   152   153    1
    90    51    41   am
    91    80    81    1
    92    39    32   am
    93    39    40    1
    94    88    90   ar
    95    88    86   ar
    96    90    89   ar
    97    32    33    2
    98    41    40    1
    99    41    42    2
   100    45    47   ar
   101    45    44   ar
   102    86    85   ar
   103   127   126    1
   104   127   130    1
   105    43    40    1
   106    43    44    1
   107    81    82    1
   108    81    84    1
   109    89    87   ar
   110    47    49   ar
   111    85    87   ar
   112    85    84    1
   113    44    46   ar
   114    83    82    2
   115    82    91   am
   116   130   132    1
   117   130   131    1
   118    97    96    1
   119    97    98    1
   120   111   110    1
   121    91    92    1
   122    49    50    1
   123    49    48   ar
   124    96    95    1
   125   124   123    1
   126   124   125    2
   127   123   122    1
   128    46    48   ar
   129    92    95    1
   130    92    93    1
   131   110   112    1
   132   110   107    1
   133   109   108    2
   134   108   107    1
   135   107   106    1
   136    93    94    2
   137    93    99   am
   138   106   101   am
   139    99   100    1
   140   101   100    1
   141   101   102    2
   142   104   103    1
   143   162   164   ar
   144   162   160   ar
   145   164   165   ar
   146   100   103    1
   147   159   160    1
   148   159   156    1
   149   160   161   ar
   150   165   163   ar
   151   103   105    1
   152   158   157    2
   153   161   163   ar
   154   155   156    1
   155   156   157    1
   156   120   119   ar
   157   119   121   ar
   158   119   118    1
   159   118   117    1
   160   117   114    1
   161   114   113    1
   162   114   115    1
   163   115   116    2
