@<TRIPOS>MOLECULE
tmp/5qbyB00.pdb
 176 173 0 0 0
SMALL
GASTEIGER

@<TRIPOS>ATOM
      1  N        -15.8200   -6.4860  -77.5820 N.3    26  SER26      -0.1202
      2  CA       -14.9680   -7.3200  -78.4450 C.3    26  SER26       0.2020
      3  C        -13.5200   -6.8230  -78.5130 C.2    26  SER26       0.2618
      4  O        -12.5740   -7.6040  -78.5500 O.2    26  SER26      -0.2717
      5  CB       -15.5770   -7.4050  -79.8700 C.3    26  SER26       0.2103
      6  OG       -15.5730   -6.1520  -80.5570 O.3    26  SER26      -0.2182
      7  N        -13.3810   -5.5120  -78.5290 N.am   27  TRP27      -0.1975
      8  CA       -12.0880   -4.8420  -78.5260 C.3    27  TRP27       0.1640
      9  C        -11.2740   -5.2430  -77.3160 C.2    27  TRP27       0.2290
     10  O        -10.0770   -5.5110  -77.4440 O.2    27  TRP27      -0.2864
     11  CB       -12.2550   -3.3050  -78.6030 C.3    27  TRP27       0.0576
     12  CG       -12.9690   -2.7200  -77.4200 C.ar   27  TRP27       0.0006
     13  CD1      -14.3240   -2.6260  -77.2390 C.ar   27  TRP27       0.0946
     14  CD2      -12.3670   -2.1470  -76.2670 C.ar   27  TRP27       0.0152
     15  NE1      -14.5990   -2.0300  -76.0460 N.ar   27  TRP27      -0.2442
     16  CE2      -13.4150   -1.7330  -75.4160 C.ar   27  TRP27       0.0810
     17  CE3      -11.0410   -1.9530  -75.8540 C.ar   27  TRP27       0.0012
     18  CZ2      -13.1750   -1.1360  -74.1640 C.ar   27  TRP27       0.0191
     19  CZ3      -10.8030   -1.3410  -74.6040 C.ar   27  TRP27       0.0001
     20  CH2      -11.8660   -0.9450  -73.7810 C.ar   27  TRP27       0.0015
     21  N        -12.3270    7.1250  -71.4620 N.3    60  GLU60      -0.1231
     22  CA       -12.3670    8.3450  -72.3190 C.3    60  GLU60       0.1699
     23  C        -11.0260    8.9060  -72.7660 C.2    60  GLU60       0.2592
     24  O        -10.9150    9.4320  -73.8840 O.2    60  GLU60      -0.2718
     25  CB       -13.1320    9.4930  -71.6510 C.3    60  GLU60       0.0402
     26  CG       -14.6160    9.2100  -71.4440 C.3    60  GLU60       0.1161
     27  CD       -14.9300    8.4820  -70.1410 C.2    60  GLU60       0.3649
     28  OE1      -14.0000    8.0010  -69.4350 O.co2  60  GLU60      -0.2457
     29  OE2      -16.1370    8.3930  -69.8340 O.co2  60  GLU60      -0.2457
     30  N        -10.0190    8.8140  -71.8930 N.am   61  LYS61      -0.1966
     31  CA        -8.6440    9.2200  -72.2490 C.3    61  LYS61       0.1728
     32  C         -8.0860    8.3460  -73.3920 C.2    61  LYS61       0.2616
     33  O         -7.2300    8.7950  -74.1580 O.2    61  LYS61      -0.2715
     34  CB        -7.7120    9.1690  -71.0310 C.3    61  LYS61       0.0311
     35  CG        -8.0060   10.2250  -69.9410 C.3    61  LYS61       0.0038
     36  CD        -7.9000   11.6940  -70.4500 C.3    61  LYS61       0.0206
     37  CE        -9.2020   12.2060  -71.1150 C.3    61  LYS61       0.1093
     38  NZ        -9.1320   13.6110  -71.6270 N.3    61  LYS61      -0.1314
     39  N         -8.5860    7.1090  -73.4950 N.am   62  TYR62      -0.1960
     40  CA        -8.1500    6.1390  -74.5060 C.3    62  TYR62       0.1771
     41  C         -9.0980    6.0260  -75.7030 C.2    62  TYR62       0.2620
     42  O         -8.9000    5.1770  -76.5870 O.2    62  TYR62      -0.2715
     43  CB        -7.9400    4.7880  -73.8150 C.3    62  TYR62       0.0574
     44  CG        -6.8120    4.8870  -72.8160 C.ar   62  TYR62      -0.0198
     45  CD1       -7.0630    5.0030  -71.4500 C.ar   62  TYR62      -0.0009
     46  CD2       -5.4910    4.9390  -73.2470 C.ar   62  TYR62      -0.0009
     47  CE1       -6.0230    5.1430  -70.5350 C.ar   62  TYR62       0.0417
     48  CE2       -4.4500    5.0740  -72.3540 C.ar   62  TYR62       0.0417
     49  CZ        -4.7240    5.1790  -70.9960 C.ar   62  TYR62       0.1957
     50  OH        -3.6810    5.3010  -70.1110 O.3    62  TYR62      -0.2866
     51  N        -10.1110    6.8920  -75.7460 N.am   63  GLY63      -0.1954
     52  CA       -11.0600    6.9460  -76.8520 C.3    63  GLY63       0.1869
     53  C        -12.0290    5.7770  -76.9000 C.2    63  GLY63       0.2309
     54  O        -12.6450    5.5460  -77.9360 O.2    63  GLY63      -0.2863
     55  N        -15.3250    3.4130  -75.1040 N.3    65  LYS65      -0.1245
     56  CA       -16.6390    3.5850  -74.4800 C.3    65  LYS65       0.1561
     57  C        -17.1710    2.2750  -73.8800 C.2    65  LYS65       0.2260
     58  O        -18.3750    2.0380  -73.8930 O.2    65  LYS65      -0.2867
     59  CB       -17.6310    4.1150  -75.5260 C.3    65  LYS65       0.0271
     60  CG       -17.4300    5.5740  -75.8730 C.3    65  LYS65       0.0035
     61  CD       -18.1600    6.0370  -77.1210 C.3    65  LYS65       0.0206
     62  CE       -19.5990    5.5720  -77.2900 C.3    65  LYS65       0.1093
     63  NZ       -20.5460    6.0950  -76.2420 N.3    65  LYS65      -0.1314
     64  N        -19.8810    0.0250  -75.2240 N.3    68  ASN68      -0.1225
     65  CA       -20.2220    0.6380  -76.5000 C.3    68  ASN68       0.1785
     66  C        -19.0660    0.7840  -77.4600 C.2    68  ASN68       0.2598
     67  O        -19.1710    1.5030  -78.4150 O.2    68  ASN68      -0.2718
     68  CB       -20.9490    1.9590  -76.2300 C.3    68  ASN68       0.1169
     69  CG       -22.3600    1.7030  -75.7390 C.2    68  ASN68       0.2627
     70  OD1      -23.2470    1.3760  -76.5350 O.2    68  ASN68      -0.2716
     71  ND2      -22.5480    1.7370  -74.4280 N.am   68  ASN68      -0.0877
     72  N        -17.9880    0.0450  -77.2350 N.am   69  GLY69      -0.1942
     73  CA       -16.9420   -0.1080  -78.2380 C.3    69  GLY69       0.2014
     74  C        -15.6470    0.5770  -77.8540 C.2    69  GLY69       0.2639
     75  O        -15.6030    1.3750  -76.9130 O.2    69  GLY69      -0.2714
     76  N        -14.5950    0.2360  -78.5970 N.am   70  GLY70      -0.1939
     77  CA       -13.2480    0.6910  -78.3170 C.3    70  GLY70       0.2014
     78  C        -12.2450    0.2210  -79.3490 C.2    70  GLY70       0.2639
     79  O        -12.6190   -0.3630  -80.3720 O.2    70  GLY70      -0.2714
     80  N        -10.9770    0.4810  -79.0640 N.am   71  PHE71      -0.1959
     81  CA        -9.8610    0.1030  -79.9260 C.3    71  PHE71       0.1771
     82  C         -8.9110   -0.7820  -79.1490 C.2    71  PHE71       0.2619
     83  O         -8.6100   -0.4980  -77.9950 O.2    71  PHE71      -0.2715
     84  CB        -9.0590    1.3390  -80.3830 C.3    71  PHE71       0.0574
     85  CG        -9.8680    2.3810  -81.0930 C.ar   71  PHE71      -0.0200
     86  CD1      -10.3410    3.5020  -80.4040 C.ar   71  PHE71      -0.0042
     87  CD2      -10.1610    2.2540  -82.4360 C.ar   71  PHE71      -0.0042
     88  CE1      -11.0900    4.4660  -81.0650 C.ar   71  PHE71      -0.0003
     89  CE2      -10.9010    3.2210  -83.0940 C.ar   71  PHE71      -0.0003
     90  CZ       -11.3640    4.3220  -82.4060 C.ar   71  PHE71      -0.0000
     91  N         -8.4050   -1.8230  -79.8020 N.am   72  MET72      -0.1963
     92  CA        -7.3450   -2.6400  -79.2320 C.3    72  MET72       0.1736
     93  C         -6.0390   -1.8530  -78.9860 C.2    72  MET72       0.2617
     94  O         -5.3670   -2.0610  -77.9540 O.2    72  MET72      -0.2715
     95  CB        -7.0960   -3.8510  -80.1200 C.3    72  MET72       0.0427
     96  CG        -8.2570   -4.8400  -80.1140 C.3    72  MET72       0.0599
     97  SD        -9.4730   -4.5020  -81.3760 S.3    72  MET72      -0.1393
     98  CE        -8.5930   -5.1500  -82.8010 C.3    72  MET72       0.0692
     99  N         -5.7000   -0.9540  -79.9090 N.am   73  THR73      -0.1937
    100  CA        -4.4610   -0.1350  -79.8030 C.3    73  THR73       0.2028
    101  C         -4.4480    0.6710  -78.5080 C.2    73  THR73       0.2642
    102  O         -3.4540    0.6390  -77.7660 O.2    73  THR73      -0.2714
    103  CB        -4.2560    0.8330  -80.9930 C.3    73  THR73       0.1808
    104  OG1       -5.4000    1.6780  -81.1390 O.3    73  THR73      -0.2208
    105  CG2       -4.0400    0.0520  -82.3030 C.3    73  THR73       0.0379
    106  N         -5.5560    1.3470  -78.2050 N.am   74  THR74      -0.1950
    107  CA        -5.5970    2.1620  -76.9950 C.3    74  THR74       0.1897
    108  C         -5.8070    1.3440  -75.7350 C.2    74  THR74       0.2313
    109  O         -5.4840    1.8160  -74.6270 O.2    74  THR74      -0.2863
    110  CB        -6.6270    3.2990  -77.0540 C.3    74  THR74       0.1794
    111  OG1       -7.9660    2.7680  -77.1020 O.3    74  THR74      -0.2208
    112  CG2       -6.3490    4.1810  -78.2800 C.3    74  THR74       0.0378
    113  N          1.4200   -1.6300  -84.9340 N.3   116  GLU116     -0.1245
    114  CA         0.3460   -1.6910  -85.9340 C.3   116  GLU116      0.1567
    115  C          0.9000   -2.1520  -87.2580 C.2   116  GLU116      0.2260
    116  O          2.0130   -1.7970  -87.6040 O.2   116  GLU116     -0.2867
    117  CB        -0.3280   -0.3260  -86.1050 C.3   116  GLU116      0.0388
    118  CG        -0.9820    0.1820  -84.8230 C.3   116  GLU116      0.1160
    119  CD        -1.8780    1.4030  -85.0190 C.2   116  GLU116      0.3649
    120  OE1       -2.9940    1.2720  -85.5760 O.co2 116  GLU116     -0.2457
    121  OE2       -1.4820    2.4980  -84.5910 O.co2 116  GLU116     -0.2457
    122  N         -9.5490   -6.0690  -86.4420 N.3   138  GLY138     -0.1225
    123  CA       -10.9530   -5.7140  -86.6420 C.3   138  GLY138      0.1811
    124  C        -11.5110   -6.4810  -87.8400 C.2   138  GLY138      0.2280
    125  O        -10.7840   -6.7570  -88.7940 O.2   138  GLY138     -0.2866
    126  N        -21.0850   -7.0660  -89.4230 N.3   142  ARG142     -0.1245
    127  CA       -22.5030   -6.6470  -89.5250 C.3   142  ARG142      0.1563
    128  C        -23.2470   -7.3290  -90.6660 C.2   142  ARG142      0.2260
    129  O        -23.7370   -6.6640  -91.6060 O.2   142  ARG142     -0.2867
    130  CB       -22.5670   -5.1270  -89.6780 C.3   142  ARG142      0.0307
    131  CG       -22.2440   -4.4270  -88.3700 C.3   142  ARG142      0.0489
    132  CD       -22.1650   -2.9160  -88.5000 C.3   142  ARG142      0.2205
    133  NE       -21.9190   -2.3450  -87.1730 N.pl3 142  ARG142     -0.0865
    134  CZ       -21.4450   -1.1270  -86.9220 C.cat 142  ARG142      0.5346
    135  NH1      -21.1380   -0.2710  -87.9120 N.pl3 142  ARG142      0.1354
    136  NH2      -21.2760   -0.7640  -85.6500 N.pl3 142  ARG142      0.1354
    137  N        -14.1090   -2.0120  -90.3990 N.3   163  VAL163     -0.1231
    138  CA       -14.1960   -2.9280  -89.2970 C.3   163  VAL163      0.1692
    139  C        -15.0920   -2.3890  -88.1880 C.2   163  VAL163      0.2592
    140  O        -15.1650   -1.1900  -87.9640 O.2   163  VAL163     -0.2718
    141  CB       -12.7960   -3.2880  -88.7730 C.3   163  VAL163      0.0266
    142  CG1      -11.9280   -3.7910  -89.9260 C.3   163  VAL163      0.0020
    143  CG2      -12.1390   -2.1260  -88.0320 C.3   163  VAL163      0.0020
    144  N        -15.7860   -3.2810  -87.5060 N.am  164  ASN164     -0.1960
    145  CA       -16.6460   -2.8860  -86.3930 C.3   164  ASN164      0.1819
    146  C        -16.6690   -3.8600  -85.2050 C.2   164  ASN164      0.2621
    147  O        -17.4330   -3.6650  -84.2550 O.2   164  ASN164     -0.2715
    148  CB       -18.0590   -2.6640  -86.9420 C.3   164  ASN164      0.1195
    149  CG       -18.5210   -3.8150  -87.8240 C.2   164  ASN164      0.2630
    150  OD1      -18.5570   -4.9610  -87.3850 O.2   164  ASN164     -0.2716
    151  ND2      -18.8510   -3.5150  -89.0750 N.am  164  ASN164     -0.0877
    152  N        -15.8100   -4.8720  -85.2250 N.am  165  HIS165     -0.1959
    153  CA       -15.8210   -5.9250  -84.2220 C.3   165  HIS165      0.1787
    154  C        -14.3990   -6.4190  -84.0790 C.2   165  HIS165      0.2620
    155  O        -13.7630   -6.7330  -85.0610 O.2   165  HIS165     -0.2715
    156  CB       -16.7560   -7.0390  -84.7000 C.3   165  HIS165      0.0785
    157  CG       -16.9300   -8.1630  -83.7300 C.ar  165  HIS165      0.0821
    158  ND1      -17.5730   -8.0220  -82.5200 N.ar  165  HIS165     -0.2267
    159  CD2      -16.5820   -9.4690  -83.8190 C.ar  165  HIS165      0.1154
    160  CE1      -17.5930   -9.1880  -81.8960 C.ar  165  HIS165      0.1986
    161  NE2      -17.0070  -10.0830  -82.6700 N.ar  165  HIS165     -0.2212
    162  N        -13.8980   -6.4530  -82.8520 N.am  166  GLY166     -0.1954
    163  CA       -12.5300   -6.8950  -82.5550 C.3   166  GLY166      0.1869
    164  C        -12.4770   -8.3950  -82.3270 C.2   166  GLY166      0.2309
    165  O        -13.3160   -8.9410  -81.5930 O.2   166  GLY166     -0.2863
    166  N         -6.7830   -3.1130  -89.8640 N.3   212  PHE212     -0.1241
    167  CA        -6.0970   -2.5790  -88.6780 C.3   212  PHE212      0.1605
    168  C         -5.6100   -3.6490  -87.6930 C.2   212  PHE212      0.2264
    169  O         -6.1340   -3.7580  -86.5740 O.2   212  PHE212     -0.2867
    170  CB        -6.9960   -1.5470  -87.9690 C.3   212  PHE212      0.0534
    171  CG        -7.3650   -0.4020  -88.8540 C.ar  212  PHE212     -0.0203
    172  CD1       -6.4190    0.5990  -89.1530 C.ar  212  PHE212     -0.0042
    173  CD2       -8.6200   -0.3410  -89.4470 C.ar  212  PHE212     -0.0042
    174  CE1       -6.7470    1.6470  -90.0020 C.ar  212  PHE212     -0.0003
    175  CE2       -8.9530    0.7040  -90.2990 C.ar  212  PHE212     -0.0003
    176  CZ        -8.0180    1.6960  -90.5870 C.ar  212  PHE212     -0.0000
@<TRIPOS>BOND
     1   129   128    2
     2   128   127    1
     3   176   175   ar
     4   176   174   ar
     5   137   138    1
     6   175   173   ar
     7   174   172   ar
     8   142   141    1
     9   166   167    1
    10   130   127    1
    11   130   131    1
    12   127   126    1
    13   173   171   ar
    14   138   141    1
    15   138   139    1
    16   172   171   ar
    17   151   149   am
    18   171   170    1
    19   125   124    2
    20   141   143    1
    21   167   170    1
    22   167   168    1
    23   132   131    1
    24   132   133    1
    25   139   140    2
    26   139   144   am
    27   135   134    1
    28   124   123    1
    29   149   150    2
    30   149   148    1
    31   168   169    2
    32   116   115    2
    33   144   145    1
    34   115   114    1
    35   133   134    2
    36   148   145    1
    37   134   136    1
    38   123   122    1
    39   145   146    1
    40   117   114    1
    41   117   118    1
    42   114   113    1
    43   120   119   ar
    44   152   146   am
    45   152   153    1
    46   146   147    2
    47   155   154    2
    48   119   118    1
    49   119   121   ar
    50   156   153    1
    51   156   157    1
    52   153   154    1
    53   154   162   am
    54   159   157   ar
    55   159   161   ar
    56   157   158   ar
    57    89    87   ar
    58    89    90   ar
    59   162   163    1
    60    98    97    1
    61   161   160   ar
    62   163   164    1
    63   158   160   ar
    64    87    85   ar
    65    90    88   ar
    66   164   165    2
    67   105   103    1
    68    97    96    1
    69   104   103    1
    70    85    86   ar
    71    85    84    1
    72    88    86   ar
    73   103   100    1
    74     6     5    1
    75    84    81    1
    76    79    78    2
    77    95    96    1
    78    95    92    1
    79    81    82    1
    80    81    80    1
    81    99   100    1
    82    99    93   am
    83     5     2    1
    84   100   101    1
    85    91    92    1
    86    91    82   am
    87    78    80   am
    88    78    77    1
    89    92    93    1
    90    82    83    2
    91    93    94    2
    92    11     8    1
    93    11    12    1
    94    76    77    1
    95    76    74   am
    96     4     3    2
    97     7     8    1
    98     7     3   am
    99     8     9    1
   100     3     2    1
   101   101   106   am
   102   101   102    2
   103     2     1    1
   104    67    66    2
   105   112   110    1
   106    73    74    1
   107    73    72    1
   108   106   107    1
   109    54    53    2
   110    74    75    2
   111    66    72   am
   112    66    65    1
   113    10     9    2
   114    12    13   ar
   115    12    14   ar
   116    62    61    1
   117    62    63    1
   118    13    15   ar
   119    61    60    1
   120   111   110    1
   121   110   107    1
   122   107   108    1
   123    53    52    1
   124    52    51    1
   125    42    41    2
   126    70    69    2
   127    65    68    1
   128    65    64    1
   129    14    17   ar
   130    14    16   ar
   131    68    69    1
   132    15    16   ar
   133    60    59    1
   134    17    19   ar
   135    51    41   am
   136    69    71   am
   137   108   109    2
   138    41    40    1
   139    59    56    1
   140    16    18   ar
   141    55    56    1
   142    19    20   ar
   143    40    43    1
   144    40    39    1
   145    56    57    1
   146    18    20   ar
   147    33    32    2
   148    58    57    2
   149    24    23    2
   150    43    44    1
   151    39    32   am
   152    32    31    1
   153    46    44   ar
   154    46    48   ar
   155    44    45   ar
   156    23    22    1
   157    23    30   am
   158    48    49   ar
   159    22    25    1
   160    22    21    1
   161    31    30    1
   162    31    34    1
   163    25    26    1
   164    38    37    1
   165    45    47   ar
   166    26    27    1
   167    37    36    1
   168    34    35    1
   169    49    47   ar
   170    49    50    1
   171    36    35    1
   172    27    29   ar
   173    27    28   ar
