@<TRIPOS>MOLECULE
tmp/5qc0A00.pdb
 173 171 0 0 0
SMALL
GASTEIGER

@<TRIPOS>ATOM
      1  N          7.1130    5.3690    2.3030 N.3    26  SER26      -0.1202
      2  CA         6.4450    4.2480    1.6530 C.3    26  SER26       0.2020
      3  C          5.1710    3.8480    2.4190 C.2    26  SER26       0.2618
      4  O          4.1630    3.5620    1.8020 O.2    26  SER26      -0.2717
      5  CB         7.3910    3.0710    1.4990 C.3    26  SER26       0.2103
      6  OG         7.8850    2.6400    2.7570 O.3    26  SER26      -0.2182
      7  N          5.2370    3.8440    3.7520 N.am   27  TRP27      -0.1975
      8  CA         4.0620    3.6370    4.6140 C.3    27  TRP27       0.1640
      9  C          2.8500    4.5410    4.2790 C.2    27  TRP27       0.2290
     10  O          1.6930    4.1130    4.3460 O.2    27  TRP27      -0.2864
     11  CB         4.4390    3.8090    6.0990 C.3    27  TRP27       0.0576
     12  CG         4.8930    5.1980    6.4630 C.ar   27  TRP27       0.0006
     13  CD1        6.1400    5.7290    6.2770 C.ar   27  TRP27       0.0946
     14  CD2        4.0960    6.2480    7.0220 C.ar   27  TRP27       0.0152
     15  NE1        6.1720    7.0410    6.7030 N.ar   27  TRP27      -0.2442
     16  CE2        4.9330    7.3790    7.1770 C.ar   27  TRP27       0.0810
     17  CE3        2.7580    6.3410    7.4280 C.ar   27  TRP27       0.0012
     18  CZ2        4.4690    8.5900    7.7030 C.ar   27  TRP27       0.0191
     19  CZ3        2.3070    7.5300    7.9700 C.ar   27  TRP27       0.0001
     20  CH2        3.1600    8.6440    8.0960 C.ar   27  TRP27       0.0015
     21  N          3.5120   11.8910   15.9460 N.3    60  GLU60      -0.1231
     22  CA         3.9270   11.2480   17.2120 C.3    60  GLU60       0.1699
     23  C          2.8450   10.4240   17.8490 C.2    60  GLU60       0.2592
     24  O          3.1110    9.3140   18.2640 O.2    60  GLU60      -0.2718
     25  CB         4.4070   12.2530   18.2720 C.3    60  GLU60       0.0402
     26  CG         5.2350   11.6180   19.4160 C.3    60  GLU60       0.1161
     27  CD         4.4340   10.8760   20.4980 C.2    60  GLU60       0.3649
     28  OE1        4.9690    9.8810   21.0030 O.co2  60  GLU60      -0.2457
     29  OE2        3.2770   11.2540   20.8280 O.co2  60  GLU60      -0.2457
     30  N          1.6450   10.9860   17.9570 N.am   61  LYS61      -0.1966
     31  CA         0.4690   10.2830   18.4990 C.3    61  LYS61       0.1728
     32  C          0.2160    8.9080   17.8500 C.2    61  LYS61       0.2616
     33  O         -0.3130    7.9930   18.4950 O.2    61  LYS61      -0.2715
     34  CB        -0.7960   11.1430   18.3400 C.3    61  LYS61       0.0311
     35  CG        -0.7700   12.4530   19.1080 C.3    61  LYS61       0.0038
     36  CD        -2.0320   13.2960   18.9230 C.3    61  LYS61       0.0206
     37  CE        -2.4750   13.4530   17.4610 C.3    61  LYS61       0.1093
     38  NZ        -1.4950   14.1480   16.5480 N.3    61  LYS61      -0.1314
     39  N          0.6210    8.7800   16.5880 N.am   62  TYR62      -0.1960
     40  CA         0.4240    7.5800   15.7730 C.3    62  TYR62       0.1771
     41  C          1.6880    6.7210   15.6640 C.2    62  TYR62       0.2620
     42  O          1.7120    5.7770   14.9000 O.2    62  TYR62      -0.2715
     43  CB        -0.1060    8.0320   14.3880 C.3    62  TYR62       0.0574
     44  CG        -1.3910    8.7800   14.5820 C.ar   62  TYR62      -0.0198
     45  CD1       -1.4060   10.1730   14.6880 C.ar   62  TYR62      -0.0009
     46  CD2       -2.5830    8.0960   14.7900 C.ar   62  TYR62      -0.0009
     47  CE1       -2.5860   10.8680   14.9370 C.ar   62  TYR62       0.0417
     48  CE2       -3.7680    8.7820   15.0530 C.ar   62  TYR62       0.0417
     49  CZ        -3.7610   10.1690   15.1170 C.ar   62  TYR62       0.1957
     50  OH        -4.9390   10.8370   15.3640 O.3    62  TYR62      -0.2866
     51  N          2.7270    7.0320   16.4460 N.am   63  GLY63      -0.1954
     52  CA         3.9980    6.2940   16.4120 C.3    63  GLY63       0.1869
     53  C          4.8040    6.4540   15.1290 C.2    63  GLY63       0.2309
     54  O          5.7340    5.6820   14.8790 O.2    63  GLY63      -0.2863
     55  N          7.0380    8.7830   12.2000 N.3    65  LYS65      -0.1245
     56  CA         8.1450    9.7410   12.1670 C.3    65  LYS65       0.1561
     57  C          8.3550   10.3220   10.7660 C.2    65  LYS65       0.2260
     58  O          9.4930   10.5250   10.3440 O.2    65  LYS65      -0.2867
     59  CB         9.4250    9.0630   12.6610 C.3    65  LYS65       0.0271
     60  CG         9.2760    8.3360   13.9840 C.3    65  LYS65       0.0035
     61  CD        10.6150    7.8790   14.5050 C.3    65  LYS65       0.0206
     62  CE        10.4900    7.3220   15.9130 C.3    65  LYS65       0.1093
     63  NZ        10.0580    8.3530   16.8980 N.3    65  LYS65      -0.1314
     64  N         11.1160    9.5690    8.2730 N.3    68  ASN68      -0.1225
     65  CA        11.8710    8.5000    8.9500 C.3    68  ASN68       0.1785
     66  C         11.0440    7.2100    9.2360 C.2    68  ASN68       0.2598
     67  O         11.4530    6.3740   10.0470 O.2    68  ASN68      -0.2718
     68  CB        12.5110    9.0640   10.2270 C.3    68  ASN68       0.1169
     69  CG        13.8560    9.7220    9.9640 C.2    68  ASN68       0.2627
     70  OD1       13.9520   10.7980    9.3910 O.2    68  ASN68      -0.2716
     71  ND2       14.9110    9.0650   10.4070 N.am   68  ASN68      -0.0877
     72  N          9.9030    7.0440    8.5610 N.am   69  GLY69      -0.1942
     73  CA         9.1020    5.8200    8.6370 C.3    69  GLY69       0.2014
     74  C          7.8090    5.9610    9.4310 C.2    69  GLY69       0.2639
     75  O          7.6320    6.9020   10.2090 O.2    69  GLY69      -0.2714
     76  N          6.9060    5.0050    9.2220 N.am   70  GLY70      -0.1939
     77  CA         5.6090    4.9990    9.8970 C.3    70  GLY70       0.2014
     78  C          4.8730    3.7000    9.6460 C.2    70  GLY70       0.2639
     79  O          5.4080    2.7800    9.0130 O.2    70  GLY70      -0.2714
     80  N          3.6460    3.6280   10.1580 N.am   71  PHE71      -0.1959
     81  CA         2.8000    2.4490   10.0400 C.3    71  PHE71       0.1771
     82  C          1.5760    2.7870    9.2120 C.2    71  PHE71       0.2619
     83  O          1.0060    3.8560    9.3640 O.2    71  PHE71      -0.2715
     84  CB         2.3270    1.9730   11.4160 C.3    71  PHE71       0.0574
     85  CG         3.4390    1.6040   12.3680 C.ar   71  PHE71      -0.0200
     86  CD1        3.8420    2.4830   13.3640 C.ar   71  PHE71      -0.0042
     87  CD2        4.0470    0.3560   12.2940 C.ar   71  PHE71      -0.0042
     88  CE1        4.8700    2.1490   14.2270 C.ar   71  PHE71      -0.0003
     89  CE2        5.0640    0.0060   13.1720 C.ar   71  PHE71      -0.0003
     90  CZ         5.4680    0.9000   14.1430 C.ar   71  PHE71      -0.0000
     91  N          1.1420    1.8580    8.3720 N.am   72  MET72      -0.1963
     92  CA        -0.0930    2.0490    7.6180 C.3    72  MET72       0.1736
     93  C         -1.3200    2.0670    8.5250 C.2    72  MET72       0.2617
     94  O         -2.2440    2.8290    8.2820 O.2    72  MET72      -0.2715
     95  CB        -0.2350    0.9840    6.5210 C.3    72  MET72       0.0427
     96  CG         0.7980    1.0990    5.4170 C.3    72  MET72       0.0599
     97  SD         2.3530    0.2490    5.7340 S.3    72  MET72      -0.1393
     98  CE         1.8380   -1.4390    5.4050 C.3    72  MET72       0.0692
     99  N         -1.3130    1.2660    9.5920 N.am   73  THR73      -0.1937
    100  CA        -2.4810    1.1420   10.4720 C.3    73  THR73       0.2028
    101  C         -2.7770    2.4160   11.2420 C.2    73  THR73       0.2642
    102  O         -3.9410    2.8310   11.3550 O.2    73  THR73      -0.2714
    103  CB        -2.3100    0.0050   11.5070 C.3    73  THR73       0.1808
    104  OG1       -1.1240    0.2230   12.2770 O.3    73  THR73      -0.2208
    105  CG2       -2.2290   -1.3480   10.8110 C.3    73  THR73       0.0379
    106  N         -1.7200    3.0290   11.7760 N.am   74  THR74      -0.1950
    107  CA        -1.8650    4.2500   12.5390 C.3    74  THR74       0.1897
    108  C         -2.0690    5.4390   11.6130 C.2    74  THR74       0.2313
    109  O         -2.5890    6.4650   12.0340 O.2    74  THR74      -0.2863
    110  CB        -0.6580    4.4940   13.4750 C.3    74  THR74       0.1794
    111  OG1        0.5050    4.8280   12.7060 O.3    74  THR74      -0.2208
    112  CG2       -0.3720    3.2670   14.3380 C.3    74  THR74       0.0378
    113  N         -6.4700   -5.5360   10.4820 N.3   116  GLU116     -0.1245
    114  CA        -5.1240   -6.1230   10.4050 C.3   116  GLU116      0.1567
    115  C         -5.2640   -7.6320   10.2630 C.2   116  GLU116      0.2260
    116  O         -5.9350   -8.2740   11.0740 O.2   116  GLU116     -0.2867
    117  CB        -4.3140   -5.8010   11.6660 C.3   116  GLU116      0.0388
    118  CG        -4.1660   -4.3240   11.9610 C.3   116  GLU116      0.1160
    119  CD        -3.5090   -4.0500   13.3010 C.2   116  GLU116      0.3649
    120  OE1       -2.2660   -3.8900   13.3050 O.co2 116  GLU116     -0.2457
    121  OE2       -4.2100   -4.0410   14.3550 O.co2 116  GLU116     -0.2457
    122  N          3.8960   -4.5660    4.2630 N.3   138  GLY138     -0.1225
    123  CA         5.3180   -4.3020    4.3610 C.3   138  GLY138      0.1811
    124  C          6.0690   -5.4520    3.7180 C.2   138  GLY138      0.2280
    125  O          5.6220   -6.5950    3.7790 O.2   138  GLY138     -0.2866
    126  N         11.1490   -9.8940    8.0850 N.3   162  ASN162     -0.1225
    127  CA        11.1690   -8.6000    8.7710 C.3   162  ASN162      0.1785
    128  C         11.0420   -7.4780    7.7350 C.2   162  ASN162      0.2597
    129  O         11.9390   -7.2740    6.9170 O.2   162  ASN162     -0.2718
    130  CB        12.4500   -8.4360    9.6030 C.3   162  ASN162      0.1169
    131  CG        12.7140   -9.6300   10.5170 C.2   162  ASN162      0.2627
    132  OD1       11.8160  -10.1240   11.2020 O.2   162  ASN162     -0.2716
    133  ND2       13.9470  -10.1220   10.4950 N.am  162  ASN162     -0.0877
    134  N          9.9250   -6.7590    7.7890 N.am  163  VAL163     -0.1966
    135  CA         9.5570   -5.7640    6.7810 C.3   163  VAL163      0.1727
    136  C         10.1800   -4.4110    7.0970 C.2   163  VAL163      0.2616
    137  O         10.4030   -4.0760    8.2560 O.2   163  VAL163     -0.2715
    138  CB         8.0210   -5.5990    6.6510 C.3   163  VAL163      0.0290
    139  CG1        7.3540   -6.9400    6.3530 C.3   163  VAL163      0.0023
    140  CG2        7.4100   -4.9480    7.8930 C.3   163  VAL163      0.0023
    141  N         10.4550   -3.6530    6.0410 N.am  164  ASN164     -0.1958
    142  CA        11.0610   -2.3240    6.1380 C.3   164  ASN164      0.1819
    143  C         10.5940   -1.3180    5.0530 C.2   164  ASN164      0.2621
    144  O         11.0800   -0.1690    5.0200 O.2   164  ASN164     -0.2715
    145  CB        12.5910   -2.4800    6.0730 C.3   164  ASN164      0.1195
    146  CG        13.0350   -3.3800    4.9300 C.2   164  ASN164      0.2630
    147  OD1       12.8530   -3.0480    3.7670 O.2   164  ASN164     -0.2716
    148  ND2       13.5870   -4.5480    5.2670 N.am  164  ASN164     -0.0877
    149  N          9.6720   -1.7210    4.1800 N.am  165  HIS165     -0.1959
    150  CA         9.2500   -0.8990    3.0480 C.3   165  HIS165      0.1787
    151  C          7.7800   -1.1850    2.7600 C.2   165  HIS165      0.2620
    152  O          7.4130   -2.3150    2.5000 O.2   165  HIS165     -0.2715
    153  CB        10.0970   -1.2170    1.8150 C.3   165  HIS165      0.0785
    154  CG         9.7380   -0.4220    0.5980 C.ar  165  HIS165      0.0821
    155  ND1        9.8340    0.9540    0.5480 N.ar  165  HIS165     -0.2267
    156  CD2        9.2980   -0.8150   -0.6190 C.ar  165  HIS165      0.1154
    157  CE1        9.4630    1.3710   -0.6470 C.ar  165  HIS165      0.1986
    158  NE2        9.1370    0.3170   -1.3770 N.ar  165  HIS165     -0.2212
    159  N          6.9510   -0.1530    2.8290 N.am  166  GLY166     -0.1954
    160  CA         5.5350   -0.2980    2.5990 C.3   166  GLY166      0.1869
    161  C          5.1860   -0.3020    1.1330 C.2   166  GLY166      0.2309
    162  O          5.7220    0.4760    0.3620 O.2   166  GLY166     -0.2863
    163  N          2.5590   -8.2020    7.9430 N.3   212  PHE212     -0.1241
    164  CA         1.7030   -7.1460    8.5180 C.3   212  PHE212      0.1605
    165  C          0.7510   -6.5220    7.4890 C.2   212  PHE212      0.2264
    166  O          0.9110   -5.3470    7.1380 O.2   212  PHE212     -0.2867
    167  CB         2.5890   -6.0720    9.1610 C.3   212  PHE212      0.0534
    168  CG         3.4270   -6.5840   10.3060 C.ar  212  PHE212     -0.0203
    169  CD1        2.8220   -7.0380   11.4730 C.ar  212  PHE212     -0.0042
    170  CD2        4.8090   -6.6170   10.2260 C.ar  212  PHE212     -0.0042
    171  CE1        3.5830   -7.5210   12.5190 C.ar  212  PHE212     -0.0003
    172  CE2        5.5770   -7.1240   11.2640 C.ar  212  PHE212     -0.0003
    173  CZ         4.9630   -7.5680   12.4150 C.ar  212  PHE212     -0.0000
@<TRIPOS>BOND
     1   158   157   ar
     2   158   156   ar
     3   157   155   ar
     4   156   154   ar
     5   162   161    2
     6   155   154   ar
     7   154   153    1
     8   161   160    1
     9     5     2    1
    10     5     6    1
    11     2     1    1
    12     2     3    1
    13     4     3    2
    14   153   150    1
    15     3     7   am
    16   152   151    2
    17   160   159    1
    18   151   159   am
    19   151   150    1
    20   150   149    1
    21   124   125    2
    22   124   123    1
    23     7     8    1
    24   147   146    2
    25   149   143   am
    26   122   123    1
    27     9    10    2
    28     9     8    1
    29     8    11    1
    30   146   148   am
    31   146   145    1
    32   144   143    2
    33   143   142    1
    34    98    97    1
    35    96    97    1
    36    96    95    1
    37   141   142    1
    38   141   136   am
    39   145   142    1
    40    11    12    1
    41    13    12   ar
    42    13    15   ar
    43   139   138    1
    44    12    14   ar
    45    95    92    1
    46   138   135    1
    47   138   140    1
    48    15    16   ar
    49   135   136    1
    50   135   134    1
    51   129   128    2
    52    14    16   ar
    53    14    17   ar
    54   136   137    2
    55   166   165    2
    56    16    18   ar
    57    17    19   ar
    58   165   164    1
    59    92    91    1
    60    92    93    1
    61    18    20   ar
    62   128   134   am
    63   128   127    1
    64   163   164    1
    65    19    20   ar
    66   126   127    1
    67    64    65    1
    68    94    93    2
    69    91    82   am
    70   164   167    1
    71    93    99   am
    72    72    73    1
    73    72    66   am
    74    73    74    1
    75   127   130    1
    76    65    66    1
    77    65    68    1
    78    79    78    2
    79   167   168    1
    80    82    83    2
    81    82    81    1
    82    76    74   am
    83    76    77    1
    84    66    67    2
    85    70    69    2
    86    74    75    2
    87    99   100    1
    88   130   131    1
    89    78    77    1
    90    78    80   am
    91    69    68    1
    92    69    71   am
    93    81    80    1
    94    81    84    1
    95   170   168   ar
    96   170   172   ar
    97   115   114    1
    98   115   116    2
    99   168   169   ar
   100    58    57    2
   101   114   113    1
   102   114   117    1
   103   100   101    1
   104   100   103    1
   105   133   131   am
   106   131   132    2
   107    57    56    1
   108   105   103    1
   109   101   102    2
   110   101   106   am
   111   172   173   ar
   112    84    85    1
   113   169   171   ar
   114   103   104    1
   115   108   109    2
   116   108   107    1
   117   117   118    1
   118   106   107    1
   119   118   119    1
   120    56    55    1
   121    56    59    1
   122    87    85   ar
   123    87    89   ar
   124    85    86   ar
   125   173   171   ar
   126   107   110    1
   127    59    60    1
   128   111   110    1
   129    89    90   ar
   130   119   120   ar
   131   119   121   ar
   132    86    88   ar
   133   110   112    1
   134    60    61    1
   135    90    88   ar
   136    43    44    1
   137    43    40    1
   138    61    62    1
   139    44    45   ar
   140    44    46   ar
   141    45    47   ar
   142    46    48   ar
   143    54    53    2
   144    42    41    2
   145    47    49   ar
   146    48    49   ar
   147    49    50    1
   148    53    52    1
   149    41    40    1
   150    41    51   am
   151    40    39    1
   152    62    63    1
   153    21    22    1
   154    52    51    1
   155    38    37    1
   156    39    32   am
   157    22    23    1
   158    22    25    1
   159    37    36    1
   160    23    30   am
   161    23    24    2
   162    32    33    2
   163    32    31    1
   164    30    31    1
   165    25    26    1
   166    34    31    1
   167    34    35    1
   168    36    35    1
   169    26    27    1
   170    27    29   ar
   171    27    28   ar
