@<TRIPOS>MOLECULE
tmp/5qc1B00.pdb
 179 177 0 0 0
SMALL
GASTEIGER

@<TRIPOS>ATOM
      1  N          8.3950   -3.5580   17.6290 N.3    26  SER26      -0.1202
      2  CA         9.2470   -2.9040   16.6440 C.3    26  SER26       0.2020
      3  C          8.5350   -1.7130   16.0070 C.2    26  SER26       0.2618
      4  O          9.1600   -0.6820   15.7220 O.2    26  SER26      -0.2717
      5  CB         9.6970   -3.9190   15.6000 C.3    26  SER26       0.2103
      6  OG         8.6100   -4.3970   14.8660 O.3    26  SER26      -0.2182
      7  N          7.2200   -1.8300   15.8040 N.am   27  TRP27      -0.1975
      8  CA         6.4240   -0.7010   15.3260 C.3    27  TRP27       0.1640
      9  C          6.5410    0.4880   16.2690 C.2    27  TRP27       0.2290
     10  O          6.6140    1.6380   15.8190 O.2    27  TRP27      -0.2864
     11  CB         4.9550   -1.1100   15.1700 C.3    27  TRP27       0.0576
     12  CG         4.3240   -1.5490   16.5060 C.ar   27  TRP27       0.0006
     13  CD1        4.3470   -2.8110   17.0420 C.ar   27  TRP27       0.0946
     14  CD2        3.5990   -0.7360   17.4480 C.ar   27  TRP27       0.0152
     15  NE1        3.6840   -2.8280   18.2440 N.ar   27  TRP27      -0.2442
     16  CE2        3.2230   -1.5730   18.5230 C.ar   27  TRP27       0.0810
     17  CE3        3.2280    0.6090   17.4880 C.ar   27  TRP27       0.0012
     18  CZ2        2.4890   -1.1090   19.6150 C.ar   27  TRP27       0.0191
     19  CZ3        2.5080    1.0640   18.5790 C.ar   27  TRP27       0.0001
     20  CH2        2.1450    0.2020   19.6270 C.ar   27  TRP27       0.0015
     21  N         -6.4600    2.7820   18.5290 N.3    62  TYR62      -0.1227
     22  CA        -5.5200    2.9830   17.4400 C.3    62  TYR62       0.1736
     23  C         -5.2370    1.7140   16.6570 C.2    62  TYR62       0.2596
     24  O         -4.3200    1.7070   15.8340 O.2    62  TYR62      -0.2718
     25  CB        -4.2280    3.5800   17.9940 C.3    62  TYR62       0.0548
     26  CG        -4.5340    4.8800   18.6790 C.ar   62  TYR62      -0.0200
     27  CD1       -4.9010    4.9120   20.0140 C.ar   62  TYR62      -0.0009
     28  CD2       -4.5420    6.0640   17.9690 C.ar   62  TYR62      -0.0009
     29  CE1       -5.2120    6.0820   20.6220 C.ar   62  TYR62       0.0417
     30  CE2       -4.8530    7.2510   18.5770 C.ar   62  TYR62       0.0417
     31  CZ        -5.1870    7.2520   19.9000 C.ar   62  TYR62       0.1957
     32  OH        -5.5070    8.4220   20.5100 O.3    62  TYR62      -0.2866
     33  N         -6.0130    0.6510   16.8790 N.am   63  GLY63      -0.1957
     34  CA        -5.7960   -0.6130   16.1930 C.3    63  GLY63       0.1869
     35  C         -4.4950   -1.3320   16.4970 C.2    63  GLY63       0.2309
     36  O         -4.1090   -2.2240   15.7370 O.2    63  GLY63      -0.2863
     37  N         -1.9300   -3.6590   19.1790 N.3    65  LYS65      -0.1245
     38  CA        -2.0350   -4.7260   20.1670 C.3    65  LYS65       0.1561
     39  C         -0.7180   -4.8990   20.9220 C.2    65  LYS65       0.2260
     40  O         -0.3130   -6.0240   21.2470 O.2    65  LYS65      -0.2867
     41  CB        -2.4560   -6.0350   19.5090 C.3    65  LYS65       0.0271
     42  CG        -3.8260   -5.9960   18.8460 C.3    65  LYS65       0.0035
     43  CD        -4.0690   -7.2660   18.0140 C.3    65  LYS65       0.0206
     44  CE        -5.1360   -7.0460   16.9590 C.3    65  LYS65       0.1093
     45  NZ        -6.5000   -7.4320   17.3960 N.3    65  LYS65      -0.1314
     46  N          1.8830   -7.5290   20.5410 N.3    68  ASN68      -0.1225
     47  CA         1.4360   -8.3450   19.4150 C.3    68  ASN68       0.1785
     48  C          1.3700   -7.5790   18.1030 C.2    68  ASN68       0.2598
     49  O          0.8460   -8.1090   17.1220 O.2    68  ASN68      -0.2718
     50  CB         0.0770   -8.9820   19.7130 C.3    68  ASN68       0.1169
     51  CG         0.1700  -10.0710   20.7620 C.2    68  ASN68       0.2627
     52  OD1        1.1280  -10.8420   20.7830 O.2    68  ASN68      -0.2716
     53  ND2       -0.8030  -10.1180   21.6550 N.am   68  ASN68      -0.0877
     54  N          1.8830   -6.3530   18.0460 N.am   69  GLY69      -0.1942
     55  CA         1.9800   -5.6310   16.7990 C.3    69  GLY69       0.2014
     56  C          1.1610   -4.3420   16.7810 C.2    69  GLY69       0.2639
     57  O          0.3070   -4.0980   17.6390 O.2    69  GLY69      -0.2714
     58  N          1.4540   -3.5280   15.7810 N.am   70  GLY70      -0.1939
     59  CA         0.8390   -2.2190   15.6860 C.3    70  GLY70       0.2014
     60  C          1.3210   -1.5180   14.4430 C.2    70  GLY70       0.2639
     61  O          2.0300   -2.0980   13.6150 O.2    70  GLY70      -0.2714
     62  N          0.8870   -0.2630   14.3020 N.am   71  PHE71      -0.1959
     63  CA         1.2980    0.6050   13.2050 C.3    71  PHE71       0.1771
     64  C          2.0090    1.8370   13.7540 C.2    71  PHE71       0.2619
     65  O          1.6880    2.3310   14.8410 O.2    71  PHE71      -0.2715
     66  CB         0.1140    1.0900   12.3550 C.3    71  PHE71       0.0574
     67  CG        -0.8090   -0.0040   11.8890 C.ar   71  PHE71      -0.0200
     68  CD1       -1.9890   -0.2600   12.5780 C.ar   71  PHE71      -0.0042
     69  CD2       -0.5230   -0.7480   10.7510 C.ar   71  PHE71      -0.0042
     70  CE1       -2.8730   -1.2620   12.1490 C.ar   71  PHE71      -0.0003
     71  CE2       -1.3870   -1.7470   10.3200 C.ar   71  PHE71      -0.0003
     72  CZ        -2.5730   -1.9980   11.0220 C.ar   71  PHE71      -0.0000
     73  N          2.9600    2.3480   12.9720 N.am   72  MET72      -0.1963
     74  CA         3.5990    3.6130   13.3200 C.3    72  MET72       0.1736
     75  C          2.6540    4.7980   13.1150 C.2    72  MET72       0.2617
     76  O          2.7130    5.7770   13.8700 O.2    72  MET72      -0.2715
     77  CB         4.8710    3.8040   12.4870 C.3    72  MET72       0.0427
     78  CG         5.9890    2.8550   12.8500 C.3    72  MET72       0.0599
     79  SD         5.9280    1.2650   11.9920 S.3    72  MET72      -0.1393
     80  CE         6.4740    1.8030   10.3580 C.3    72  MET72       0.0692
     81  N          1.7930    4.7360   12.0910 N.am   73  THR73      -0.1937
     82  CA         0.9320    5.8710   11.7740 C.3    73  THR73       0.2028
     83  C         -0.0790    6.1240   12.8820 C.2    73  THR73       0.2642
     84  O         -0.3510    7.2770   13.2220 O.2    73  THR73      -0.2714
     85  CB         0.2360    5.6510   10.4270 C.3    73  THR73       0.1808
     86  OG1       -0.4660    4.3980   10.4310 O.3    73  THR73      -0.2208
     87  CG2        1.2540    5.6480    9.2830 C.3    73  THR73       0.0379
     88  N         -0.6710    5.0710   13.4440 N.am   74  THR74      -0.1950
     89  CA        -1.5820    5.3050   14.5490 C.3    74  THR74       0.1897
     90  C         -0.8140    5.5360   15.8390 C.2    74  THR74       0.2313
     91  O         -1.3430    6.1490   16.7720 O.2    74  THR74      -0.2863
     92  CB        -2.5760    4.1420   14.6830 C.3    74  THR74       0.1794
     93  OG1       -1.8770    2.9390   15.0120 O.3    74  THR74      -0.2208
     94  CG2       -3.3310    3.9370   13.3610 C.3    74  THR74       0.0378
     95  N          1.6910   13.7060   10.9590 N.3   114  TYR114     -0.1241
     96  CA         2.5470   12.7240   10.3060 C.3   114  TYR114      0.1605
     97  C          2.1210   12.6280    8.8510 C.2   114  TYR114      0.2264
     98  O          0.9940   12.9820    8.4870 O.2   114  TYR114     -0.2867
     99  CB         2.4960   11.3350   10.9770 C.3   114  TYR114      0.0534
    100  CG         1.1300   10.6690   10.8610 C.ar  114  TYR114     -0.0201
    101  CD1        0.7980    9.8680    9.7610 C.ar  114  TYR114     -0.0009
    102  CD2        0.1720   10.8520   11.8480 C.ar  114  TYR114     -0.0009
    103  CE1       -0.4440    9.2850    9.6650 C.ar  114  TYR114      0.0417
    104  CE2       -1.0720   10.2620   11.7630 C.ar  114  TYR114      0.0417
    105  CZ        -1.3760    9.4900   10.6720 C.ar  114  TYR114      0.1957
    106  OH        -2.6280    8.9240   10.6000 O.3   114  TYR114     -0.2866
    107  N          2.3460   10.0380    5.2730 N.3   116  GLU116     -0.1245
    108  CA         2.6220    8.7380    4.6870 C.3   116  GLU116      0.1567
    109  C          3.0330    8.9250    3.2370 C.2   116  GLU116      0.2260
    110  O          2.4610    9.7510    2.5250 O.2   116  GLU116     -0.2867
    111  CB         1.4010    7.8190    4.7610 C.3   116  GLU116      0.0388
    112  CG         0.8570    7.6070    6.1540 C.3   116  GLU116      0.1160
    113  CD        -0.3800    6.7310    6.1390 C.2   116  GLU116      0.3649
    114  OE1       -0.2360    5.4920    5.9310 O.co2 116  GLU116     -0.2457
    115  OE2       -1.4860    7.2840    6.3390 O.co2 116  GLU116     -0.2457
    116  N          3.1640    3.7570   -1.7250 N.3   119  TYR119     -0.1241
    117  CA         3.6930    2.3970   -1.6920 C.3   119  TYR119      0.1605
    118  C          4.7030    2.1600   -2.8070 C.2   119  TYR119      0.2264
    119  O          4.3790    2.3050   -3.9880 O.2   119  TYR119     -0.2867
    120  CB         2.5170    1.4230   -1.8220 C.3   119  TYR119      0.0534
    121  CG         2.8000   -0.0580   -1.6680 C.ar  119  TYR119     -0.0201
    122  CD1        3.5670   -0.7530   -2.6160 C.ar  119  TYR119     -0.0009
    123  CD2        2.2370   -0.7820   -0.6160 C.ar  119  TYR119     -0.0009
    124  CE1        3.8060   -2.1000   -2.4930 C.ar  119  TYR119      0.0417
    125  CE2        2.4580   -2.1390   -0.4900 C.ar  119  TYR119      0.0417
    126  CZ         3.2410   -2.7920   -1.4280 C.ar  119  TYR119      0.1957
    127  OH         3.4620   -4.1440   -1.3020 O.3   119  TYR119     -0.2866
    128  N          8.0740   -0.2930    7.5030 N.3   138  GLY138     -0.1225
    129  CA         8.0180   -1.7210    7.7540 C.3   138  GLY138      0.1811
    130  C          8.8720   -2.4410    6.7220 C.2   138  GLY138      0.2280
    131  O          9.0620   -1.9540    5.6060 O.2   138  GLY138     -0.2866
    132  N          5.3040   -7.4000    1.3150 N.3   162  ASN162     -0.1225
    133  CA         4.5040   -7.3680    2.5310 C.3   162  ASN162      0.1785
    134  C          5.4230   -7.1560    3.7290 C.2   162  ASN162      0.2597
    135  O          6.5250   -7.6980    3.7820 O.2   162  ASN162     -0.2718
    136  CB         3.6950   -8.6620    2.6500 C.3   162  ASN162      0.1169
    137  CG         2.6250   -8.7670    1.5620 C.2   162  ASN162      0.2627
    138  OD1        1.8220   -7.8560    1.3950 O.2   162  ASN162     -0.2716
    139  ND2        2.6250   -9.8640    0.8150 N.am  162  ASN162     -0.0877
    140  N          5.0140   -6.2900    4.6450 N.am  163  VAL163     -0.1966
    141  CA         5.8730   -5.9140    5.7590 C.3   163  VAL163      0.1727
    142  C          5.3360   -6.4910    7.0610 C.2   163  VAL163      0.2616
    143  O          4.1270   -6.6720    7.2430 O.2   163  VAL163     -0.2715
    144  CB         6.0230   -4.3860    5.8560 C.3   163  VAL163      0.0290
    145  CG1        6.4900   -3.8420    4.5150 C.3   163  VAL163      0.0023
    146  CG2        4.7110   -3.7600    6.3050 C.3   163  VAL163      0.0023
    147  N          6.2530   -6.7760    7.9770 N.am  164  ASN164     -0.1958
    148  CA         5.8540   -7.3420    9.2610 C.3   164  ASN164      0.1819
    149  C          6.7880   -6.9460   10.3980 C.2   164  ASN164      0.2621
    150  O          6.6670   -7.5080   11.4950 O.2   164  ASN164     -0.2715
    151  CB         5.7760   -8.8540    9.1570 C.3   164  ASN164      0.1195
    152  CG         7.0310   -9.4390    8.5910 C.2   164  ASN164      0.2630
    153  OD1        8.1320   -9.2680    9.1410 O.2   164  ASN164     -0.2716
    154  ND2        6.8930  -10.1110    7.4560 N.am  164  ASN164     -0.0877
    155  N          7.7280   -6.0350   10.1710 N.am  165  HIS165     -0.1959
    156  CA         8.6900   -5.6060   11.1820 C.3   165  HIS165      0.1787
    157  C          8.9510   -4.1200   10.9860 C.2   165  HIS165      0.2620
    158  O          9.3400   -3.7040    9.8920 O.2   165  HIS165     -0.2715
    159  CB         9.9870   -6.4070   11.0570 C.3   165  HIS165      0.0785
    160  CG        10.9910   -6.1090   12.1220 C.ar  165  HIS165      0.0821
    161  ND1       10.7570   -6.3710   13.4530 N.ar  165  HIS165     -0.2267
    162  CD2       12.2320   -5.5750   12.0550 C.ar  165  HIS165      0.1154
    163  CE1       11.8160   -6.0220   14.1610 C.ar  165  HIS165      0.1986
    164  NE2       12.7240   -5.5340   13.3370 N.ar  165  HIS165     -0.2212
    165  N          8.7240   -3.3260   12.0300 N.am  166  GLY166     -0.1954
    166  CA         8.9660   -1.8980   11.9500 C.3   166  GLY166      0.1869
    167  C         10.4370   -1.5780   12.1640 C.2   166  GLY166      0.2309
    168  O         11.0740   -2.1050   13.0870 O.2   166  GLY166     -0.2863
    169  N          5.2310    1.0300    3.1160 N.3   212  PHE212     -0.1241
    170  CA         4.4370    1.8340    4.0490 C.3   212  PHE212      0.1605
    171  C          5.3190    2.7900    4.8650 C.2   212  PHE212      0.2264
    172  O          5.4620    2.6450    6.0860 O.2   212  PHE212     -0.2867
    173  CB         3.6270    0.9150    4.9620 C.3   212  PHE212      0.0534
    174  CG         2.6560    0.0440    4.2240 C.ar  212  PHE212     -0.0203
    175  CD1        1.4650    0.5740    3.7410 C.ar  212  PHE212     -0.0042
    176  CD2        2.9250   -1.3030    4.0280 C.ar  212  PHE212     -0.0042
    177  CE1        0.5680   -0.2190    3.0550 C.ar  212  PHE212     -0.0003
    178  CE2        2.0380   -2.1210    3.3540 C.ar  212  PHE212     -0.0003
    179  CZ         0.8480   -1.5840    2.8620 C.ar  212  PHE212     -0.0000
@<TRIPOS>BOND
     1   119   118    2
     2   118   117    1
     3   122   124   ar
     4   122   121   ar
     5   124   126   ar
     6   120   117    1
     7   120   121    1
     8   116   117    1
     9   121   123   ar
    10   126   127    1
    11   126   125   ar
    12   123   125   ar
    13   139   137   am
    14   132   133    1
    15   138   137    2
    16   137   136    1
    17   110   109    2
    18   133   136    1
    19   133   134    1
    20   179   177   ar
    21   179   178   ar
    22   177   175   ar
    23   169   170    1
    24   109   108    1
    25   178   176   ar
    26   134   135    2
    27   134   140   am
    28   175   174   ar
    29   176   174   ar
    30   170   171    1
    31   170   173    1
    32   174   173    1
    33   145   144    1
    34   140   141    1
    35   108   111    1
    36   108   107    1
    37   111   112    1
    38   171   172    2
    39   131   130    2
    40   141   144    1
    41   141   142    1
    42   144   146    1
    43   114   113   ar
    44   113   112    1
    45   113   115   ar
    46   130   129    1
    47   142   143    2
    48   142   147   am
    49   154   152   am
    50   128   129    1
    51   147   148    1
    52    98    97    2
    53   152   153    2
    54   152   151    1
    55    97    96    1
    56   151   148    1
    57   148   149    1
    58    87    85    1
    59   103   101   ar
    60   103   105   ar
    61   101   100   ar
    62   158   157    2
    63   155   149   am
    64   155   156    1
    65    96    95    1
    66    96    99    1
    67    71    69   ar
    68    71    72   ar
    69    80    79    1
    70   149   150    2
    71    85    86    1
    72    85    82    1
    73   106   105    1
    74   105   104   ar
    75    69    67   ar
    76   100    99    1
    77   100   102   ar
    78   157   156    1
    79   157   165   am
    80    72    70   ar
    81   159   156    1
    82   159   160    1
    83   104   102   ar
    84    82    81    1
    85    82    83    1
    86    67    66    1
    87    67    68   ar
    88   166   165    1
    89   166   167    1
    90    79    78    1
    91   162   160   ar
    92   162   164   ar
    93    81    75   am
    94   160   161   ar
    95    70    68   ar
    96   167   168    2
    97    66    63    1
    98    77    78    1
    99    77    74    1
   100    83    84    2
   101    83    88   am
   102    73    74    1
   103    73    64   am
   104    75    74    1
   105    75    76    2
   106    63    64    1
   107    63    62    1
   108   164   163   ar
   109    94    92    1
   110    88    89    1
   111   161   163   ar
   112    61    60    2
   113    64    65    2
   114    62    60   am
   115    60    59    1
   116    89    92    1
   117    89    90    1
   118    92    93    1
   119     6     5    1
   120    11     8    1
   121    11    12    1
   122     8     7    1
   123     8     9    1
   124     5     2    1
   125    59    58    1
   126     4     3    2
   127    36    35    2
   128    58    56   am
   129     7     3   am
   130    10     9    2
   131    24    23    2
   132    90    91    2
   133     3     2    1
   134    34    35    1
   135    34    33    1
   136    12    13   ar
   137    12    14   ar
   138     2     1    1
   139    23    33   am
   140    23    22    1
   141    56    55    1
   142    56    57    2
   143    55    54    1
   144    44    45    1
   145    44    43    1
   146    13    15   ar
   147    49    48    2
   148    22    25    1
   149    22    21    1
   150    14    17   ar
   151    14    16   ar
   152    17    19   ar
   153    28    30   ar
   154    28    26   ar
   155    25    26    1
   156    43    42    1
   157    54    48   am
   158    48    47    1
   159    15    16   ar
   160    16    18   ar
   161    30    31   ar
   162    19    20   ar
   163    26    27   ar
   164    42    41    1
   165    37    38    1
   166    47    50    1
   167    47    46    1
   168    41    38    1
   169    18    20   ar
   170    50    51    1
   171    31    32    1
   172    31    29   ar
   173    27    29   ar
   174    38    39    1
   175    51    52    2
   176    51    53   am
   177    39    40    2
