@<TRIPOS>MOLECULE
tmp/5qc3B00.pdb
 176 174 0 0 0
SMALL
GASTEIGER

@<TRIPOS>ATOM
      1  N         39.7830   -3.2710   18.3920 N.3    26  SER26      -0.1202
      2  CA        41.0750   -2.5980   18.2600 C.3    26  SER26       0.2020
      3  C         40.9720   -1.3810   17.3550 C.2    26  SER26       0.2618
      4  O         41.7050   -0.4040   17.5430 O.2    26  SER26      -0.2717
      5  CB        42.1320   -3.5660   17.7280 C.3    26  SER26       0.2103
      6  OG        41.8510   -3.9530   16.3990 O.3    26  SER26      -0.2182
      7  N         40.0740   -1.4270   16.3610 N.am   27  TRP27      -0.1975
      8  CA        39.8360   -0.2590   15.5160 C.3    27  TRP27       0.1640
      9  C         39.3400    0.9190   16.3380 C.2    27  TRP27       0.2290
     10  O         39.6830    2.0710   16.0560 O.2    27  TRP27      -0.2864
     11  CB        38.8190   -0.5960   14.4340 C.3    27  TRP27       0.0576
     12  CG        37.5050   -1.0480   14.9870 C.ar   27  TRP27       0.0006
     13  CD1       37.1950   -2.3020   15.4080 C.ar   27  TRP27       0.0946
     14  CD2       36.3170   -0.2560   15.1780 C.ar   27  TRP27       0.0152
     15  NE1       35.8860   -2.3510   15.8320 N.ar   27  TRP27      -0.2442
     16  CE2       35.3260   -1.1100   15.7010 C.ar   27  TRP27       0.0810
     17  CE3       35.9940    1.0820   14.9450 C.ar   27  TRP27       0.0012
     18  CZ2       34.0350   -0.6640   16.0120 C.ar   27  TRP27       0.0191
     19  CZ3       34.7060    1.5200   15.2450 C.ar   27  TRP27       0.0001
     20  CH2       33.7480    0.6460   15.7780 C.ar   27  TRP27       0.0015
     21  N         28.2670    3.0890    9.2850 N.3    62  TYR62      -0.1227
     22  CA        29.6770    3.3900    9.0750 C.3    62  TYR62       0.1736
     23  C         30.4690    2.1710    8.6350 C.2    62  TYR62       0.2596
     24  O         31.6950    2.1860    8.7170 O.2    62  TYR62      -0.2718
     25  CB        30.2780    3.9960   10.3550 C.3    62  TYR62       0.0548
     26  CG        29.6510    5.3260   10.6510 C.ar   62  TYR62      -0.0200
     27  CD1       28.5370    5.4250   11.4630 C.ar   62  TYR62      -0.0009
     28  CD2       30.1230    6.4810   10.0250 C.ar   62  TYR62      -0.0009
     29  CE1       27.9400    6.6420   11.6950 C.ar   62  TYR62       0.0417
     30  CE2       29.5400    7.6960   10.2430 C.ar   62  TYR62       0.0417
     31  CZ        28.4450    7.7770   11.0720 C.ar   62  TYR62       0.1957
     32  OH        27.8680    8.9920   11.2790 O.3    62  TYR62      -0.2866
     33  N         29.7960    1.1080    8.1950 N.am   63  GLY63      -0.1957
     34  CA        30.4710   -0.1070    7.7870 C.3    63  GLY63       0.1869
     35  C         31.1270   -0.8940    8.9000 C.2    63  GLY63       0.2309
     36  O         31.9160   -1.8020    8.6210 O.2    63  GLY63      -0.2863
     37  N         31.2090   -3.2140   12.6390 N.3    65  LYS65      -0.1245
     38  CA        30.5120   -4.3460   13.2310 C.3    65  LYS65       0.1561
     39  C         30.8520   -4.5140   14.7120 C.2    65  LYS65       0.2260
     40  O         30.9180   -5.6400   15.2090 O.2    65  LYS65      -0.2867
     41  CB        30.8130   -5.6320   12.4600 C.3    65  LYS65       0.0271
     42  CG        30.4810   -5.5750   10.9640 C.3    65  LYS65       0.0035
     43  CD        30.4030   -6.9840   10.3680 C.3    65  LYS65       0.0206
     44  CE        30.3880   -6.9830    8.8370 C.3    65  LYS65       0.1093
     45  NZ        29.2040   -6.2630    8.2680 N.3    65  LYS65      -0.1314
     46  N         32.9200   -7.2360   16.2920 N.3    68  ASN68      -0.1225
     47  CA        33.3810   -8.0630   15.1870 C.3    68  ASN68       0.1785
     48  C         34.2300   -7.2910   14.1850 C.2    68  ASN68       0.2598
     49  O         34.5610   -7.8380   13.1290 O.2    68  ASN68      -0.2718
     50  CB        32.2000   -8.7100   14.4690 C.3    68  ASN68       0.1169
     51  CG        31.4310   -9.6560   15.3620 C.2    68  ASN68       0.2627
     52  OD1       30.2340   -9.4710   15.5900 O.2    68  ASN68      -0.2716
     53  ND2       32.1220  -10.6480   15.9130 N.am   68  ASN68      -0.0877
     54  N         34.6160   -6.0530   14.5050 N.am   69  GLY69      -0.1942
     55  CA        35.5730   -5.3210   13.6950 C.3    69  GLY69       0.2014
     56  C         35.0660   -4.0000   13.1520 C.2    69  GLY69       0.2639
     57  O         33.8550   -3.7400   13.1400 O.2    69  GLY69      -0.2714
     58  N         35.9850   -3.1580   12.6920 N.am   70  GLY70      -0.1939
     59  CA        35.6040   -1.8590   12.1690 C.3    70  GLY70       0.2014
     60  C         36.7980   -1.1660   11.5490 C.2    70  GLY70       0.2639
     61  O         37.8940   -1.7280   11.4580 O.2    70  GLY70      -0.2714
     62  N         36.5560    0.0710   11.1180 N.am   71  PHE71      -0.1959
     63  CA        37.5450    0.9190   10.4710 C.3    71  PHE71       0.1771
     64  C         37.7650    2.1860   11.2820 C.2    71  PHE71       0.2619
     65  O         36.8040    2.8340   11.7030 O.2    71  PHE71      -0.2715
     66  CB        37.0960    1.3270    9.0530 C.3    71  PHE71       0.0574
     67  CG        36.7730    0.1670    8.1580 C.ar   71  PHE71      -0.0200
     68  CD1       35.4520   -0.1740    7.8950 C.ar   71  PHE71      -0.0042
     69  CD2       37.7930   -0.5830    7.5860 C.ar   71  PHE71      -0.0042
     70  CE1       35.1450   -1.2490    7.0650 C.ar   71  PHE71      -0.0003
     71  CE2       37.5020   -1.6510    6.7480 C.ar   71  PHE71      -0.0003
     72  CZ        36.1750   -1.9840    6.4910 C.ar   71  PHE71      -0.0000
     73  N         39.0340    2.5720   11.4420 N.am   72  MET72      -0.1963
     74  CA        39.3360    3.8480   12.0780 C.3    72  MET72       0.1736
     75  C         38.7690    5.0120   11.2680 C.2    72  MET72       0.2617
     76  O         38.2750    5.9960   11.8400 O.2    72  MET72      -0.2715
     77  CB        40.8510    4.0040   12.2530 C.3    72  MET72       0.0427
     78  CG        41.4920    3.0730   13.2800 C.3    72  MET72       0.0599
     79  SD        41.8580    1.4210   12.6260 S.3    72  MET72      -0.1393
     80  CE        43.3750    1.7860   11.7390 C.3    72  MET72       0.0692
     81  N         38.8190    4.9130    9.9340 N.am   73  THR73      -0.1937
     82  CA        38.3780    6.0270    9.0930 C.3    73  THR73       0.2028
     83  C         36.9060    6.3590    9.3200 C.2    73  THR73       0.2642
     84  O         36.5470    7.5290    9.4980 O.2    73  THR73      -0.2714
     85  CB        38.6380    5.7180    7.6140 C.3    73  THR73       0.1808
     86  OG1       38.0190    4.4760    7.2550 O.3    73  THR73      -0.2208
     87  CG2       40.1530    5.6700    7.3230 C.3    73  THR73       0.0379
     88  N         36.0350    5.3440    9.3050 N.am   74  THR74      -0.1950
     89  CA        34.6150    5.5880    9.5250 C.3    74  THR74       0.1897
     90  C         34.2980    5.8430   10.9950 C.2    74  THR74       0.2313
     91  O         33.2600    6.4410   11.3070 O.2    74  THR74      -0.2863
     92  CB        33.7670    4.4140    9.0100 C.3    74  THR74       0.1794
     93  OG1       34.0570    3.2180    9.7490 O.3    74  THR74      -0.2208
     94  CG2       34.0160    4.1610    7.5080 C.3    74  THR74       0.0378
     95  N         43.6860   10.1360    5.1770 N.3   116  GLU116     -0.1245
     96  CA        44.3020    8.8440    4.9080 C.3   116  GLU116      0.1567
     97  C         45.6060    9.0400    4.1480 C.2   116  GLU116      0.2260
     98  O         45.7110    9.9200    3.2900 O.2   116  GLU116     -0.2867
     99  CB        43.3730    7.9340    4.0970 C.3   116  GLU116      0.0388
    100  CG        42.2210    7.3740    4.8900 C.3   116  GLU116      0.1160
    101  CD        41.1950    6.6820    4.0190 C.2   116  GLU116      0.3649
    102  OE1       41.3940    5.5060    3.6660 O.co2 116  GLU116     -0.2457
    103  OE2       40.1810    7.3100    3.7060 O.co2 116  GLU116     -0.2457
    104  N         48.8430    3.8900    0.7420 N.3   119  TYR119     -0.1241
    105  CA        49.1680    2.5180    1.1060 C.3   119  TYR119      0.1605
    106  C         50.6450    2.2240    0.8780 C.2   119  TYR119      0.2264
    107  O         51.1710    2.4520   -0.2170 O.2   119  TYR119     -0.2867
    108  CB        48.2980    1.5990    0.2610 C.3   119  TYR119      0.0534
    109  CG        48.2760    0.1180    0.5890 C.ar  119  TYR119     -0.0201
    110  CD1       49.4350   -0.6500    0.5480 C.ar  119  TYR119     -0.0009
    111  CD2       47.0720   -0.5230    0.8580 C.ar  119  TYR119     -0.0009
    112  CE1       49.4070   -2.0150    0.8180 C.ar  119  TYR119      0.0417
    113  CE2       47.0300   -1.8880    1.1140 C.ar  119  TYR119      0.0417
    114  CZ        48.1980   -2.6240    1.0940 C.ar  119  TYR119      0.1957
    115  OH        48.1640   -3.9690    1.3500 O.3   119  TYR119     -0.2866
    116  N         46.4520   -0.1570   10.7350 N.3   138  GLY138     -0.1225
    117  CA        46.2160   -1.5720   10.9600 C.3   138  GLY138      0.1811
    118  C         47.5040   -2.3560   10.7760 C.2   138  GLY138      0.2280
    119  O         48.4000   -1.9290   10.0500 O.2   138  GLY138     -0.2866
    120  N         50.8060   -7.8010    4.1350 N.3   161  GLN161     -0.1231
    121  CA        50.3420   -6.4210    4.1390 C.3   161  GLN161      0.1698
    122  C         48.8370   -6.2990    4.3340 C.2   161  GLN161      0.2592
    123  O         48.3190   -5.1730    4.3590 O.2   161  GLN161     -0.2718
    124  CB        50.7390   -5.7230    2.8300 C.3   161  GLN161      0.0381
    125  CG        52.2310   -5.5650    2.6590 C.3   161  GLN161      0.0905
    126  CD        52.6050   -4.8430    1.3750 C.2   161  GLN161      0.2608
    127  OE1       52.2820   -3.6670    1.1890 O.2   161  GLN161     -0.2717
    128  NE2       53.2660   -5.5580    0.4670 N.am  161  GLN161     -0.0878
    129  N         48.1190   -7.4150    4.4330 N.am  162  ASN162     -0.1960
    130  CA        46.6840   -7.3890    4.6940 C.3   162  ASN162      0.1819
    131  C         46.4760   -7.3260    6.2060 C.2   162  ASN162      0.2621
    132  O         46.8650   -8.2530    6.9210 O.2   162  ASN162     -0.2715
    133  CB        45.9960   -8.6170    4.1000 C.3   162  ASN162      0.1195
    134  CG        46.3450   -8.8310    2.6420 C.2   162  ASN162      0.2630
    135  OD1       46.0190   -8.0060    1.7820 O.2   162  ASN162     -0.2716
    136  ND2       47.0370   -9.9370    2.3550 N.am  162  ASN162     -0.0877
    137  N         45.8500   -6.2350    6.6870 N.am  163  VAL163     -0.1963
    138  CA        45.7920   -5.9040    8.1070 C.3   163  VAL163      0.1727
    139  C         44.5050   -6.4250    8.7250 C.2   163  VAL163      0.2616
    140  O         43.4850   -6.5860    8.0540 O.2   163  VAL163     -0.2715
    141  CB        45.9240   -4.3830    8.3360 C.3   163  VAL163      0.0290
    142  CG1       47.2210   -3.8640    7.7290 C.3   163  VAL163      0.0023
    143  CG2       44.6950   -3.6370    7.7740 C.3   163  VAL163      0.0023
    144  N         44.5560   -6.6580   10.0380 N.am  164  ASN164     -0.1958
    145  CA        43.4440   -7.2380   10.7810 C.3   164  ASN164      0.1819
    146  C         43.3450   -6.7400   12.2150 C.2   164  ASN164      0.2621
    147  O         42.4530   -7.1950   12.9320 O.2   164  ASN164     -0.2715
    148  CB        43.6040   -8.7660   10.7990 C.3   164  ASN164      0.1195
    149  CG        45.0450   -9.1820   11.0660 C.2   164  ASN164      0.2630
    150  OD1       45.5790   -8.9640   12.1630 O.2   164  ASN164     -0.2716
    151  ND2       45.7030   -9.7450   10.0440 N.am  164  ASN164     -0.0877
    152  N         44.2150   -5.8300   12.6610 N.am  165  HIS165     -0.1959
    153  CA        44.2590   -5.4070   14.0600 C.3   165  HIS165      0.1787
    154  C         44.6480   -3.9350   14.0900 C.2   165  HIS165      0.2620
    155  O         45.6870   -3.5580   13.5380 O.2   165  HIS165     -0.2715
    156  CB        45.2640   -6.2530   14.8470 C.3   165  HIS165      0.0785
    157  CG        45.3660   -5.8890   16.2970 C.ar  165  HIS165      0.0821
    158  ND1       44.3250   -6.0610   17.1830 N.ar  165  HIS165     -0.2267
    159  CD2       46.3890   -5.3710   17.0170 C.ar  165  HIS165      0.1154
    160  CE1       44.7000   -5.6640   18.3840 C.ar  165  HIS165      0.1986
    161  NE2       45.9490   -5.2430   18.3100 N.ar  165  HIS165     -0.2212
    162  N         43.8200   -3.1060   14.7220 N.am  166  GLY166     -0.1954
    163  CA        44.0770   -1.6740   14.7760 C.3   166  GLY166      0.1869
    164  C         45.0040   -1.3400   15.9320 C.2   166  GLY166      0.2309
    165  O         44.8340   -1.8350   17.0410 O.2   166  GLY166     -0.2863
    166  N         47.1220    1.1890    5.7610 N.3   212  PHE212     -0.1241
    167  CA        45.9540    2.0540    5.9530 C.3   212  PHE212      0.1605
    168  C         46.1920    2.9910    7.1300 C.2   212  PHE212      0.2264
    169  O         45.6070    2.8320    8.2090 O.2   212  PHE212     -0.2867
    170  CB        44.6910    1.2160    6.1440 C.3   212  PHE212      0.0534
    171  CG        44.3590    0.3800    4.9460 C.ar  212  PHE212     -0.0203
    172  CD1       43.8430    0.9710    3.7960 C.ar  212  PHE212     -0.0042
    173  CD2       44.5940   -0.9850    4.9540 C.ar  212  PHE212     -0.0042
    174  CE1       43.5580    0.2060    2.6770 C.ar  212  PHE212     -0.0003
    175  CE2       44.3060   -1.7610    3.8330 C.ar  212  PHE212     -0.0003
    176  CZ        43.7920   -1.1560    2.6930 C.ar  212  PHE212     -0.0000
@<TRIPOS>BOND
     1   107   106    2
     2   108   109    1
     3   108   105    1
     4   128   126   am
     5   110   109   ar
     6   110   112   ar
     7   109   111   ar
     8   104   105    1
     9   112   114   ar
    10   111   113   ar
    11   106   105    1
    12   114   113   ar
    13   114   115    1
    14   127   126    2
    15   126   125    1
    16   135   134    2
    17   136   134   am
    18   134   133    1
    19   125   124    1
    20   174   176   ar
    21   174   172   ar
    22   176   175   ar
    23   124   121    1
    24    98    97    2
    25   102   101   ar
    26   103   101   ar
    27   172   171   ar
    28   175   173   ar
    29   101   100    1
    30    99   100    1
    31    99    96    1
    32   133   130    1
    33   120   121    1
    34   121   122    1
    35    97    96    1
    36   122   123    2
    37   122   129   am
    38   129   130    1
    39   130   131    1
    40    96    95    1
    41   171   173   ar
    42   171   170    1
    43   166   167    1
    44   167   170    1
    45   167   168    1
    46   131   137   am
    47   131   132    2
    48    72    71   ar
    49    72    70   ar
    50   137   138    1
    51    71    69   ar
    52    70    68   ar
    53   168   169    2
    54    86    85    1
    55    87    85    1
    56    94    92    1
    57    69    67   ar
    58    85    82    1
    59   142   141    1
    60   143   141    1
    61    34    33    1
    62    34    35    1
    63    68    67   ar
    64   140   139    2
    65   138   141    1
    66   138   139    1
    67    67    66    1
    68    33    23   am
    69    45    44    1
    70    36    35    2
    71    23    24    2
    72    23    22    1
    73   139   144   am
    74    44    43    1
    75    92    89    1
    76    92    93    1
    77    66    63    1
    78    22    21    1
    79    22    25    1
    80    82    83    1
    81    82    81    1
    82    88    83   am
    83    88    89    1
    84    83    84    2
    85    89    90    1
    86    81    75   am
    87    28    30   ar
    88    28    26   ar
    89   144   145    1
    90   151   149   am
    91   119   118    2
    92    30    31   ar
    93    25    26    1
    94    43    42    1
    95    63    62    1
    96    63    64    1
    97    26    27   ar
    98   116   117    1
    99   118   117    1
   100   145   148    1
   101   145   146    1
   102   148   149    1
   103    42    41    1
   104    90    91    2
   105   149   150    2
   106    31    32    1
   107    31    29   ar
   108    62    60   am
   109    75    76    2
   110    75    74    1
   111    64    73   am
   112    64    65    2
   113    73    74    1
   114    61    60    2
   115    27    29   ar
   116    60    59    1
   117    80    79    1
   118    74    77    1
   119    59    58    1
   120   146   152   am
   121   146   147    2
   122    77    78    1
   123    41    38    1
   124    79    78    1
   125    37    38    1
   126   152   153    1
   127    58    56   am
   128    49    48    2
   129    57    56    2
   130    56    55    1
   131    38    39    1
   132   155   154    2
   133    55    54    1
   134   153   154    1
   135   153   156    1
   136   154   162   am
   137    48    54   am
   138    48    47    1
   139    11    12    1
   140    11     8    1
   141    50    47    1
   142    50    51    1
   143    39    40    2
   144   162   163    1
   145   163   164    1
   146   156   157    1
   147    17    14   ar
   148    17    19   ar
   149    12    14   ar
   150    12    13   ar
   151    14    16   ar
   152    47    46    1
   153    19    20   ar
   154    51    52    2
   155    51    53   am
   156    13    15   ar
   157     8     9    1
   158     8     7    1
   159    16    15   ar
   160    16    18   ar
   161    20    18   ar
   162   164   165    2
   163    10     9    2
   164   157   159   ar
   165   157   158   ar
   166     7     3   am
   167     6     5    1
   168   159   161   ar
   169   158   160   ar
   170     3     4    2
   171     3     2    1
   172     5     2    1
   173     2     1    1
   174   161   160   ar
