@<TRIPOS>MOLECULE
tmp/5qc4A00.pdb
 187 184 0 0 0
SMALL
GASTEIGER

@<TRIPOS>ATOM
      1  N          7.1370    5.5230    2.0640 N.3    26  SER26      -0.1202
      2  CA         6.4190    4.4220    1.4250 C.3    26  SER26       0.2020
      3  C          5.2120    3.9840    2.2460 C.2    26  SER26       0.2618
      4  O          4.2070    3.5490    1.6730 O.2    26  SER26      -0.2717
      5  CB         7.3410    3.2270    1.1770 C.3    26  SER26       0.2103
      6  OG         7.8560    2.6990    2.3870 O.3    26  SER26      -0.2182
      7  N          5.3020    4.0480    3.5820 N.am   27  TRP27      -0.1975
      8  CA         4.1370    3.7600    4.4190 C.3    27  TRP27       0.1640
      9  C          2.9720    4.6740    4.0670 C.2    27  TRP27       0.2290
     10  O          1.8090    4.2540    4.1030 O.2    27  TRP27      -0.2864
     11  CB         4.4770    3.9200    5.8950 C.3    27  TRP27       0.0576
     12  CG         4.9340    5.3100    6.2400 C.ar   27  TRP27       0.0006
     13  CD1        6.1810    5.8170    6.0620 C.ar   27  TRP27       0.0946
     14  CD2        4.1440    6.3740    6.7910 C.ar   27  TRP27       0.0152
     15  NE1        6.2310    7.1270    6.4890 N.ar   27  TRP27      -0.2442
     16  CE2        4.9870    7.4900    6.9350 C.ar   27  TRP27       0.0810
     17  CE3        2.8100    6.4840    7.1910 C.ar   27  TRP27       0.0012
     18  CZ2        4.5420    8.6980    7.4550 C.ar   27  TRP27       0.0191
     19  CZ3        2.3710    7.6800    7.7130 C.ar   27  TRP27       0.0001
     20  CH2        3.2320    8.7720    7.8440 C.ar   27  TRP27       0.0015
     21  N          1.9480   11.1890   17.6380 N.3    61  LYS61      -0.1231
     22  CA         0.8520   10.4750   18.2930 C.3    61  LYS61       0.1693
     23  C          0.5620    9.1250   17.6420 C.2    61  LYS61       0.2592
     24  O          0.0710    8.2130   18.3190 O.2    61  LYS61      -0.2718
     25  CB        -0.4090   11.3400   18.2890 C.3    61  LYS61       0.0285
     26  CG        -1.6300   10.5040   18.5670 C.3    61  LYS61       0.0035
     27  CD        -2.9080   11.3200   18.4990 C.3    61  LYS61       0.0206
     28  CE        -4.0210   10.6860   19.3410 C.3    61  LYS61       0.1093
     29  NZ        -5.3380   11.3160   19.1440 N.3    61  LYS61      -0.1314
     30  N          0.9070    8.9550   16.3650 N.am   62  TYR62      -0.1962
     31  CA         0.6370    7.7260   15.6380 C.3    62  TYR62       0.1771
     32  C          1.8750    6.8630   15.4910 C.2    62  TYR62       0.2620
     33  O          1.8400    5.8650   14.7680 O.2    62  TYR62      -0.2715
     34  CB         0.0440    8.0730   14.2660 C.3    62  TYR62       0.0574
     35  CG        -1.2490    8.8350   14.4400 C.ar   62  TYR62      -0.0198
     36  CD1       -1.2750   10.2270   14.4700 C.ar   62  TYR62      -0.0009
     37  CD2       -2.4380    8.1540   14.6780 C.ar   62  TYR62      -0.0009
     38  CE1       -2.4820   10.9250   14.7020 C.ar   62  TYR62       0.0417
     39  CE2       -3.6250    8.8290   14.8940 C.ar   62  TYR62       0.0417
     40  CZ        -3.6490   10.2100   14.9020 C.ar   62  TYR62       0.1957
     41  OH        -4.8600   10.8470   15.1180 O.3    62  TYR62      -0.2866
     42  N          2.9490    7.1910   16.2070 N.am   63  GLY63      -0.1954
     43  CA         4.1880    6.4480   16.1050 C.3    63  GLY63       0.1869
     44  C          4.9130    6.6300   14.7910 C.2    63  GLY63       0.2309
     45  O          5.8560    5.8870   14.5100 O.2    63  GLY63      -0.2863
     46  N          7.1020    8.8130   11.7470 N.3    65  LYS65      -0.1245
     47  CA         8.2730    9.6760   11.7480 C.3    65  LYS65       0.1561
     48  C          8.4410   10.3980   10.4130 C.2    65  LYS65       0.2260
     49  O          9.5650   10.7000   10.0150 O.2    65  LYS65      -0.2867
     50  CB         9.5330    8.8690   12.0650 C.3    65  LYS65       0.0271
     51  CG         9.4600    7.9520   13.2810 C.3    65  LYS65       0.0035
     52  CD         9.2720    8.7170   14.5730 C.3    65  LYS65       0.0206
     53  CE         9.7070    7.8940   15.7940 C.3    65  LYS65       0.1093
     54  NZ         9.8070    8.7750   17.0050 N.3    65  LYS65      -0.1314
     55  N         11.1790    9.5800    7.8730 N.3    68  ASN68      -0.1225
     56  CA        11.9910    8.5200    8.4520 C.3    68  ASN68       0.1785
     57  C         11.1930    7.2670    8.7610 C.2    68  ASN68       0.2598
     58  O         11.6990    6.3990    9.4750 O.2    68  ASN68      -0.2718
     59  CB        12.6880    9.0050    9.7160 C.3    68  ASN68       0.1169
     60  CG        13.8040    9.9610    9.4200 C.2    68  ASN68       0.2627
     61  OD1       14.3140   10.0050    8.3020 O.2    68  ASN68      -0.2716
     62  ND2       14.1830   10.7520   10.4120 N.am   68  ASN68      -0.0877
     63  N          9.9730    7.1480    8.2530 N.am   69  GLY69      -0.1942
     64  CA         9.2350    5.9010    8.3160 C.3    69  GLY69       0.2014
     65  C          7.9450    6.0210    9.1100 C.2    69  GLY69       0.2639
     66  O          7.6760    7.0160    9.7830 O.2    69  GLY69      -0.2714
     67  N          7.1430    4.9660    9.0050 N.am   70  GLY70      -0.1939
     68  CA         5.8580    4.9550    9.6710 C.3    70  GLY70       0.2014
     69  C          5.0880    3.6850    9.3740 C.2    70  GLY70       0.2639
     70  O          5.6080    2.7400    8.7790 O.2    70  GLY70      -0.2714
     71  N          3.8200    3.6940    9.7940 N.am   71  PHE71      -0.1959
     72  CA         2.9410    2.5360    9.7460 C.3    71  PHE71       0.1771
     73  C          1.6820    2.8690    8.9710 C.2    71  PHE71       0.2619
     74  O          1.0780    3.9320    9.1740 O.2    71  PHE71      -0.2715
     75  CB         2.5170    2.0790   11.1560 C.3    71  PHE71       0.0574
     76  CG         3.6670    1.7840   12.0800 C.ar   71  PHE71      -0.0200
     77  CD1        4.1620    2.7650   12.9310 C.ar   71  PHE71      -0.0042
     78  CD2        4.2550    0.5300   12.0940 C.ar   71  PHE71      -0.0042
     79  CE1        5.2300    2.4940   13.7800 C.ar   71  PHE71      -0.0003
     80  CE2        5.3200    0.2510   12.9480 C.ar   71  PHE71      -0.0003
     81  CZ         5.8050    1.2320   13.7890 C.ar   71  PHE71      -0.0000
     82  N          1.2490    1.9230    8.1350 N.am   72  MET72      -0.1963
     83  CA        -0.0090    2.1090    7.4220 C.3    72  MET72       0.1736
     84  C         -1.1910    2.0840    8.3800 C.2    72  MET72       0.2617
     85  O         -2.1420    2.8510    8.2060 O.2    72  MET72      -0.2715
     86  CB        -0.1750    1.0480    6.3280 C.3    72  MET72       0.0427
     87  CG         0.7380    1.2450    5.1190 C.3    72  MET72       0.0599
     88  SD         2.3360    0.4380    5.3410 S.3    72  MET72      -0.1393
     89  CE         1.8910   -1.2740    5.0390 C.3    72  MET72       0.0692
     90  N         -1.1540    1.2190    9.4010 N.am   73  THR73      -0.1937
     91  CA        -2.3190    1.0690   10.2780 C.3    73  THR73       0.2028
     92  C         -2.6060    2.3550   11.0450 C.2    73  THR73       0.2642
     93  O         -3.7660    2.7760   11.1590 O.2    73  THR73      -0.2714
     94  CB        -2.1260   -0.1060   11.2500 C.3    73  THR73       0.1808
     95  OG1       -0.8650   -0.0070   11.9310 O.3    73  THR73      -0.2208
     96  CG2       -2.1470   -1.4100   10.4910 C.3    73  THR73       0.0379
     97  N         -1.5590    2.9830   11.5980 N.am   74  THR74      -0.1950
     98  CA        -1.7540    4.2310   12.3160 C.3    74  THR74       0.1897
     99  C         -1.9850    5.3870   11.3640 C.2    74  THR74       0.2313
    100  O         -2.6070    6.3840   11.7460 O.2    74  THR74      -0.2863
    101  CB        -0.5580    4.5420   13.2280 C.3    74  THR74       0.1794
    102  OG1        0.6290    4.7360   12.4440 O.3    74  THR74      -0.2208
    103  CG2       -0.3510    3.4410   14.2520 C.3    74  THR74       0.0378
    104  N         -6.4940   -5.4950   10.4350 N.3   116  GLU116     -0.1245
    105  CA        -5.1570   -6.0650   10.3350 C.3   116  GLU116      0.1567
    106  C         -5.2550   -7.5680   10.1080 C.2   116  GLU116      0.2260
    107  O         -6.0220   -8.2530   10.7850 O.2   116  GLU116     -0.2867
    108  CB        -4.3730   -5.7830   11.6180 C.3   116  GLU116      0.0388
    109  CG        -4.3020   -4.3060   11.9630 C.3   116  GLU116      0.1160
    110  CD        -3.4550   -4.0410   13.1800 C.2   116  GLU116      0.3649
    111  OE1       -2.2120   -4.1650   13.0730 O.co2 116  GLU116     -0.2457
    112  OE2       -4.0370   -3.7150   14.2400 O.co2 116  GLU116     -0.2457
    113  N         -0.3520  -12.4600   10.9310 N.3   119  TYR119     -0.1241
    114  CA         1.0260  -12.5460   10.4460 C.3   119  TYR119      0.1605
    115  C          1.2650  -13.7930    9.6020 C.2   119  TYR119      0.2264
    116  O          0.9560  -14.9110   10.0210 O.2   119  TYR119     -0.2867
    117  CB         1.9610  -12.5280   11.6660 C.3   119  TYR119      0.0534
    118  CG         3.4510  -12.5470   11.3970 C.ar  119  TYR119     -0.0201
    119  CD1        4.0870  -13.6930   10.9230 C.ar  119  TYR119     -0.0009
    120  CD2        4.2250  -11.4100   11.6090 C.ar  119  TYR119     -0.0009
    121  CE1        5.4580  -13.7040   10.6750 C.ar  119  TYR119      0.0417
    122  CE2        5.5960  -11.4170   11.3490 C.ar  119  TYR119      0.0417
    123  CZ         6.1950  -12.5660   10.8780 C.ar  119  TYR119      0.1957
    124  OH         7.5480  -12.5900   10.6190 O.3   119  TYR119     -0.2866
    125  N          3.7950   -4.5120    4.2990 N.3   138  GLY138     -0.1225
    126  CA         5.2140   -4.2340    4.3490 C.3   138  GLY138      0.1811
    127  C          5.9620   -5.3760    3.6890 C.2   138  GLY138      0.2280
    128  O          5.4900   -6.5140    3.6660 O.2   138  GLY138     -0.2866
    129  N         15.3770   -4.6460    1.6290 N.3   142  ARG142     -0.1245
    130  CA        16.7880   -4.3450    1.8620 C.3   142  ARG142      0.1563
    131  C         17.6710   -5.3210    1.0830 C.2   142  ARG142      0.2260
    132  O         18.3890   -6.1430    1.6490 O.2   142  ARG142     -0.2867
    133  CB        17.1040   -4.3700    3.3570 C.3   142  ARG142      0.0307
    134  CG        16.8720   -3.0220    4.0560 C.3   142  ARG142      0.0489
    135  CD        16.6380   -3.1620    5.5520 C.3   142  ARG142      0.2205
    136  NE        15.9760   -1.9870    6.1110 N.pl3 142  ARG142     -0.0865
    137  CZ        15.8280   -1.7580    7.4150 C.cat 142  ARG142      0.5346
    138  NH1       16.2940   -2.6300    8.3000 N.pl3 142  ARG142      0.1354
    139  NH2       15.1760   -0.6750    7.8320 N.pl3 142  ARG142      0.1354
    140  N         11.0160   -9.8950    8.0480 N.3   162  ASN162     -0.1225
    141  CA        10.9730   -8.6100    8.7400 C.3   162  ASN162      0.1785
    142  C         10.8110   -7.4900    7.7160 C.2   162  ASN162      0.2597
    143  O         11.6630   -7.3290    6.8400 O.2   162  ASN162     -0.2718
    144  CB        12.2550   -8.3920    9.5350 C.3   162  ASN162      0.1169
    145  CG        12.5320   -9.5130   10.5080 C.2   162  ASN162      0.2627
    146  OD1       11.7060   -9.8180   11.3670 O.2   162  ASN162     -0.2716
    147  ND2       13.6950  -10.1470   10.3670 N.am  162  ASN162     -0.0877
    148  N          9.7790   -6.6640    7.8750 N.am  163  VAL163     -0.1966
    149  CA         9.4170   -5.7000    6.8420 C.3   163  VAL163      0.1727
    150  C         10.0260   -4.3340    7.1450 C.2   163  VAL163      0.2616
    151  O         10.2370   -3.9530    8.3020 O.2   163  VAL163     -0.2715
    152  CB         7.8840   -5.6060    6.6940 C.3   163  VAL163      0.0290
    153  CG1        7.3110   -6.9900    6.3850 C.3   163  VAL163      0.0023
    154  CG2        7.2610   -5.0240    7.9480 C.3   163  VAL163      0.0023
    155  N         10.2970   -3.5760    6.0690 N.am  164  ASN164     -0.1958
    156  CA        10.9040   -2.2560    6.1970 C.3   164  ASN164      0.1819
    157  C         10.4930   -1.3170    5.0660 C.2   164  ASN164      0.2621
    158  O         11.0380   -0.2120    4.9760 O.2   164  ASN164     -0.2715
    159  CB        12.4300   -2.3840    6.2050 C.3   164  ASN164      0.1195
    160  CG        12.9280   -3.2690    5.0830 C.2   164  ASN164      0.2630
    161  OD1       12.7600   -2.9480    3.8970 O.2   164  ASN164     -0.2716
    162  ND2       13.5200   -4.4040    5.4430 N.am  164  ASN164     -0.0877
    163  N          9.5680   -1.7110    4.1980 N.am  165  HIS165     -0.1959
    164  CA         9.1890   -0.8840    3.0590 C.3   165  HIS165      0.1787
    165  C          7.7160   -1.1440    2.8090 C.2   165  HIS165      0.2620
    166  O          7.3290   -2.2960    2.5970 O.2   165  HIS165     -0.2715
    167  CB        10.0340   -1.2350    1.8280 C.3   165  HIS165      0.0785
    168  CG         9.7170   -0.4210    0.6120 C.ar  165  HIS165      0.0821
    169  ND1        9.8290    0.9540    0.5860 N.ar  165  HIS165     -0.2267
    170  CD2        9.2960   -0.7890   -0.6200 C.ar  165  HIS165      0.1154
    171  CE1        9.4810    1.3980   -0.6100 C.ar  165  HIS165      0.1986
    172  NE2        9.1510    0.3600   -1.3600 N.ar  165  HIS165     -0.2212
    173  N          6.9020   -0.0980    2.8730 N.am  166  GLY166     -0.1954
    174  CA         5.4820   -0.2550    2.6160 C.3   166  GLY166      0.1869
    175  C          5.1630   -0.2340    1.1260 C.2   166  GLY166      0.2309
    176  O          5.6570    0.6030    0.3700 O.2   166  GLY166     -0.2863
    177  N          2.6330   -8.0770    7.8430 N.3   212  PHE212     -0.1241
    178  CA         1.8200   -7.0050    8.4340 C.3   212  PHE212      0.1605
    179  C          0.8990   -6.3830    7.3950 C.2   212  PHE212      0.2264
    180  O          1.1130   -5.2480    6.9520 O.2   212  PHE212     -0.2867
    181  CB         2.7190   -5.9480    9.0760 C.3   212  PHE212      0.0534
    182  CG         3.5150   -6.4890   10.2040 C.ar  212  PHE212     -0.0203
    183  CD1        2.9280   -6.7030   11.4390 C.ar  212  PHE212     -0.0042
    184  CD2        4.8230   -6.8810   10.0120 C.ar  212  PHE212     -0.0042
    185  CE1        3.6480   -7.2510   12.4660 C.ar  212  PHE212     -0.0003
    186  CE2        5.5520   -7.4330   11.0530 C.ar  212  PHE212     -0.0003
    187  CZ         4.9650   -7.6190   12.2710 C.ar  212  PHE212     -0.0000
@<TRIPOS>BOND
     1   172   170   ar
     2   172   171   ar
     3   170   168   ar
     4   171   169   ar
     5   176   175    2
     6   169   168   ar
     7   168   167    1
     8   131   132    2
     9   131   130    1
    10   175   174    1
    11     5     2    1
    12     5     6    1
    13     2     1    1
    14     2     3    1
    15   129   130    1
    16     4     3    2
    17   167   164    1
    18   130   133    1
    19     3     7   am
    20   166   165    2
    21   174   173    1
    22   165   173   am
    23   165   164    1
    24   164   163    1
    25   133   134    1
    26     7     8    1
    27   128   127    2
    28   127   126    1
    29   161   160    2
    30   134   135    1
    31     9    10    2
    32     9     8    1
    33   163   157   am
    34   125   126    1
    35     8    11    1
    36   158   157    2
    37    89    88    1
    38   157   156    1
    39   160   162   am
    40   160   159    1
    41    87    88    1
    42    87    86    1
    43   135   136    1
    44    11    12    1
    45    13    12   ar
    46    13    15   ar
    47   155   156    1
    48   155   150   am
    49   136   137    2
    50   156   159    1
    51    12    14   ar
    52    86    83    1
    53   153   152    1
    54    15    16   ar
    55   152   149    1
    56   152   154    1
    57    14    16   ar
    58    14    17   ar
    59   143   142    2
    60   149   150    1
    61   149   148    1
    62    16    18   ar
    63   180   179    2
    64   150   151    2
    65    17    19   ar
    66   179   178    1
    67   137   139    1
    68   137   138    1
    69    83    82    1
    70    83    84    1
    71    18    20   ar
    72    19    20   ar
    73   142   148   am
    74   142   141    1
    75   177   178    1
    76    55    56    1
    77   140   141    1
    78    82    73   am
    79    85    84    2
    80    63    64    1
    81    63    57   am
    82    61    60    2
    83    64    65    1
    84    84    90   am
    85   178   181    1
    86    56    57    1
    87    56    59    1
    88   141   144    1
    89    57    58    2
    90    70    69    2
    91    73    74    2
    92    73    72    1
    93    67    65   am
    94    67    68    1
    95   181   182    1
    96    65    66    2
    97    69    68    1
    98    69    71   am
    99    90    91    1
   100    60    59    1
   101    60    62   am
   102   144   145    1
   103   115   116    2
   104   115   114    1
   105    72    71    1
   106    72    75    1
   107   184   182   ar
   108   184   186   ar
   109    49    48    2
   110   106   105    1
   111   106   107    2
   112   182   183   ar
   113    91    92    1
   114    91    94    1
   115   105   104    1
   116   105   108    1
   117   147   145   am
   118    48    47    1
   119   114   113    1
   120   114   117    1
   121    96    94    1
   122   145   146    2
   123   124   123    1
   124   121   123   ar
   125   121   119   ar
   126   123   122   ar
   127   119   118   ar
   128    92    93    2
   129    92    97   am
   130   186   187   ar
   131    75    76    1
   132    94    95    1
   133   122   120   ar
   134    99   100    2
   135    99    98    1
   136   118   120   ar
   137   118   117    1
   138   183   185   ar
   139    97    98    1
   140   108   109    1
   141    46    47    1
   142    47    50    1
   143   109   110    1
   144    50    51    1
   145    76    78   ar
   146    76    77   ar
   147    78    80   ar
   148   187   185   ar
   149    98   101    1
   150   102   101    1
   151    77    79   ar
   152    80    81   ar
   153   111   110   ar
   154   110   112   ar
   155   101   103    1
   156    51    52    1
   157    79    81   ar
   158    34    35    1
   159    34    31    1
   160    35    36   ar
   161    35    37   ar
   162    36    38   ar
   163    45    44    2
   164    52    53    1
   165    37    39   ar
   166    38    40   ar
   167    33    32    2
   168    44    43    1
   169    39    40   ar
   170    40    41    1
   171    32    31    1
   172    32    42   am
   173    31    30    1
   174    53    54    1
   175    43    42    1
   176    30    23   am
   177    21    22    1
   178    23    22    1
   179    23    24    2
   180    25    22    1
   181    25    26    1
   182    27    26    1
   183    27    28    1
   184    29    28    1
