@<TRIPOS>MOLECULE
tmp/5qc5B00.pdb
 176 174 0 0 0
SMALL
GASTEIGER

@<TRIPOS>ATOM
      1  N          8.4460   -3.5630   17.3570 N.3    25  SER25      -0.1202
      2  CA         9.2410   -2.8590   16.3580 C.3    25  SER25       0.2020
      3  C          8.5370   -1.6040   15.8570 C.2    25  SER25       0.2618
      4  O          9.1680   -0.5600   15.6660 O.2    25  SER25      -0.2717
      5  CB         9.5370   -3.7910   15.1980 C.3    25  SER25       0.2103
      6  OG         8.3550   -4.1110   14.5080 O.3    25  SER25      -0.2182
      7  N          7.2130   -1.6690   15.7090 N.am   26  TRP26      -0.1975
      8  CA         6.4620   -0.5000   15.2660 C.3    26  TRP26       0.1640
      9  C          6.6550    0.6610   16.2260 C.2    26  TRP26       0.2290
     10  O          6.7730    1.8230   15.8010 O.2    26  TRP26      -0.2864
     11  CB         4.9850   -0.8420   15.1550 C.3    26  TRP26       0.0576
     12  CG         4.4120   -1.3150   16.4780 C.ar   26  TRP26       0.0006
     13  CD1        4.5090   -2.5780   17.0170 C.ar   26  TRP26       0.0946
     14  CD2        3.6740   -0.5340   17.4290 C.ar   26  TRP26       0.0152
     15  NE1        3.8640   -2.6240   18.2320 N.ar   26  TRP26      -0.2442
     16  CE2        3.3360   -1.3880   18.5010 C.ar   26  TRP26       0.0810
     17  CE3        3.2520    0.7950   17.4710 C.ar   26  TRP26       0.0012
     18  CZ2        2.5950   -0.9490   19.5900 C.ar   26  TRP26       0.0191
     19  CZ3        2.5250    1.2260   18.5510 C.ar   26  TRP26       0.0001
     20  CH2        2.1970    0.3590   19.5900 C.ar   26  TRP26       0.0015
     21  N         -6.2250    2.7420   18.2880 N.3    61  TYR61      -0.1227
     22  CA        -5.2990    3.0030   17.1980 C.3    61  TYR61       0.1736
     23  C         -4.9780    1.7450   16.4050 C.2    61  TYR61       0.2596
     24  O         -4.0880    1.7750   15.5540 O.2    61  TYR61      -0.2718
     25  CB        -4.0310    3.6520   17.7620 C.3    61  TYR61       0.0548
     26  CG        -4.4040    4.9440   18.4420 C.ar   61  TYR61      -0.0200
     27  CD1       -4.5840    6.1080   17.6870 C.ar   61  TYR61      -0.0009
     28  CD2       -4.6450    4.9930   19.8260 C.ar   61  TYR61      -0.0009
     29  CE1       -4.9700    7.2940   18.2900 C.ar   61  TYR61       0.0417
     30  CE2       -5.0300    6.1770   20.4430 C.ar   61  TYR61       0.0417
     31  CZ        -5.1920    7.3270   19.6650 C.ar   61  TYR61       0.1957
     32  OH        -5.5660    8.5220   20.2340 O.3    61  TYR61      -0.2866
     33  N         -5.7030    0.6500   16.6400 N.am   62  GLY62      -0.1957
     34  CA        -5.4840   -0.5600   15.8800 C.3    62  GLY62       0.1869
     35  C         -4.2300   -1.3220   16.2260 C.2    62  GLY62       0.2309
     36  O         -3.8130   -2.1740   15.4410 O.2    62  GLY62      -0.2863
     37  N         -1.7920   -3.7280   18.9630 N.3    64  LYS64      -0.1245
     38  CA        -1.9180   -4.7860   19.9630 C.3    64  LYS64       0.1561
     39  C         -0.6180   -4.9620   20.7590 C.2    64  LYS64       0.2260
     40  O         -0.1820   -6.0810   21.0330 O.2    64  LYS64      -0.2867
     41  CB        -2.3620   -6.0900   19.3090 C.3    64  LYS64       0.0271
     42  CG        -3.7340   -6.0040   18.6440 C.3    64  LYS64       0.0035
     43  CD        -4.0070   -7.1960   17.7080 C.3    64  LYS64       0.0206
     44  CE        -5.1680   -6.9220   16.7170 C.3    64  LYS64       0.1093
     45  NZ        -6.5430   -7.0180   17.3010 N.3    64  LYS64      -0.1314
     46  N          2.0350   -7.5510   20.3580 N.3    67  ASN67      -0.1225
     47  CA         1.5880   -8.3810   19.2460 C.3    67  ASN67       0.1785
     48  C          1.4610   -7.6050   17.9520 C.2    67  ASN67       0.2598
     49  O          0.9600   -8.1490   16.9650 O.2    67  ASN67      -0.2718
     50  CB         0.2650   -9.0490   19.5900 C.3    67  ASN67       0.1169
     51  CG         0.4110  -10.0270   20.7300 C.2    67  ASN67       0.2627
     52  OD1        1.2660  -10.9220   20.6860 O.2    67  ASN67      -0.2716
     53  ND2       -0.3660   -9.8200   21.7940 N.am   67  ASN67      -0.0877
     54  N          1.9470   -6.3670   17.9140 N.am   68  GLY68      -0.1942
     55  CA         1.9690   -5.6320   16.6670 C.3    68  GLY68       0.2014
     56  C          1.3300   -4.2540   16.6800 C.2    68  GLY68       0.2639
     57  O          0.5430   -3.9110   17.5730 O.2    68  GLY68      -0.2714
     58  N          1.6810   -3.4460   15.6880 N.am   69  GLY69      -0.1939
     59  CA         1.1340   -2.1110   15.6250 C.3    69  GLY69       0.2014
     60  C          1.4870   -1.4230   14.3280 C.2    69  GLY69       0.2639
     61  O          2.0590   -2.0190   13.4160 O.2    69  GLY69      -0.2714
     62  N          1.1200   -0.1540   14.2670 N.am   70  PHE70      -0.1959
     63  CA         1.3980    0.7050   13.1370 C.3    70  PHE70       0.1771
     64  C          2.1060    1.9430   13.6400 C.2    70  PHE70       0.2619
     65  O          1.7240    2.5030   14.6700 O.2    70  PHE70      -0.2715
     66  CB         0.1210    1.1230   12.4230 C.3    70  PHE70       0.0574
     67  CG        -0.6670   -0.0210   11.8720 C.ar   70  PHE70      -0.0200
     68  CD1       -0.2890   -0.6270   10.6770 C.ar   70  PHE70      -0.0042
     69  CD2       -1.7890   -0.4810   12.5300 C.ar   70  PHE70      -0.0042
     70  CE1       -1.0200   -1.6690   10.1500 C.ar   70  PHE70      -0.0003
     71  CE2       -2.5220   -1.5360   12.0110 C.ar   70  PHE70      -0.0003
     72  CZ        -2.1340   -2.1270   10.8180 C.ar   70  PHE70      -0.0000
     73  N          3.1260    2.3760   12.9000 N.am   71  MET71      -0.1963
     74  CA         3.7440    3.6590   13.2080 C.3    71  MET71       0.1736
     75  C          2.7740    4.8040   12.9420 C.2    71  MET71       0.2617
     76  O          2.7850    5.8090   13.6570 O.2    71  MET71      -0.2715
     77  CB         5.0340    3.8610   12.4000 C.3    71  MET71       0.0427
     78  CG         6.1750    2.9360   12.7760 C.3    71  MET71       0.0599
     79  SD         5.9630    1.3700   11.9350 S.3    71  MET71      -0.1393
     80  CE         6.6030    1.7000   10.2930 C.3    71  MET71       0.0692
     81  N          1.9370    4.6780   11.9100 N.am   72  THR72      -0.1937
     82  CA         1.0240    5.7720   11.5770 C.3    72  THR72       0.2028
     83  C          0.0730    6.0530   12.7270 C.2    72  THR72       0.2642
     84  O         -0.0710    7.2000   13.1640 O.2    72  THR72      -0.2714
     85  CB         0.2450    5.4530   10.3030 C.3    72  THR72       0.1808
     86  OG1       -0.2830    4.1170   10.3770 O.3    72  THR72      -0.2208
     87  CG2        1.1510    5.6110    9.0900 C.3    72  THR72       0.0379
     88  N         -0.5660    5.0110   13.2510 N.am   73  THR73      -0.1950
     89  CA        -1.4610    5.2250   14.3760 C.3    73  THR73       0.1897
     90  C         -0.7050    5.5170   15.6660 C.2    73  THR73       0.2313
     91  O         -1.3030    6.0410   16.6070 O.2    73  THR73      -0.2863
     92  CB        -2.3760    4.0270   14.5360 C.3    73  THR73       0.1794
     93  OG1       -1.5970    2.8750   14.8650 O.3    73  THR73      -0.2208
     94  CG2       -3.1200    3.7840   13.2420 C.3    73  THR73       0.0378
     95  N          2.2840    9.9820    5.1160 N.3   115  GLU115     -0.1245
     96  CA         2.5790    8.6890    4.5230 C.3   115  GLU115      0.1567
     97  C          3.0810    8.8520    3.1000 C.2   115  GLU115      0.2260
     98  O          2.6480    9.7420    2.3730 O.2   115  GLU115     -0.2867
     99  CB         1.3460    7.8040    4.5310 C.3   115  GLU115      0.0388
    100  CG         0.8460    7.5110    5.9060 C.3   115  GLU115      0.1160
    101  CD        -0.3980    6.6680    5.8780 C.2   115  GLU115      0.3649
    102  OE1       -0.3470    5.5530    5.3040 O.co2 115  GLU115     -0.2457
    103  OE2       -1.4320    7.1340    6.4170 O.co2 115  GLU115     -0.2457
    104  N          3.2450    3.8910   -1.8160 N.3   118  TYR118     -0.1241
    105  CA         3.7200    2.5110   -1.8010 C.3   118  TYR118      0.1605
    106  C          4.6770    2.2270   -2.9530 C.2   118  TYR118      0.2264
    107  O          4.3500    2.4660   -4.1170 O.2   118  TYR118     -0.2867
    108  CB         2.5020    1.5810   -1.8830 C.3   118  TYR118      0.0534
    109  CG         2.7390    0.0910   -1.6950 C.ar  118  TYR118     -0.0201
    110  CD1        3.5440   -0.6250   -2.5810 C.ar  118  TYR118     -0.0009
    111  CD2        2.1090   -0.6060   -0.6640 C.ar  118  TYR118     -0.0009
    112  CE1        3.7580   -1.9850   -2.4290 C.ar  118  TYR118      0.0417
    113  CE2        2.3040   -1.9810   -0.5010 C.ar  118  TYR118      0.0417
    114  CZ         3.1330   -2.6690   -1.3930 C.ar  118  TYR118      0.1957
    115  OH         3.3410   -4.0360   -1.2720 O.3   118  TYR118     -0.2866
    116  N          8.1480   -0.2860    7.4410 N.3   137  GLY137     -0.1225
    117  CA         8.1510   -1.7020    7.7050 C.3   137  GLY137      0.1811
    118  C          8.9740   -2.4090    6.6470 C.2   137  GLY137      0.2280
    119  O          9.1160   -1.9270    5.5200 O.2   137  GLY137     -0.2866
    120  N          7.1470   -7.9020   -0.6440 N.3   160  GLN160     -0.1231
    121  CA         6.8080   -6.5190   -0.3530 C.3   160  GLN160      0.1698
    122  C          5.8260   -6.3570    0.8040 C.2   160  GLN160      0.2592
    123  O          5.5020   -5.2160    1.1590 O.2   160  GLN160     -0.2718
    124  CB         6.2520   -5.8650   -1.6040 C.3   160  GLN160      0.0381
    125  CG         7.2410   -5.7930   -2.7400 C.3   160  GLN160      0.0905
    126  CD         6.7110   -4.9890   -3.9220 C.2   160  GLN160      0.2608
    127  OE1        6.2700   -3.8330   -3.7810 O.2   160  GLN160     -0.2717
    128  NE2        6.7080   -5.6170   -5.0890 N.am  160  GLN160     -0.0878
    129  N          5.3470   -7.4520    1.3990 N.am  161  ASN161     -0.1960
    130  CA         4.5010   -7.3730    2.5910 C.3   161  ASN161      0.1819
    131  C          5.3860   -7.1500    3.8080 C.2   161  ASN161      0.2621
    132  O          6.4210   -7.8040    3.9450 O.2   161  ASN161     -0.2715
    133  CB         3.6700   -8.6440    2.7670 C.3   161  ASN161      0.1195
    134  CG         2.7410   -8.8970    1.5970 C.2   161  ASN161      0.2630
    135  OD1        1.8010   -8.1340    1.3510 O.2   161  ASN161     -0.2716
    136  ND2        3.0340   -9.9410    0.8320 N.am  161  ASN161     -0.0877
    137  N          5.0110   -6.2030    4.6640 N.am  162  VAL162     -0.1963
    138  CA         5.8650   -5.8250    5.7770 C.3   162  VAL162      0.1727
    139  C          5.2900   -6.3860    7.0760 C.2   162  VAL162      0.2616
    140  O          4.0720   -6.5370    7.2350 O.2   162  VAL162     -0.2715
    141  CB         6.0570   -4.2930    5.8440 C.3   162  VAL162      0.0290
    142  CG1        6.4940   -3.7620    4.4850 C.3   162  VAL162      0.0023
    143  CG2        4.8150   -3.5740    6.3820 C.3   162  VAL162      0.0023
    144  N          6.2010   -6.6960    8.0130 N.am  163  ASN163     -0.1958
    145  CA         5.8850   -7.3230    9.2910 C.3   163  ASN163      0.1819
    146  C          6.7690   -6.8490   10.4490 C.2   163  ASN163      0.2621
    147  O          6.5890   -7.3310   11.5710 O.2   163  ASN163     -0.2715
    148  CB         6.0130   -8.8410    9.1510 C.3   163  ASN163      0.1195
    149  CG         7.3070   -9.2320    8.4490 C.2   163  ASN163      0.2630
    150  OD1        8.4080   -9.0750    9.0020 O.2   163  ASN163     -0.2716
    151  ND2        7.1840   -9.7150    7.2070 N.am  163  ASN163     -0.0877
    152  N          7.7240   -5.9500   10.2130 N.am  164  HIS164     -0.1959
    153  CA         8.6920   -5.5320   11.2280 C.3   164  HIS164      0.1787
    154  C          9.0090   -4.0590   10.9960 C.2   164  HIS164      0.2620
    155  O          9.4270   -3.6790    9.8970 O.2   164  HIS164     -0.2715
    156  CB         9.9590   -6.3940   11.1400 C.3   164  HIS164      0.0785
    157  CG        11.0190   -6.0560   12.1390 C.ar  164  HIS164      0.0821
    158  ND1       10.8240   -6.1490   13.5020 N.ar  164  HIS164     -0.2267
    159  CD2       12.2990   -5.6440   11.9720 C.ar  164  HIS164      0.1154
    160  CE1       11.9380   -5.8060   14.1300 C.ar  164  HIS164      0.1986
    161  NE2       12.8470   -5.4930   13.2230 N.ar  164  HIS164     -0.2212
    162  N          8.7970   -3.2270   12.0070 N.am  165  GLY165     -0.1954
    163  CA         9.0220   -1.7960   11.8690 C.3   165  GLY165      0.1869
    164  C         10.4770   -1.4300   12.1350 C.2   165  GLY165      0.2309
    165  O         11.0980   -1.9320   13.0750 O.2   165  GLY165     -0.2863
    166  N          5.2640    1.0290    3.0820 N.3   211  PHE211     -0.1241
    167  CA         4.4810    1.8130    4.0370 C.3   211  PHE211      0.1605
    168  C          5.3970    2.7450    4.8190 C.2   211  PHE211      0.2264
    169  O          5.5970    2.5830    6.0250 O.2   211  PHE211     -0.2867
    170  CB         3.6990    0.8810    4.9690 C.3   211  PHE211      0.0534
    171  CG         2.7220    0.0140    4.2490 C.ar  211  PHE211     -0.0203
    172  CD1        1.5620    0.5580    3.7180 C.ar  211  PHE211     -0.0042
    173  CD2        2.9760   -1.3390    4.0630 C.ar  211  PHE211     -0.0042
    174  CE1        0.6590   -0.2270    3.0290 C.ar  211  PHE211     -0.0003
    175  CE2        2.0960   -2.1270    3.3820 C.ar  211  PHE211     -0.0003
    176  CZ         0.9230   -1.5730    2.8600 C.ar  211  PHE211     -0.0000
@<TRIPOS>BOND
     1   128   126   am
     2   107   106    2
     3   126   127    2
     4   126   125    1
     5   106   105    1
     6   125   124    1
     7   110   112   ar
     8   110   109   ar
     9   112   114   ar
    10   108   105    1
    11   108   109    1
    12   104   105    1
    13   109   111   ar
    14   124   121    1
    15   114   115    1
    16   114   113   ar
    17   111   113   ar
    18   120   121    1
    19   121   122    1
    20   122   123    2
    21   122   129   am
    22   136   134   am
    23   135   134    2
    24   129   130    1
    25   134   133    1
    26    98    97    2
    27   130   133    1
    28   130   131    1
    29   176   174   ar
    30   176   175   ar
    31   174   172   ar
    32   166   167    1
    33    97    96    1
    34   175   173   ar
    35   172   171   ar
    36   131   132    2
    37   131   137   am
    38   167   168    1
    39   167   170    1
    40   173   171   ar
    41   171   170    1
    42   142   141    1
    43    96    99    1
    44    96    95    1
    45    99   100    1
    46   137   138    1
    47   168   169    2
    48   102   101   ar
    49   119   118    2
    50   138   141    1
    51   138   139    1
    52   141   143    1
    53   101   100    1
    54   101   103   ar
    55   118   117    1
    56   139   140    2
    57   139   144   am
    58   151   149   am
    59   116   117    1
    60   144   145    1
    61   149   150    2
    62   149   148    1
    63    87    85    1
    64   148   145    1
    65   145   146    1
    66   155   154    2
    67    70    68   ar
    68    70    72   ar
    69   152   146   am
    70   152   153    1
    71    80    79    1
    72    85    86    1
    73    85    82    1
    74   146   147    2
    75    68    67   ar
    76    72    71   ar
    77   154   153    1
    78   154   162   am
    79   156   153    1
    80   156   157    1
    81    82    81    1
    82    82    83    1
    83   163   162    1
    84   163   164    1
    85    67    66    1
    86    67    69   ar
    87    81    75   am
    88    79    78    1
    89   159   157   ar
    90   159   161   ar
    91    71    69   ar
    92   164   165    2
    93   157   158   ar
    94    77    78    1
    95    77    74    1
    96    66    63    1
    97    83    84    2
    98    83    88   am
    99    73    74    1
   100    73    64   am
   101    75    74    1
   102    75    76    2
   103    63    64    1
   104    63    62    1
   105   161   160   ar
   106    94    92    1
   107    88    89    1
   108    61    60    2
   109   158   160   ar
   110    64    65    2
   111    62    60   am
   112    60    59    1
   113    89    92    1
   114    89    90    1
   115     6     5    1
   116    92    93    1
   117    11     8    1
   118    11    12    1
   119     5     2    1
   120     8     7    1
   121     8     9    1
   122    36    35    2
   123    24    23    2
   124    59    58    1
   125     4     3    2
   126    90    91    2
   127    58    56   am
   128     7     3   am
   129    10     9    2
   130     3     2    1
   131    34    35    1
   132    34    33    1
   133     2     1    1
   134    23    33   am
   135    23    22    1
   136    12    13   ar
   137    12    14   ar
   138    55    56    1
   139    55    54    1
   140    56    57    2
   141    44    45    1
   142    44    43    1
   143    49    48    2
   144    13    15   ar
   145    22    25    1
   146    22    21    1
   147    14    17   ar
   148    14    16   ar
   149    17    19   ar
   150    27    29   ar
   151    27    26   ar
   152    43    42    1
   153    25    26    1
   154    54    48   am
   155    48    47    1
   156    15    16   ar
   157    29    31   ar
   158    26    28   ar
   159    16    18   ar
   160    19    20   ar
   161    42    41    1
   162    37    38    1
   163    47    50    1
   164    47    46    1
   165    41    38    1
   166    50    51    1
   167    18    20   ar
   168    31    32    1
   169    31    30   ar
   170    28    30   ar
   171    38    39    1
   172    52    51    2
   173    51    53   am
   174    39    40    2
