@<TRIPOS>MOLECULE
tmp/5qc6A00.pdb
 185 183 0 0 0
SMALL
GASTEIGER

@<TRIPOS>ATOM
      1  N         -7.0660    5.3010   -2.1170 N.3    26  SER26      -0.1202
      2  CA        -6.3320    4.2170   -1.4710 C.3    26  SER26       0.2020
      3  C         -5.1190    3.7860   -2.2910 C.2    26  SER26       0.2618
      4  O         -4.0900    3.4080   -1.7150 O.2    26  SER26      -0.2717
      5  CB        -7.2570    3.0340   -1.2120 C.3    26  SER26       0.2103
      6  OG        -7.6950    2.4460   -2.4170 O.3    26  SER26      -0.2182
      7  N         -5.2050    3.8780   -3.6250 N.am   27  TRP27      -0.1975
      8  CA        -4.0650    3.5240   -4.4700 C.3    27  TRP27       0.1640
      9  C         -2.8620    4.4030   -4.1730 C.2    27  TRP27       0.2290
     10  O         -1.7160    3.9310   -4.2130 O.2    27  TRP27      -0.2864
     11  CB        -4.4400    3.6310   -5.9450 C.3    27  TRP27       0.0576
     12  CG        -4.8240    5.0100   -6.3400 C.ar   27  TRP27       0.0006
     13  CD1       -6.0560    5.5860   -6.2050 C.ar   27  TRP27       0.0946
     14  CD2       -3.9720    6.0160   -6.9110 C.ar   27  TRP27       0.0152
     15  NE1       -6.0270    6.8800   -6.6730 N.ar   27  TRP27      -0.2442
     16  CE2       -4.7610    7.1660   -7.1130 C.ar   27  TRP27       0.0810
     17  CE3       -2.6270    6.0500   -7.2820 C.ar   27  TRP27       0.0012
     18  CZ2       -4.2500    8.3340   -7.6580 C.ar   27  TRP27       0.0191
     19  CZ3       -2.1220    7.2100   -7.8260 C.ar   27  TRP27       0.0001
     20  CH2       -2.9340    8.3410   -8.0110 C.ar   27  TRP27       0.0015
     21  N         -1.5180   10.9060  -17.7800 N.3    61  LYS61      -0.1231
     22  CA        -0.3630   10.2350  -18.3760 C.3    61  LYS61       0.1693
     23  C         -0.1220    8.8740  -17.7390 C.2    61  LYS61       0.2592
     24  O          0.5070    8.0060  -18.3570 O.2    61  LYS61      -0.2718
     25  CB         0.8930   11.1050  -18.2410 C.3    61  LYS61       0.0285
     26  CG         2.1550   10.4770  -18.8000 C.3    61  LYS61       0.0035
     27  CD         3.1670   11.5470  -19.1890 C.3    61  LYS61       0.0206
     28  CE         4.5910   11.0460  -19.0330 C.3    61  LYS61       0.1093
     29  NZ         4.6800    9.6030  -19.3540 N.3    61  LYS61      -0.1314
     30  N         -0.6390    8.6610  -16.5320 N.am   62  TYR62      -0.1962
     31  CA        -0.4330    7.4260  -15.7940 C.3    62  TYR62       0.1771
     32  C         -1.6950    6.5810  -15.6910 C.2    62  TYR62       0.2620
     33  O         -1.7250    5.6220  -14.9140 O.2    62  TYR62      -0.2715
     34  CB         0.1300    7.7710  -14.4130 C.3    62  TYR62       0.0574
     35  CG         1.4340    8.4990  -14.5860 C.ar   62  TYR62      -0.0198
     36  CD1        1.4860    9.8860  -14.5970 C.ar   62  TYR62      -0.0009
     37  CD2        2.6080    7.7960  -14.8240 C.ar   62  TYR62      -0.0009
     38  CE1        2.6930   10.5570  -14.8010 C.ar   62  TYR62       0.0417
     39  CE2        3.8060    8.4500  -15.0320 C.ar   62  TYR62       0.0417
     40  CZ         3.8470    9.8320  -15.0180 C.ar   62  TYR62       0.1957
     41  OH         5.0560   10.4660  -15.2230 O.3    62  TYR62      -0.2866
     42  N         -2.7340    6.9090  -16.4550 N.am   63  GLY63      -0.1954
     43  CA        -3.9780    6.1730  -16.3550 C.3    63  GLY63       0.1869
     44  C         -4.7120    6.3290  -15.0460 C.2    63  GLY63       0.2309
     45  O         -5.6140    5.5380  -14.7660 O.2    63  GLY63      -0.2863
     46  N         -6.9370    8.6880  -12.0640 N.3    65  LYS65      -0.1245
     47  CA        -8.0150    9.6670  -12.0180 C.3    65  LYS65       0.1561
     48  C         -8.2290   10.1990  -10.6030 C.2    65  LYS65       0.2260
     49  O         -9.3660   10.3520  -10.1480 O.2    65  LYS65      -0.2867
     50  CB        -9.3060    9.0610  -12.5690 C.3    65  LYS65       0.0271
     51  CG        -9.3020    8.8890  -14.0860 C.3    65  LYS65       0.0035
     52  CD       -10.7150    8.6450  -14.6260 C.3    65  LYS65       0.0206
     53  CE       -10.7200    8.3410  -16.1240 C.3    65  LYS65       0.1093
     54  NZ       -10.3160    9.5230  -16.9390 N.3    65  LYS65      -0.1314
     55  N        -10.9960    9.3520   -8.0900 N.3    68  ASN68      -0.1225
     56  CA       -11.7980    8.3120   -8.7220 C.3    68  ASN68       0.1785
     57  C        -11.0070    7.0440   -9.0520 C.2    68  ASN68       0.2598
     58  O        -11.4950    6.2060   -9.8180 O.2    68  ASN68      -0.2718
     59  CB       -12.4620    8.8690   -9.9760 C.3    68  ASN68       0.1169
     60  CG       -13.5460    9.8640   -9.6460 C.2    68  ASN68       0.2627
     61  OD1      -13.4940   11.0130  -10.0790 O.2    68  ASN68      -0.2716
     62  ND2      -14.5350    9.4320   -8.8710 N.am   68  ASN68      -0.0877
     63  N         -9.8170    6.8830   -8.4800 N.am   69  GLY69      -0.1942
     64  CA        -9.0650    5.6470   -8.5920 C.3    69  GLY69       0.2014
     65  C         -7.7320    5.7750   -9.3150 C.2    69  GLY69       0.2639
     66  O         -7.4700    6.7570  -10.0130 O.2    69  GLY69      -0.2714
     67  N         -6.8860    4.7690   -9.1390 N.am   70  GLY70      -0.1939
     68  CA        -5.5990    4.7640   -9.8060 C.3    70  GLY70       0.2014
     69  C         -4.8740    3.4630   -9.5280 C.2    70  GLY70       0.2639
     70  O         -5.4260    2.5470   -8.8980 O.2    70  GLY70      -0.2714
     71  N         -3.6180    3.3950   -9.9910 N.am   71  PHE71      -0.1959
     72  CA        -2.7630    2.2210   -9.8500 C.3    71  PHE71       0.1771
     73  C         -1.5260    2.5750   -9.0470 C.2    71  PHE71       0.2619
     74  O         -0.9410    3.6540   -9.2250 O.2    71  PHE71      -0.2715
     75  CB        -2.2780    1.6590  -11.2010 C.3    71  PHE71       0.0574
     76  CG        -3.3750    1.2720  -12.1440 C.ar   71  PHE71      -0.0200
     77  CD1       -3.7160    2.1020  -13.2050 C.ar   71  PHE71      -0.0042
     78  CD2       -4.0390    0.0560  -12.0010 C.ar   71  PHE71      -0.0042
     79  CE1       -4.7040    1.7390  -14.0930 C.ar   71  PHE71      -0.0003
     80  CE2       -5.0360   -0.3100  -12.8840 C.ar   71  PHE71      -0.0003
     81  CZ        -5.3650    0.5230  -13.9300 C.ar   71  PHE71      -0.0000
     82  N         -1.1110    1.6440   -8.1860 N.am   72  MET72      -0.1963
     83  CA         0.1360    1.8430   -7.4730 C.3    72  MET72       0.1736
     84  C          1.3180    1.8350   -8.4360 C.2    72  MET72       0.2617
     85  O          2.2210    2.6640   -8.3030 O.2    72  MET72      -0.2715
     86  CB         0.3020    0.7880   -6.3770 C.3    72  MET72       0.0427
     87  CG        -0.6340    0.9860   -5.1970 C.3    72  MET72       0.0599
     88  SD        -2.2700    0.2690   -5.5230 S.3    72  MET72      -0.1393
     89  CE        -1.9070   -1.4660   -5.2550 C.3    72  MET72       0.0692
     90  N          1.3020    0.9480   -9.4480 N.am   73  THR73      -0.1937
     91  CA         2.4450    0.8210  -10.3560 C.3    73  THR73       0.2028
     92  C          2.7350    2.1240  -11.1040 C.2    73  THR73       0.2642
     93  O          3.8880    2.5730  -11.1620 O.2    73  THR73      -0.2714
     94  CB         2.2180   -0.3160  -11.3510 C.3    73  THR73       0.1808
     95  OG1        0.9290   -0.1680  -11.9700 O.3    73  THR73      -0.2208
     96  CG2        2.3270   -1.6770  -10.6460 C.3    73  THR73       0.0379
     97  N          1.7090    2.7360  -11.7070 N.am   74  THR74      -0.1950
     98  CA         1.9440    3.9820  -12.4300 C.3    74  THR74       0.1897
     99  C          2.1430    5.1610  -11.4940 C.2    74  THR74       0.2313
    100  O          2.7160    6.1710  -11.9060 O.2    74  THR74      -0.2863
    101  CB         0.8060    4.2650  -13.4040 C.3    74  THR74       0.1794
    102  OG1       -0.4320    4.3790  -12.6910 O.3    74  THR74      -0.2208
    103  CG2        0.7220    3.1470  -14.4610 C.3    74  THR74       0.0378
    104  N          6.5890   -5.9340  -10.1700 N.3   116  GLU116     -0.1245
    105  CA         5.2570   -6.5090  -10.0580 C.3   116  GLU116      0.1567
    106  C          5.3900   -8.0080   -9.8350 C.2   116  GLU116      0.2260
    107  O          6.2220   -8.6580  -10.4730 O.2   116  GLU116     -0.2867
    108  CB         4.4330   -6.2210  -11.3180 C.3   116  GLU116      0.0388
    109  CG         4.2830   -4.7160  -11.6150 C.3   116  GLU116      0.1160
    110  CD         3.5430   -4.4620  -12.9030 C.2   116  GLU116      0.3649
    111  OE1        2.2950   -4.3760  -12.8670 O.co2 116  GLU116     -0.2457
    112  OE2        4.2150   -4.3660  -13.9550 O.co2 116  GLU116     -0.2457
    113  N          0.4320  -13.0450  -10.5270 N.3   119  TYR119     -0.1241
    114  CA        -0.9470  -13.1190  -10.0560 C.3   119  TYR119      0.1605
    115  C         -1.1930  -14.3320   -9.1630 C.2   119  TYR119      0.2264
    116  O         -0.8960  -15.4720   -9.5340 O.2   119  TYR119     -0.2867
    117  CB        -1.8820  -13.1420  -11.2710 C.3   119  TYR119      0.0534
    118  CG        -3.3700  -13.1100  -10.9840 C.ar  119  TYR119     -0.0201
    119  CD1       -4.0220  -14.2050  -10.4200 C.ar  119  TYR119     -0.0009
    120  CD2       -4.1200  -11.9680  -11.2590 C.ar  119  TYR119     -0.0009
    121  CE1       -5.3830  -14.1660  -10.1510 C.ar  119  TYR119      0.0417
    122  CE2       -5.4830  -11.9210  -10.9920 C.ar  119  TYR119      0.0417
    123  CZ        -6.1060  -13.0210  -10.4400 C.ar  119  TYR119      0.1957
    124  OH        -7.4490  -12.9810  -10.1760 O.3   119  TYR119     -0.2866
    125  N         -3.7310   -4.7450   -4.0970 N.3   138  GLY138     -0.1225
    126  CA        -5.1550   -4.4790   -4.1260 C.3   138  GLY138      0.1811
    127  C         -5.8900   -5.6270   -3.4570 C.2   138  GLY138      0.2280
    128  O         -5.4160   -6.7610   -3.4580 O.2   138  GLY138     -0.2866
    129  N        -11.3690  -12.5140   -6.3980 N.3   161  GLN161     -0.1231
    130  CA        -9.9810  -12.1900   -6.6890 C.3   161  GLN161      0.1698
    131  C         -9.8350  -10.9110   -7.5080 C.2   161  GLN161      0.2592
    132  O         -8.7070  -10.5150   -7.8210 O.2   161  GLN161     -0.2718
    133  CB        -9.3250  -13.3690   -7.4020 C.3   161  GLN161      0.0381
    134  CG        -9.2410  -14.6270   -6.5160 C.3   161  GLN161      0.0905
    135  CD        -8.5580  -15.7830   -7.2170 C.2   161  GLN161      0.2608
    136  OE1       -7.3280  -15.8120   -7.3710 O.2   161  GLN161     -0.2717
    137  NE2       -9.3520  -16.7720   -7.6080 N.am  161  GLN161     -0.0878
    138  N        -10.9430  -10.2690   -7.8710 N.am  162  ASN162     -0.1960
    139  CA       -10.9010   -8.9480   -8.4910 C.3   162  ASN162      0.1819
    140  C        -10.7350   -7.8750   -7.4230 C.2   162  ASN162      0.2621
    141  O        -11.5360   -7.7960   -6.4930 O.2   162  ASN162     -0.2715
    142  CB       -12.1780   -8.6750   -9.2780 C.3   162  ASN162      0.1195
    143  CG       -12.3710   -9.6510  -10.4040 C.2   162  ASN162      0.2630
    144  OD1      -11.4050  -10.0760  -11.0340 O.2   162  ASN162     -0.2716
    145  ND2      -13.6230  -10.0110  -10.6730 N.am  162  ASN162     -0.0877
    146  N         -9.7250   -7.0350   -7.5640 N.am  163  VAL163     -0.1963
    147  CA        -9.3960   -6.0550   -6.5380 C.3   163  VAL163      0.1727
    148  C        -10.0130   -4.7100   -6.8930 C.2   163  VAL163      0.2616
    149  O        -10.2780   -4.4050   -8.0670 O.2   163  VAL163     -0.2715
    150  CB        -7.8710   -5.9290   -6.3580 C.3   163  VAL163      0.0290
    151  CG1       -7.2670   -7.2910   -6.0270 C.3   163  VAL163      0.0023
    152  CG2       -7.2440   -5.3180   -7.6020 C.3   163  VAL163      0.0023
    153  N        -10.2580   -3.8950   -5.8480 N.am  164  ASN164     -0.1958
    154  CA       -10.8520   -2.5740   -6.0370 C.3   164  ASN164      0.1819
    155  C        -10.4150   -1.5630   -4.9750 C.2   164  ASN164      0.2621
    156  O        -10.9940   -0.4720   -4.9170 O.2   164  ASN164     -0.2715
    157  CB       -12.3900   -2.6920   -6.0500 C.3   164  ASN164      0.1195
    158  CG       -12.9030   -3.5630   -4.9120 C.2   164  ASN164      0.2630
    159  OD1      -12.7500   -3.2140   -3.7370 O.2   164  ASN164     -0.2716
    160  ND2      -13.4790   -4.7170   -5.2510 N.am  164  ASN164     -0.0877
    161  N         -9.4820   -1.9090   -4.0930 N.am  165  HIS165     -0.1959
    162  CA        -9.0630   -1.0540   -2.9910 C.3   165  HIS165      0.1787
    163  C         -7.5770   -1.2980   -2.7610 C.2   165  HIS165      0.2620
    164  O         -7.1500   -2.4510   -2.6330 O.2   165  HIS165     -0.2715
    165  CB        -9.8930   -1.3600   -1.7320 C.3   165  HIS165      0.0785
    166  CG        -9.5620   -0.5070   -0.5450 C.ar  165  HIS165      0.0821
    167  ND1       -9.7470    0.8590   -0.5290 N.ar  165  HIS165     -0.2267
    168  CD2       -9.1080   -0.8390    0.6880 C.ar  165  HIS165      0.1154
    169  CE1       -9.3920    1.3370    0.6520 C.ar  165  HIS165      0.1986
    170  NE2       -9.0020    0.3270    1.4100 N.ar  165  HIS165     -0.2212
    171  N         -6.7890   -0.2330   -2.7610 N.am  166  GLY166     -0.1954
    172  CA        -5.3550   -0.3550   -2.5700 C.3   166  GLY166      0.1869
    173  C         -5.0230   -0.3490   -1.0940 C.2   166  GLY166      0.2309
    174  O         -5.5350    0.4810   -0.3370 O.2   166  GLY166     -0.2863
    175  N         -2.4550   -8.4520   -7.6760 N.3   212  PHE212     -0.1241
    176  CA        -1.6350   -7.4110   -8.3050 C.3   212  PHE212      0.1605
    177  C         -0.7210   -6.7410   -7.2830 C.2   212  PHE212      0.2264
    178  O         -0.9080   -5.5700   -6.9270 O.2   212  PHE212     -0.2867
    179  CB        -2.5260   -6.3800   -9.0040 C.3   212  PHE212      0.0534
    180  CG        -3.4100   -6.9920  -10.0310 C.ar  212  PHE212     -0.0203
    181  CD1       -2.8870   -7.4000  -11.2560 C.ar  212  PHE212     -0.0042
    182  CD2       -4.7580   -7.2120   -9.7650 C.ar  212  PHE212     -0.0042
    183  CE1       -3.6980   -8.0080  -12.2120 C.ar  212  PHE212     -0.0003
    184  CE2       -5.5850   -7.8210  -10.7190 C.ar  212  PHE212     -0.0003
    185  CZ        -5.0530   -8.2140  -11.9460 C.ar  212  PHE212     -0.0000
@<TRIPOS>BOND
     1    29    28    1
     2    27    28    1
     3    27    26    1
     4    26    25    1
     5    22    25    1
     6    22    21    1
     7    22    23    1
     8    24    23    2
     9    23    30   am
    10    54    53    1
    11    30    31    1
    12    42    43    1
    13    42    32   am
    14    43    44    1
    15    53    52    1
    16    31    32    1
    17    31    34    1
    18    32    33    2
    19    41    40    1
    20    44    45    2
    21    39    40   ar
    22    39    37   ar
    23    40    38   ar
    24    37    35   ar
    25    38    36   ar
    26    52    51    1
    27    36    35   ar
    28    35    34    1
    29   103   101    1
    30    79    81   ar
    31    79    77   ar
    32    51    50    1
    33   112   110   ar
    34    81    80   ar
    35   101   102    1
    36   101    98    1
    37    77    76   ar
    38   110   111   ar
    39   110   109    1
    40    80    78   ar
    41    50    47    1
    42    98    97    1
    43    98    99    1
    44   183   185   ar
    45   183   181   ar
    46    76    78   ar
    47    76    75    1
    48    46    47    1
    49    47    48    1
    50    95    94    1
    51   185   184   ar
    52   100    99    2
    53    97    92   am
    54   109   108    1
    55    94    96    1
    56    94    91    1
    57   108   105    1
    58   117   118    1
    59   117   114    1
    60   120   122   ar
    61   120   118   ar
    62   181   180   ar
    63    75    72    1
    64    93    92    2
    65    92    91    1
    66   144   143    2
    67   122   123   ar
    68   118   119   ar
    69   184   182   ar
    70   145   143   am
    71    48    49    2
    72   113   114    1
    73   107   106    2
    74   123   124    1
    75   123   121   ar
    76   119   121   ar
    77   143   142    1
    78    91    90    1
    79   104   105    1
    80    61    60    2
    81   105   106    1
    82   114   115    1
    83   180   182   ar
    84   180   179    1
    85    66    65    2
    86    71    72    1
    87    71    69   am
    88    59    60    1
    89    59    56    1
    90    72    73    1
    91    58    57    2
    92    68    69    1
    93    68    67    1
    94    60    62   am
    95   116   115    2
    96    69    70    2
    97    90    84   am
    98    65    67   am
    99    65    64    1
   100   142   139    1
   101    74    73    2
   102    57    56    1
   103    57    63   am
   104    73    82   am
   105   179   176    1
   106    56    55    1
   107    64    63    1
   108   139   138    1
   109   139   140    1
   110    84    85    2
   111    84    83    1
   112   176   175    1
   113   176   177    1
   114    82    83    1
   115   149   148    2
   116    20    19   ar
   117    20    18   ar
   118   138   131   am
   119    19    17   ar
   120   132   131    2
   121    18    16   ar
   122   137   135   am
   123   152   150    1
   124   146   140   am
   125   146   147    1
   126   131   130    1
   127    83    86    1
   128   140   141    2
   129   133   130    1
   130   133   134    1
   131   136   135    2
   132   177   178    2
   133    17    14   ar
   134   135   134    1
   135    16    14   ar
   136    16    15   ar
   137    14    12   ar
   138   148   147    1
   139   148   153   am
   140   130   129    1
   141    15    13   ar
   142   147   150    1
   143    86    87    1
   144   150   151    1
   145    12    13   ar
   146    12    11    1
   147   157   154    1
   148   157   158    1
   149   154   153    1
   150   154   155    1
   151    11     8    1
   152    88    89    1
   153    88    87    1
   154   160   158   am
   155   155   156    2
   156   155   161   am
   157   158   159    2
   158     8     9    1
   159     8     7    1
   160    10     9    2
   161   126   125    1
   162   126   127    1
   163   161   162    1
   164     7     3   am
   165   128   127    2
   166   162   163    1
   167   162   165    1
   168   163   171   am
   169   163   164    2
   170   171   172    1
   171   172   173    1
   172     6     5    1
   173     3     4    2
   174     3     2    1
   175     1     2    1
   176   165   166    1
   177     2     5    1
   178   173   174    2
   179   166   167   ar
   180   166   168   ar
   181   167   169   ar
   182   169   170   ar
   183   168   170   ar
