@<TRIPOS>MOLECULE
tmp/5qc7B00.pdb
 165 163 0 0 0
SMALL
GASTEIGER

@<TRIPOS>ATOM
      1  N         -3.6780  -20.9700   19.9570 N.3    26  SER26      -0.1202
      2  CA        -2.9440  -20.0920   20.8590 C.3    26  SER26       0.2020
      3  C         -1.7280  -20.7910   21.4550 C.2    26  SER26       0.2618
      4  O         -0.7180  -20.1340   21.7460 O.2    26  SER26      -0.2717
      5  CB        -3.8520  -19.5670   21.9640 C.3    26  SER26       0.2103
      6  OG        -4.3630  -20.6150   22.7590 O.3    26  SER26      -0.2182
      7  N         -1.7950  -22.1130   21.6370 N.am   27  TRP27      -0.1975
      8  CA        -0.6220  -22.8510   22.1060 C.3    27  TRP27       0.1640
      9  C          0.5590  -22.6990   21.1530 C.2    27  TRP27       0.2290
     10  O          1.7200  -22.6760   21.5870 O.2    27  TRP27      -0.2864
     11  CB        -0.9630  -24.3290   22.2710 C.3    27  TRP27       0.0576
     12  CG        -1.3890  -24.9890   20.9680 C.ar   27  TRP27       0.0006
     13  CD1       -2.6300  -24.9430   20.3890 C.ar   27  TRP27       0.0946
     14  CD2       -0.5710  -25.7850   20.0990 C.ar   27  TRP27       0.0152
     15  NE1       -2.6280  -25.6510   19.2190 N.ar   27  TRP27      -0.2442
     16  CE2       -1.3780  -26.1790   19.0150 C.ar   27  TRP27       0.0810
     17  CE3        0.7700  -26.1900   20.1280 C.ar   27  TRP27       0.0012
     18  CZ2       -0.8990  -26.9780   17.9760 C.ar   27  TRP27       0.0191
     19  CZ3        1.2470  -26.9920   19.0960 C.ar   27  TRP27       0.0001
     20  CH2        0.4120  -27.3720   18.0300 C.ar   27  TRP27       0.0015
     21  N         -0.1780  -35.5680   16.4540 N.3    60  GLU60      -0.1231
     22  CA        -0.5820  -36.6050   17.4030 C.3    60  GLU60       0.1699
     23  C          0.6060  -37.1670   18.1820 C.2    60  GLU60       0.2592
     24  O          0.4900  -37.4400   19.3820 O.2    60  GLU60      -0.2718
     25  CB        -1.3370  -37.7280   16.6780 C.3    60  GLU60       0.0402
     26  CG        -0.6490  -38.3030   15.4360 C.3    60  GLU60       0.1161
     27  CD        -0.7550  -37.3930   14.1970 C.2    60  GLU60       0.3649
     28  OE1       -0.0020  -37.6260   13.2220 O.co2  60  GLU60      -0.2457
     29  OE2       -1.5830  -36.4530   14.1960 O.co2  60  GLU60      -0.2457
     30  N          1.7640  -37.3150   17.5400 N.am   61  LYS61      -0.1966
     31  CA         2.9470  -37.7750   18.2660 C.3    61  LYS61       0.1728
     32  C          3.3040  -36.8380   19.4130 C.2    61  LYS61       0.2616
     33  O          4.0180  -37.2380   20.3370 O.2    61  LYS61      -0.2715
     34  CB         4.1480  -37.9150   17.3260 C.3    61  LYS61       0.0311
     35  CG         4.0660  -39.1240   16.3720 C.3    61  LYS61       0.0038
     36  CD         4.2170  -40.4550   17.1270 C.3    61  LYS61       0.0206
     37  CE         3.0390  -41.4380   16.8990 C.3    61  LYS61       0.1093
     38  NZ         1.8160  -41.2290   17.7650 N.3    61  LYS61      -0.1314
     39  N          2.8310  -35.5970   19.3600 N.am   62  TYR62      -0.1960
     40  CA         3.1140  -34.5950   20.3730 C.3    62  TYR62       0.1771
     41  C          1.8890  -34.2830   21.2080 C.2    62  TYR62       0.2620
     42  O          1.8650  -33.2680   21.9150 O.2    62  TYR62      -0.2715
     43  CB         3.6750  -33.3370   19.7070 C.3    62  TYR62       0.0574
     44  CG         4.9840  -33.6690   19.0420 C.ar   62  TYR62      -0.0198
     45  CD1        5.0540  -34.0180   17.6860 C.ar   62  TYR62      -0.0009
     46  CD2        6.1470  -33.7100   19.7890 C.ar   62  TYR62      -0.0009
     47  CE1        6.2870  -34.3610   17.1060 C.ar   62  TYR62       0.0417
     48  CE2        7.3510  -34.0540   19.2300 C.ar   62  TYR62       0.0417
     49  CZ         7.4210  -34.3840   17.9030 C.ar   62  TYR62       0.1957
     50  OH         8.6580  -34.7040   17.3980 O.3    62  TYR62      -0.2866
     51  N          0.8690  -35.1390   21.1400 N.am   63  GLY63      -0.1954
     52  CA        -0.3540  -34.8920   21.8790 C.3    63  GLY63       0.1869
     53  C         -1.1270  -33.6670   21.4420 C.2    63  GLY63       0.2309
     54  O         -2.0290  -33.2310   22.1560 O.2    63  GLY63      -0.2863
     55  N         -3.4500  -31.2200   18.6890 N.3    65  LYS65      -0.1245
     56  CA        -4.6370  -31.4180   17.8660 C.3    65  LYS65       0.1561
     57  C         -4.8710  -30.2240   16.9430 C.2    65  LYS65       0.2260
     58  O         -6.0130  -29.9230   16.5680 O.2    65  LYS65      -0.2867
     59  CB        -5.8510  -31.6880   18.7640 C.3    65  LYS65       0.0271
     60  CG        -5.7290  -33.0130   19.5470 C.3    65  LYS65       0.0035
     61  CD        -6.8010  -33.1840   20.6260 C.3    65  LYS65       0.0206
     62  CE        -8.1800  -32.8130   20.1250 C.3    65  LYS65       0.1093
     63  NZ        -9.0380  -32.2870   21.2380 N.3    65  LYS65      -0.1314
     64  N         -7.6140  -27.5920   17.2130 N.3    68  ASN68      -0.1225
     65  CA        -8.3550  -27.9530   18.4130 C.3    68  ASN68       0.1785
     66  C         -7.4830  -27.9990   19.6640 C.2    68  ASN68       0.2598
     67  O         -7.9160  -28.5450   20.6830 O.2    68  ASN68      -0.2718
     68  CB        -9.0970  -29.2710   18.2120 C.3    68  ASN68       0.1169
     69  CG       -10.2820  -29.1100   17.3020 C.2    68  ASN68       0.2627
     70  OD1      -10.2670  -29.5540   16.1590 O.2    68  ASN68      -0.2716
     71  ND2      -11.3180  -28.4510   17.8030 N.am   68  ASN68      -0.0877
     72  N         -6.2810  -27.4350   19.6180 N.am   69  GLY69      -0.1942
     73  CA        -5.5330  -27.2330   20.8430 C.3    69  GLY69       0.2014
     74  C         -4.2520  -28.0560   20.9050 C.2    69  GLY69       0.2639
     75  O         -4.0610  -29.0350   20.1770 O.2    69  GLY69      -0.2714
     76  N         -3.3670  -27.6430   21.8110 N.am   70  GLY70      -0.1939
     77  CA        -2.0830  -28.3000   21.9700 C.3    70  GLY70       0.2014
     78  C         -1.3530  -27.7640   23.1840 C.2    70  GLY70       0.2639
     79  O         -1.8620  -26.9130   23.9170 O.2    70  GLY70      -0.2714
     80  N         -0.1500  -28.2880   23.3900 N.am   71  PHE71      -0.1959
     81  CA         0.7420  -27.8770   24.4660 C.3    71  PHE71       0.1771
     82  C          1.9360  -27.1220   23.9080 C.2    71  PHE71       0.2619
     83  O          2.5020  -27.5080   22.8790 O.2    71  PHE71      -0.2715
     84  CB         1.2940  -29.0750   25.2390 C.3    71  PHE71       0.0574
     85  CG         0.2510  -29.9530   25.8590 C.ar   71  PHE71      -0.0200
     86  CD1       -0.0920  -31.1680   25.2710 C.ar   71  PHE71      -0.0042
     87  CD2       -0.3480  -29.5940   27.0600 C.ar   71  PHE71      -0.0042
     88  CE1       -1.0380  -32.0030   25.8660 C.ar   71  PHE71      -0.0003
     89  CE2       -1.2860  -30.4180   27.6650 C.ar   71  PHE71      -0.0003
     90  CZ        -1.6360  -31.6250   27.0660 C.ar   71  PHE71      -0.0000
     91  N          2.3720  -26.0970   24.6420 N.am   72  MET72      -0.1963
     92  CA         3.6100  -25.4220   24.2800 C.3    72  MET72       0.1736
     93  C          4.8090  -26.3380   24.4850 C.2    72  MET72       0.2617
     94  O          5.7600  -26.2890   23.7060 O.2    72  MET72      -0.2715
     95  CB         3.7760  -24.1330   25.0940 C.3    72  MET72       0.0427
     96  CG         2.7640  -23.0470   24.7500 C.3    72  MET72       0.0599
     97  SD         1.2190  -23.2120   25.6860 S.3    72  MET72      -0.1393
     98  CE         1.6720  -22.5180   27.2790 C.3    72  MET72       0.0692
     99  N          4.7880  -27.1770   25.5290 N.am   73  THR73      -0.1937
    100  CA         5.9580  -28.0070   25.8160 C.3    73  THR73       0.2028
    101  C          6.2220  -28.9890   24.6880 C.2    73  THR73       0.2642
    102  O          7.3740  -29.1770   24.2710 O.2    73  THR73      -0.2714
    103  CB         5.7940  -28.7670   27.1300 C.3    73  THR73       0.1808
    104  OG1        4.5940  -29.5400   27.0680 O.3    73  THR73      -0.2208
    105  CG2        5.7880  -27.8010   28.3450 C.3    73  THR73       0.0379
    106  N          5.1710  -29.6480   24.1960 N.am   74  THR74      -0.1950
    107  CA         5.3750  -30.6050   23.1100 C.3    74  THR74       0.1897
    108  C          5.6340  -29.9110   21.7800 C.2    74  THR74       0.2313
    109  O          6.2380  -30.5130   20.8810 O.2    74  THR74      -0.2863
    110  CB         4.1860  -31.5620   23.0170 C.3    74  THR74       0.1794
    111  OG1        3.0090  -30.8560   22.5760 O.3    74  THR74      -0.2208
    112  CG2        3.9190  -32.1940   24.4030 C.3    74  THR74       0.0378
    113  N         10.1450  -26.3290   32.4200 N.3   116  GLU116     -0.1245
    114  CA         8.8200  -26.1170   32.9770 C.3   116  GLU116      0.1567
    115  C          8.9440  -25.5620   34.3900 C.2   116  GLU116      0.2260
    116  O          9.8270  -25.9670   35.1520 O.2   116  GLU116     -0.2867
    117  CB         7.9870  -27.4060   32.9690 C.3   116  GLU116      0.0388
    118  CG         7.6870  -27.9400   31.5580 C.3   116  GLU116      0.1160
    119  CD         6.9500  -29.2600   31.5920 C.2   116  GLU116      0.3649
    120  OE1        5.6980  -29.2510   31.7120 O.co2 116  GLU116     -0.2457
    121  OE2        7.6240  -30.3070   31.5080 O.co2 116  GLU116     -0.2457
    122  N         -0.4060  -20.6920   30.0990 N.3   138  GLY138     -0.1225
    123  CA        -1.8300  -20.7650   29.8380 C.3   138  GLY138      0.1811
    124  C         -2.5570  -19.8560   30.8080 C.2   138  GLY138      0.2280
    125  O         -2.0790  -19.6090   31.9210 O.2   138  GLY138     -0.2866
    126  N         -6.3120  -23.6200   33.1200 N.3   163  VAL163     -0.1231
    127  CA        -6.0390  -22.8140   31.9390 C.3   163  VAL163      0.1692
    128  C         -6.6740  -23.4500   30.7090 C.2   163  VAL163      0.2592
    129  O         -6.9600  -24.6550   30.6580 O.2   163  VAL163     -0.2718
    130  CB        -4.5240  -22.6190   31.7320 C.3   163  VAL163      0.0266
    131  CG1       -3.8870  -22.0730   33.0080 C.3   163  VAL163      0.0020
    132  CG2       -3.8550  -23.9520   31.2910 C.3   163  VAL163      0.0020
    133  N         -6.8690  -22.6240   29.6910 N.am  164  ASN164     -0.1960
    134  CA        -7.4790  -23.0880   28.4550 C.3   164  ASN164      0.1819
    135  C         -7.0410  -22.2780   27.2470 C.2   164  ASN164      0.2621
    136  O         -7.5520  -22.5230   26.1500 O.2   164  ASN164     -0.2715
    137  CB        -9.0100  -23.0340   28.5800 C.3   164  ASN164      0.1195
    138  CG        -9.4950  -21.7160   29.1550 C.2   164  ASN164      0.2630
    139  OD1       -9.3500  -20.6640   28.5300 O.2   164  ASN164     -0.2716
    140  ND2      -10.0840  -21.7650   30.3590 N.am  164  ASN164     -0.0877
    141  N         -6.1440  -21.3110   27.4080 N.am  165  HIS165     -0.1959
    142  CA        -5.7390  -20.4250   26.3240 C.3   165  HIS165      0.1787
    143  C         -4.2520  -20.1360   26.4770 C.2   165  HIS165      0.2620
    144  O         -3.8100  -19.7320   27.5560 O.2   165  HIS165     -0.2715
    145  CB        -6.5600  -19.1320   26.3750 C.3   165  HIS165      0.0785
    146  CG        -6.2590  -18.1700   25.2720 C.ar  165  HIS165      0.0821
    147  ND1       -6.4800  -18.4690   23.9460 N.ar  165  HIS165     -0.2267
    148  CD2       -5.7800  -16.9040   25.3000 C.ar  165  HIS165      0.1154
    149  CE1       -6.1400  -17.4320   23.2010 C.ar  165  HIS165      0.1986
    150  NE2       -5.7120  -16.4680   23.9980 N.ar  165  HIS165     -0.2212
    151  N         -3.4810  -20.3800   25.4230 N.am  166  GLY166     -0.1954
    152  CA        -2.0530  -20.1270   25.4800 C.3   166  GLY166      0.1869
    153  C         -1.7550  -18.6590   25.2190 C.2   166  GLY166      0.2309
    154  O         -2.3640  -18.0210   24.3590 O.2   166  GLY166     -0.2863
    155  N          1.0900  -23.3660   34.4320 N.3   212  PHE212     -0.1241
    156  CA         1.9060  -24.1730   33.5190 C.3   212  PHE212      0.1605
    157  C          2.8120  -23.2880   32.6830 C.2   212  PHE212      0.2264
    158  O          2.6130  -23.1370   31.4730 O.2   212  PHE212     -0.2867
    159  CB         1.0250  -25.0490   32.6280 C.3   212  PHE212      0.0534
    160  CG         0.3010  -26.1230   33.3830 C.ar  212  PHE212     -0.0203
    161  CD1        1.0120  -27.1050   34.0380 C.ar  212  PHE212     -0.0042
    162  CD2       -1.0800  -26.1290   33.4670 C.ar  212  PHE212     -0.0042
    163  CE1        0.3670  -28.0900   34.7410 C.ar  212  PHE212     -0.0003
    164  CE2       -1.7290  -27.1220   34.1780 C.ar  212  PHE212     -0.0003
    165  CZ        -1.0000  -28.1000   34.8160 C.ar  212  PHE212     -0.0000
@<TRIPOS>BOND
     1    28    27   ar
     2    29    27   ar
     3    27    26    1
     4    26    25    1
     5    70    69    2
     6    35    36    1
     7    35    34    1
     8    21    22    1
     9    58    57    2
    10    25    22    1
    11    37    36    1
    12    37    38    1
    13    57    56    1
    14    47    45   ar
    15    47    49   ar
    16    64    65    1
    17    69    71   am
    18    69    68    1
    19    34    31    1
    20    50    49    1
    21    22    23    1
    22    30    23   am
    23    30    31    1
    24    45    44   ar
    25    56    55    1
    26    56    59    1
    27    49    48   ar
    28    18    20   ar
    29    18    16   ar
    30    20    19   ar
    31    23    24    2
    32    68    65    1
    33    31    32    1
    34    65    66    1
    35    59    60    1
    36    16    15   ar
    37    16    14   ar
    38    44    43    1
    39    44    46   ar
    40    19    17   ar
    41    15    13   ar
    42    48    46   ar
    43    39    32   am
    44    39    40    1
    45    32    33    2
    46    60    61    1
    47    72    66   am
    48    72    73    1
    49    66    67    2
    50    43    40    1
    51     1     2    1
    52    14    17   ar
    53    14    12   ar
    54    62    61    1
    55    62    63    1
    56    75    74    2
    57    40    41    1
    58    13    12   ar
    59    73    74    1
    60     2     3    1
    61     2     5    1
    62   109   108    2
    63    74    76   am
    64    12    11    1
    65    51    41   am
    66    51    52    1
    67     9    10    2
    68     9     8    1
    69    41    42    2
    70    53    52    1
    71    53    54    2
    72     3     7   am
    73     3     4    2
    74     7     8    1
    75   108   107    1
    76    76    77    1
    77     5     6    1
    78    77    78    1
    79     8    11    1
    80   111   110    1
    81    83    82    2
    82   110   107    1
    83   110   112    1
    84   107   106    1
    85    78    80   am
    86    78    79    2
    87   149   147   ar
    88   149   150   ar
    89    80    81    1
    90    94    93    2
    91    82    81    1
    92    82    91   am
    93   147   146   ar
    94   150   148   ar
    95   106   101   am
    96   102   101    2
    97    92    93    1
    98    92    91    1
    99    92    95    1
   100   154   153    2
   101    81    84    1
   102    93    99   am
   103   101   100    1
   104    96    95    1
   105    96    97    1
   106   153   152    1
   107    84    85    1
   108    86    85   ar
   109    86    88   ar
   110   146   148   ar
   111   146   145    1
   112   151   152    1
   113   151   143   am
   114    99   100    1
   115    97    98    1
   116   100   103    1
   117    85    87   ar
   118    88    90   ar
   119   136   135    2
   120   142   145    1
   121   142   143    1
   122   142   141    1
   123   143   144    2
   124    87    89   ar
   125    90    89   ar
   126   104   103    1
   127   103   105    1
   128   135   141   am
   129   135   134    1
   130   134   137    1
   131   134   133    1
   132   139   138    2
   133   137   138    1
   134   138   140   am
   135   133   128   am
   136   123   122    1
   137   123   124    1
   138   129   128    2
   139   128   127    1
   140   124   125    2
   141   132   130    1
   142   158   157    2
   143   121   119   ar
   144   118   119    1
   145   118   117    1
   146   119   120   ar
   147   130   127    1
   148   130   131    1
   149   127   126    1
   150   113   114    1
   151   159   160    1
   152   159   156    1
   153   157   156    1
   154   117   114    1
   155   114   115    1
   156   160   162   ar
   157   160   161   ar
   158   162   164   ar
   159   156   155    1
   160   161   163   ar
   161   164   165   ar
   162   115   116    2
   163   163   165   ar
