@<TRIPOS>MOLECULE
tmp/5qc9A00.pdb
 155 152 0 0 0
SMALL
GASTEIGER

@<TRIPOS>ATOM
      1  N         -7.0690   -5.6020    1.6340 N.3    26  SER26      -0.1202
      2  CA        -6.3460   -4.4440    1.1120 C.3    26  SER26       0.2020
      3  C         -5.1250   -4.1130    1.9680 C.2    26  SER26       0.2618
      4  O         -4.1070   -3.6400    1.4420 O.2    26  SER26      -0.2717
      5  CB        -7.2910   -3.2420    0.9950 C.3    26  SER26       0.2103
      6  OG        -7.7930   -2.8140    2.2570 O.3    26  SER26      -0.2182
      7  N         -5.2000   -4.3700    3.2820 N.am   27  TRP27      -0.1975
      8  CA        -4.0380   -4.1910    4.1500 C.3    27  TRP27       0.1640
      9  C         -2.8630   -5.0420    3.6810 C.2    27  TRP27       0.2290
     10  O         -1.7090   -4.5910    3.7030 O.2    27  TRP27      -0.2864
     11  CB        -4.4020   -4.5390    5.5980 C.3    27  TRP27       0.0576
     12  CG        -4.8360   -5.9710    5.7820 C.ar   27  TRP27       0.0006
     13  CD1       -6.0790   -6.4820    5.5710 C.ar   27  TRP27       0.0946
     14  CD2       -4.0190   -7.0690    6.2150 C.ar   27  TRP27       0.0152
     15  NE1       -6.0920   -7.8330    5.8340 N.ar   27  TRP27      -0.2442
     16  CE2       -4.8390   -8.2150    6.2380 C.ar   27  TRP27       0.0810
     17  CE3       -2.6730   -7.1900    6.5840 C.ar   27  TRP27       0.0012
     18  CZ2       -4.3630   -9.4670    6.6230 C.ar   27  TRP27       0.0191
     19  CZ3       -2.1930   -8.4380    6.9620 C.ar   27  TRP27       0.0001
     20  CH2       -3.0380   -9.5610    6.9760 C.ar   27  TRP27       0.0015
     21  N         -2.7030   -9.0860   15.4480 N.3    63  GLY63      -0.1225
     22  CA        -3.9440   -8.3410   15.4360 C.3    63  GLY63       0.1811
     23  C         -4.6800   -8.3550   14.1150 C.2    63  GLY63       0.2280
     24  O         -5.5960   -7.5570   13.9140 O.2    63  GLY63      -0.2866
     25  N         -6.9700  -10.1510   10.9120 N.3    65  LYS65      -0.1245
     26  CA        -8.1410  -11.0120   10.7900 C.3    65  LYS65       0.1561
     27  C         -8.3410  -11.4740    9.3460 C.2    65  LYS65       0.2260
     28  O         -9.4780  -11.6660    8.9010 O.2    65  LYS65      -0.2867
     29  CB        -9.3880  -10.2890   11.3060 C.3    65  LYS65       0.0271
     30  CG        -9.1960   -9.6150   12.6750 C.3    65  LYS65       0.0035
     31  CD       -10.5250   -9.1160   13.2740 C.3    65  LYS65       0.0206
     32  CE       -11.3590   -8.3350   12.2560 C.3    65  LYS65       0.1093
     33  NZ       -12.6690   -7.8760   12.8180 N.3    65  LYS65      -0.1314
     34  N        -11.0270  -10.4170    6.9020 N.3    68  ASN68      -0.1225
     35  CA       -11.8220   -9.4580    7.6510 C.3    68  ASN68       0.1785
     36  C        -11.0250   -8.2380    8.1080 C.2    68  ASN68       0.2598
     37  O        -11.5210   -7.4690    8.9310 O.2    68  ASN68      -0.2718
     38  CB       -12.4900  -10.1450    8.8430 C.3    68  ASN68       0.1169
     39  CG       -13.6130  -11.0780    8.4170 C.2    68  ASN68       0.2627
     40  OD1      -13.6070  -12.2670    8.7370 O.2    68  ASN68      -0.2716
     41  ND2      -14.5830  -10.5390    7.6920 N.am   68  ASN68      -0.0877
     42  N         -9.8260   -8.0190    7.5850 N.am   69  GLY69      -0.1942
     43  CA        -9.1060   -6.7860    7.8390 C.3    69  GLY69       0.2014
     44  C         -7.7990   -7.0090    8.5840 C.2    69  GLY69       0.2639
     45  O         -7.5070   -8.0910    9.0890 O.2    69  GLY69      -0.2714
     46  N         -7.0110   -5.9370    8.6350 N.am   70  GLY70      -0.1939
     47  CA        -5.6880   -6.0160    9.2280 C.3    70  GLY70       0.2014
     48  C         -4.9410   -4.7050    9.0850 C.2    70  GLY70       0.2639
     49  O         -5.4910   -3.7020    8.6340 O.2    70  GLY70      -0.2714
     50  N         -3.6730   -4.7290    9.4960 N.am   71  PHE71      -0.1959
     51  CA        -2.7960   -3.5650    9.5100 C.3    71  PHE71       0.1771
     52  C         -1.5400   -3.8220    8.6840 C.2    71  PHE71       0.2619
     53  O         -0.9830   -4.9250    8.7080 O.2    71  PHE71      -0.2715
     54  CB        -2.3690   -3.2080   10.9420 C.3    71  PHE71       0.0574
     55  CG        -3.5200   -2.9900   11.8860 C.ar   71  PHE71      -0.0200
     56  CD1       -3.9960   -4.0310   12.6710 C.ar   71  PHE71      -0.0042
     57  CD2       -4.1170   -1.7430   11.9950 C.ar   71  PHE71      -0.0042
     58  CE1       -5.0610   -3.8290   13.5540 C.ar   71  PHE71      -0.0003
     59  CE2       -5.1750   -1.5300   12.8730 C.ar   71  PHE71      -0.0003
     60  CZ        -5.6470   -2.5790   13.6540 C.ar   71  PHE71      -0.0000
     61  N         -1.0660   -2.7830    7.9880 N.am   72  MET72      -0.1963
     62  CA         0.1820   -2.9230    7.2440 C.3    72  MET72       0.1736
     63  C          1.3730   -3.0330    8.1880 C.2    72  MET72       0.2617
     64  O          2.2840   -3.8290    7.9520 O.2    72  MET72      -0.2715
     65  CB         0.3630   -1.7430    6.2830 C.3    72  MET72       0.0427
     66  CG        -0.6520   -1.7280    5.1240 C.3    72  MET72       0.0599
     67  SD        -2.2470   -0.9780    5.5240 S.3    72  MET72      -0.1393
     68  CE        -1.8040    0.7740    5.5330 C.3    72  MET72       0.0692
     69  N          1.3660   -2.2740    9.2870 N.am   73  THR73      -0.1937
     70  CA         2.5140   -2.2820   10.1850 C.3    73  THR73       0.2028
     71  C          2.7430   -3.6670   10.7720 C.2    73  THR73       0.2642
     72  O          3.8740   -4.1660   10.7870 O.2    73  THR73      -0.2714
     73  CB         2.3140   -1.2590   11.2980 C.3    73  THR73       0.1808
     74  OG1        1.0650   -1.5290   11.9430 O.3    73  THR73      -0.2208
     75  CG2        2.3270    0.1690   10.7410 C.3    73  THR73       0.0379
     76  N          1.6770   -4.3150   11.2540 N.am   74  THR74      -0.1950
     77  CA         1.8620   -5.6510   11.8140 C.3    74  THR74       0.1897
     78  C          2.1040   -6.6930   10.7300 C.2    74  THR74       0.2313
     79  O          2.6970   -7.7420   11.0120 O.2    74  THR74      -0.2863
     80  CB         0.6740   -6.0270   12.7020 C.3    74  THR74       0.1794
     81  OG1       -0.5320   -6.0930   11.9270 O.3    74  THR74      -0.2208
     82  CG2        0.5100   -4.9650   13.8020 C.3    74  THR74       0.0378
     83  N          6.7370    4.3950   10.9490 N.3   116  GLU116     -0.1245
     84  CA         5.4150    5.0080   10.9200 C.3   116  GLU116      0.1567
     85  C          5.5460    6.5250   10.8680 C.2   116  GLU116      0.2260
     86  O          6.3920    7.1080   11.5480 O.2   116  GLU116     -0.2867
     87  CB         4.5920    4.5940   12.1430 C.3   116  GLU116      0.0388
     88  CG         4.3340    3.0860   12.2260 C.3   116  GLU116      0.1160
     89  CD         3.5300    2.6950   13.4560 C.2   116  GLU116      0.3649
     90  OE1        2.2970    2.5560   13.3340 O.co2 116  GLU116     -0.2457
     91  OE2        4.1220    2.5530   14.5490 O.co2 116  GLU116     -0.2457
     92  N          0.5390   11.2810   12.2120 N.3   119  TYR119     -0.1241
     93  CA        -0.8340   11.3970   11.7230 C.3   119  TYR119      0.1605
     94  C         -1.1010   12.7690   11.1160 C.2   119  TYR119      0.2264
     95  O         -0.8990   13.7960   11.7650 O.2   119  TYR119     -0.2867
     96  CB        -1.7930   11.1640   12.8910 C.3   119  TYR119      0.0534
     97  CG        -3.2760   11.0580   12.5630 C.ar  119  TYR119     -0.0201
     98  CD1       -4.0000   12.1540   12.1050 C.ar  119  TYR119     -0.0009
     99  CD2       -3.9730    9.8860   12.8400 C.ar  119  TYR119     -0.0009
    100  CE1       -5.3630   12.0570   11.8450 C.ar  119  TYR119      0.0417
    101  CE2       -5.3360    9.7850   12.6060 C.ar  119  TYR119      0.0417
    102  CZ        -6.0210   10.8700   12.1100 C.ar  119  TYR119      0.1957
    103  OH        -7.3700   10.7620   11.8770 O.3   119  TYR119     -0.2866
    104  N         -3.7590    4.1000    4.8450 N.3   138  GLY138     -0.1225
    105  CA        -5.1800    3.8010    4.8260 C.3   138  GLY138      0.1811
    106  C         -5.9290    5.0250    4.3330 C.2   138  GLY138      0.2280
    107  O         -5.4610    6.1570    4.4940 O.2   138  GLY138     -0.2866
    108  N        -10.9640    8.8790    9.2400 N.3   162  ASN162     -0.1225
    109  CA       -10.9660    7.5210    9.7870 C.3   162  ASN162      0.1785
    110  C        -10.8080    6.5270    8.6390 C.2   162  ASN162      0.2597
    111  O        -11.7310    6.3440    7.8400 O.2   162  ASN162     -0.2718
    112  CB       -12.2570    7.2300   10.5550 C.3   162  ASN162      0.1169
    113  CG       -12.4790    8.1670   11.7150 C.2   162  ASN162      0.2627
    114  OD1      -11.5640    8.4440   12.4890 O.2   162  ASN162     -0.2716
    115  ND2      -13.6990    8.6780   11.8320 N.am  162  ASN162     -0.0877
    116  N         -9.6660    5.8420    8.5950 N.am  163  VAL163     -0.1966
    117  CA        -9.3240    4.9840    7.4680 C.3   163  VAL163      0.1727
    118  C         -9.9850    3.6220    7.6240 C.2   163  VAL163      0.2616
    119  O        -10.2480    3.1420    8.7320 O.2   163  VAL163     -0.2715
    120  CB        -7.7930    4.8510    7.3350 C.3   163  VAL163      0.0290
    121  CG1       -7.1490    6.2370    7.2070 C.3   163  VAL163      0.0023
    122  CG2       -7.2110    4.0890    8.5340 C.3   163  VAL163      0.0023
    123  N        -10.2170    2.9750    6.5000 N.am  164  ASN164     -0.1958
    124  CA       -10.8260    1.6560    6.5270 C.3   164  ASN164      0.1819
    125  C        -10.4000    0.7890    5.3520 C.2   164  ASN164      0.2621
    126  O        -10.8940   -0.3330    5.2320 O.2   164  ASN164     -0.2715
    127  CB       -12.3610    1.8010    6.5600 C.3   164  ASN164      0.1195
    128  CG       -12.8720    2.7510    5.5090 C.2   164  ASN164      0.2630
    129  OD1      -12.7180    2.5020    4.3140 O.2   164  ASN164     -0.2716
    130  ND2      -13.4890    3.8520    5.9450 N.am  164  ASN164     -0.0877
    131  N         -9.5000    1.2610    4.4920 N.am  165  HIS165     -0.1959
    132  CA        -9.0890    0.5560    3.2850 C.3   165  HIS165      0.1787
    133  C         -7.6080    0.8370    3.0830 C.2   165  HIS165      0.2620
    134  O         -7.2050    2.0010    3.0450 O.2   165  HIS165     -0.2715
    135  CB        -9.9080    1.0540    2.0880 C.3   165  HIS165      0.0785
    136  CG        -9.6060    0.3580    0.7990 C.ar  165  HIS165      0.0821
    137  ND1       -9.8260   -0.9890    0.6100 N.ar  165  HIS165     -0.2267
    138  CD2       -9.1290    0.8320   -0.3780 C.ar  165  HIS165      0.1154
    139  CE1       -9.4910   -1.3170   -0.6260 C.ar  165  HIS165      0.1986
    140  NE2       -9.0620   -0.2310   -1.2450 N.ar  165  HIS165     -0.2212
    141  N         -6.7900   -0.2040    2.9730 N.am  166  GLY166     -0.1954
    142  CA        -5.3580   -0.0160    2.7750 C.3   166  GLY166      0.1869
    143  C         -5.0480    0.1600    1.2980 C.2   166  GLY166      0.2309
    144  O         -5.5640   -0.5700    0.4610 O.2   166  GLY166     -0.2863
    145  N         -2.3910    7.2490    8.8570 N.3   212  PHE212     -0.1241
    146  CA        -1.5390    6.1440    9.3120 C.3   212  PHE212      0.1605
    147  C         -0.6470    5.6440    8.1870 C.2   212  PHE212      0.2264
    148  O         -0.8670    4.5610    7.6310 O.2   212  PHE212     -0.2867
    149  CB        -2.3940    5.0090    9.8780 C.3   212  PHE212      0.0534
    150  CG        -3.0870    5.3850   11.1510 C.ar  212  PHE212     -0.0203
    151  CD1       -2.3530    5.5380   12.3210 C.ar  212  PHE212     -0.0042
    152  CD2       -4.4400    5.6660   11.1660 C.ar  212  PHE212     -0.0042
    153  CE1       -2.9690    5.9240   13.4970 C.ar  212  PHE212     -0.0003
    154  CE2       -5.0660    6.0450   12.3490 C.ar  212  PHE212     -0.0003
    155  CZ        -4.3270    6.1730   13.5080 C.ar  212  PHE212     -0.0000
@<TRIPOS>BOND
     1   140   139   ar
     2   140   138   ar
     3   139   137   ar
     4   138   136   ar
     5   144   143    2
     6   137   136   ar
     7   136   135    1
     8     5     2    1
     9     5     6    1
    10     2     1    1
    11     2     3    1
    12   143   142    1
    13     4     3    2
    14     3     7   am
    15   135   132    1
    16   142   141    1
    17   141   133   am
    18   134   133    2
    19   133   132    1
    20     7     8    1
    21   132   131    1
    22     9    10    2
    23     9     8    1
    24     8    11    1
    25   129   128    2
    26   106   107    2
    27   106   105    1
    28   131   125   am
    29   105   104    1
    30    66    67    1
    31    66    65    1
    32   126   125    2
    33   125   124    1
    34   128   130   am
    35   128   127    1
    36    67    68    1
    37    13    12   ar
    38    13    15   ar
    39    11    12    1
    40    12    14   ar
    41    15    16   ar
    42    14    16   ar
    43    14    17   ar
    44    16    18   ar
    45    65    62    1
    46   123   124    1
    47   123   118   am
    48   124   127    1
    49    17    19   ar
    50    18    20   ar
    51    34    35    1
    52    19    20   ar
    53   121   120    1
    54    62    61    1
    55    62    63    1
    56   120   117    1
    57   120   122    1
    58   117   118    1
    59   117   116    1
    60    42    43    1
    61    42    36   am
    62   118   119    2
    63   148   147    2
    64    35    36    1
    65    35    38    1
    66    41    39   am
    67    43    44    1
    68   111   110    2
    69    64    63    2
    70    61    52   am
    71    36    37    2
    72   147   146    1
    73    63    69   am
    74    39    40    2
    75    39    38    1
    76    44    46   am
    77    44    45    2
    78   116   110   am
    79    49    48    2
    80    46    47    1
    81   110   109    1
    82    52    53    2
    83    52    51    1
    84   145   146    1
    85    28    27    2
    86    48    47    1
    87    48    50   am
    88   108   109    1
    89    69    70    1
    90   146   149    1
    91    27    26    1
    92    50    51    1
    93    51    54    1
    94   109   112    1
    95   149   150    1
    96    70    71    1
    97    70    73    1
    98   112   113    1
    99    78    79    2
   100    78    77    1
   101    75    73    1
   102    71    72    2
   103    71    76   am
   104    26    25    1
   105    26    29    1
   106    85    84    1
   107    85    86    2
   108    84    83    1
   109    84    87    1
   110    54    55    1
   111    94    93    1
   112    94    95    2
   113   150   152   ar
   114   150   151   ar
   115   152   154   ar
   116    76    77    1
   117    73    74    1
   118    29    30    1
   119   113   115   am
   120   113   114    2
   121    93    92    1
   122    93    96    1
   123    77    80    1
   124   100    98   ar
   125   100   102   ar
   126   103   102    1
   127    55    57   ar
   128    55    56   ar
   129    81    80    1
   130    57    59   ar
   131    98    97   ar
   132   102   101   ar
   133    87    88    1
   134    88    89    1
   135    32    33    1
   136    32    31    1
   137   151   153   ar
   138   154   155   ar
   139    97    99   ar
   140    97    96    1
   141   101    99   ar
   142    56    58   ar
   143    30    31    1
   144    80    82    1
   145    59    60   ar
   146    90    89   ar
   147    89    91   ar
   148   153   155   ar
   149    58    60   ar
   150    24    23    2
   151    23    22    1
   152    22    21    1
