@<TRIPOS>MOLECULE
tmp/5qcaB00.pdb
 213 210 0 0 0
SMALL
GASTEIGER

@<TRIPOS>ATOM
      1  N          9.8810   13.7780   27.1220 N.3    24  GLY24      -0.1225
      2  CA         9.4420   12.4450   27.5120 C.3    24  GLY24       0.1811
      3  C          9.3900   11.5030   26.3270 C.2    24  GLY24       0.2280
      4  O          8.3150   11.0050   25.9680 O.2    24  GLY24      -0.2866
      5  N         11.2720    8.6120   26.0690 N.3    26  SER26      -0.1202
      6  CA        11.8360    7.3010   26.4090 C.3    26  SER26       0.2020
      7  C         11.2830    6.1820   25.5150 C.2    26  SER26       0.2618
      8  O         11.9980    5.2590   25.1520 O.2    26  SER26      -0.2717
      9  CB        11.6110    6.9620   27.8930 C.3    26  SER26       0.2103
     10  OG        10.2360    6.7150   28.1840 O.3    26  SER26      -0.2182
     11  N          9.9990    6.2790   25.1860 N.am   27  TRP27      -0.1975
     12  CA         9.3560    5.3680   24.2360 C.3    27  TRP27       0.1640
     13  C         10.0610    5.3300   22.8620 C.2    27  TRP27       0.2290
     14  O         10.2250    4.2590   22.2610 O.2    27  TRP27      -0.2864
     15  CB         7.8750    5.7300   24.0820 C.3    27  TRP27       0.0576
     16  CG         7.6320    7.0870   23.4780 C.ar   27  TRP27       0.0006
     17  CD1        7.5830    8.2740   24.1220 C.ar   27  TRP27       0.0946
     18  CD2        7.4280    7.3720   22.0910 C.ar   27  TRP27       0.0152
     19  NE1        7.3620    9.2880   23.2310 N.ar   27  TRP27      -0.2442
     20  CE2        7.2600    8.7590   21.9730 C.ar   27  TRP27       0.0810
     21  CE3        7.3770    6.5800   20.9360 C.ar   27  TRP27       0.0012
     22  CZ2        7.0580    9.3880   20.7460 C.ar   27  TRP27       0.0191
     23  CZ3        7.1660    7.1990   19.7130 C.ar   27  TRP27       0.0001
     24  CH2        7.0000    8.5960   19.6290 C.ar   27  TRP27       0.0015
     25  N         -1.8910    9.7300   15.0510 N.3    61  LYS61      -0.1231
     26  CA        -2.3230    8.5260   14.3510 C.3    61  LYS61       0.1693
     27  C         -1.8350    7.2490   15.0500 C.2    61  LYS61       0.2592
     28  O         -2.4700    6.2100   14.9240 O.2    61  LYS61      -0.2718
     29  CB        -1.8320    8.5920   12.8950 C.3    61  LYS61       0.0285
     30  CG        -2.0680    7.3550   12.0510 C.3    61  LYS61       0.0035
     31  CD        -1.6550    7.6110   10.6150 C.3    61  LYS61       0.0206
     32  CE        -1.7850    6.3440    9.7880 C.3    61  LYS61       0.1093
     33  NZ        -1.0050    6.4690    8.5270 N.3    61  LYS61      -0.1314
     34  N         -0.7100    7.3350   15.7680 N.am   62  TYR62      -0.1962
     35  CA        -0.1040    6.1910   16.4760 C.3    62  TYR62       0.1771
     36  C         -0.2820    6.2480   17.9990 C.2    62  TYR62       0.2620
     37  O          0.3670    5.5100   18.7370 O.2    62  TYR62      -0.2715
     38  CB         1.3750    6.1140   16.0770 C.3    62  TYR62       0.0574
     39  CG         1.5110    5.8310   14.5980 C.ar   62  TYR62      -0.0198
     40  CD1        1.6980    6.8680   13.6650 C.ar   62  TYR62      -0.0009
     41  CD2        1.3690    4.5350   14.1190 C.ar   62  TYR62      -0.0009
     42  CE1        1.7750    6.5940   12.3010 C.ar   62  TYR62       0.0417
     43  CE2        1.4490    4.2600   12.7600 C.ar   62  TYR62       0.0417
     44  CZ         1.6470    5.2880   11.8550 C.ar   62  TYR62       0.1957
     45  OH         1.7360    4.9730   10.5230 O.3    62  TYR62      -0.2866
     46  N         -1.1830    7.1170   18.4620 N.am   63  GLY63      -0.1954
     47  CA        -1.4320    7.3260   19.8870 C.3    63  GLY63       0.1869
     48  C         -0.3030    7.9650   20.6550 C.2    63  GLY63       0.2309
     49  O         -0.3290    7.9710   21.8790 O.2    63  GLY63      -0.2863
     50  N          7.0420   14.4830   23.0420 N.3    67  CYS67      -0.1221
     51  CA         7.6970   14.6610   24.3390 C.3    67  CYS67       0.1808
     52  C          6.7730   14.4520   25.5430 C.2    67  CYS67       0.2601
     53  O          7.2500   14.4640   26.6710 O.2    67  CYS67      -0.2717
     54  CB         8.3710   16.0420   24.4360 C.3    67  CYS67       0.0970
     55  SG         9.7710   16.2970   23.3060 S.3    67  CYS67      -0.0800
     56  N          5.4710   14.2540   25.3240 N.am   68  ASN68      -0.1960
     57  CA         4.5500   13.8970   26.4140 C.3    68  ASN68       0.1819
     58  C          4.2410   12.4060   26.5030 C.2    68  ASN68       0.2622
     59  O          3.3320   12.0190   27.2220 O.2    68  ASN68      -0.2715
     60  CB         3.2530   14.7040   26.2970 C.3    68  ASN68       0.1195
     61  CG         3.4900   16.1930   26.4190 C.2    68  ASN68       0.2630
     62  OD1        3.1450   16.9590   25.5260 O.2    68  ASN68      -0.2716
     63  ND2        4.1120   16.6090   27.5060 N.am   68  ASN68      -0.0877
     64  N          4.9930   11.5750   25.7820 N.am   69  GLY69      -0.1940
     65  CA         4.9130   10.1230   25.9350 C.3    69  GLY69       0.2014
     66  C          4.4290    9.4260   24.6950 C.2    69  GLY69       0.2639
     67  O          4.0680   10.0650   23.7150 O.2    69  GLY69      -0.2714
     68  N          4.4270    8.1020   24.7500 N.am   70  GLY70      -0.1939
     69  CA         4.0910    7.2650   23.6010 C.3    70  GLY70       0.2014
     70  C          4.3940    5.8040   23.8690 C.2    70  GLY70       0.2639
     71  O          4.6840    5.4150   25.0040 O.2    70  GLY70      -0.2714
     72  N          4.3310    5.0020   22.8140 N.am   71  PHE71      -0.1959
     73  CA         4.4150    3.5550   22.9040 C.3    71  PHE71       0.1771
     74  C          5.4040    3.0310   21.8580 C.2    71  PHE71       0.2619
     75  O          5.4390    3.5170   20.7160 O.2    71  PHE71      -0.2715
     76  CB         3.0270    2.9340   22.6810 C.3    71  PHE71       0.0574
     77  CG         1.9670    3.4950   23.5860 C.ar   71  PHE71      -0.0200
     78  CD1        1.2460    4.6310   23.2180 C.ar   71  PHE71      -0.0042
     79  CD2        1.7100    2.9110   24.8280 C.ar   71  PHE71      -0.0042
     80  CE1        0.2940    5.1810   24.0680 C.ar   71  PHE71      -0.0003
     81  CE2        0.7650    3.4580   25.6920 C.ar   71  PHE71      -0.0003
     82  CZ         0.0540    4.5910   25.3100 C.ar   71  PHE71      -0.0000
     83  N          6.2050    2.0450   22.2510 N.am   72  MET72      -0.1963
     84  CA         7.1330    1.4080   21.3220 C.3    72  MET72       0.1736
     85  C          6.4160    0.6190   20.2340 C.2    72  MET72       0.2617
     86  O          6.8500    0.6260   19.0860 O.2    72  MET72      -0.2715
     87  CB         8.1140    0.4980   22.0650 C.3    72  MET72       0.0427
     88  CG         9.0210    1.2810   23.0050 C.3    72  MET72       0.0599
     89  SD         8.2900    1.5960   24.6240 S.3    72  MET72      -0.1393
     90  CE         8.5500   -0.0290   25.3520 C.3    72  MET72       0.0692
     91  N          5.3150   -0.0450   20.5880 N.am   73  THR73      -0.1937
     92  CA         4.6000   -0.8880   19.6230 C.3    73  THR73       0.2028
     93  C          4.0870   -0.0640   18.4290 C.2    73  THR73       0.2642
     94  O          4.3080   -0.4430   17.2740 O.2    73  THR73      -0.2714
     95  CB         3.4380   -1.6670   20.2710 C.3    73  THR73       0.1808
     96  OG1        2.5850   -0.7620   20.9820 O.3    73  THR73      -0.2208
     97  CG2        3.9720   -2.7120   21.2240 C.3    73  THR73       0.0379
     98  N          3.4330    1.0630   18.7170 N.am   74  THR74      -0.1950
     99  CA         2.9270    1.9470   17.6720 C.3    74  THR74       0.1897
    100  C          4.0530    2.7260   16.9770 C.2    74  THR74       0.2313
    101  O          3.8900    3.1510   15.8340 O.2    74  THR74      -0.2863
    102  CB         1.8990    2.9470   18.2020 C.3    74  THR74       0.1794
    103  OG1        2.5050    3.7830   19.1940 O.3    74  THR74      -0.2208
    104  CG2        0.7050    2.2240   18.8090 C.3    74  THR74       0.0378
    105  N          4.7940   -8.7430   20.0880 N.3   116  GLU116     -0.1245
    106  CA         4.5590   -8.4970   21.4970 C.3   116  GLU116      0.1567
    107  C          4.7130   -9.8160   22.2450 C.2   116  GLU116      0.2260
    108  O          4.4100  -10.8830   21.7040 O.2   116  GLU116     -0.2867
    109  CB         3.1580   -7.9260   21.7230 C.3   116  GLU116      0.0388
    110  CG         2.9360   -6.5830   21.0390 C.3   116  GLU116      0.1160
    111  CD         1.5510   -6.0050   21.2520 C.2   116  GLU116      0.3649
    112  OE1        1.2520   -4.9540   20.6740 O.co2 116  GLU116     -0.2457
    113  OE2        0.7430   -6.5780   21.9940 O.co2 116  GLU116     -0.2457
    114  N          2.0350  -10.8390   28.6610 N.3   119  TYR119     -0.1241
    115  CA         2.1340  -10.0530   29.8790 C.3   119  TYR119      0.1605
    116  C          2.6640  -10.8590   31.0690 C.2   119  TYR119      0.2264
    117  O          2.1300  -11.9200   31.3910 O.2   119  TYR119     -0.2867
    118  CB         0.7440   -9.5090   30.2130 C.3   119  TYR119      0.0534
    119  CG         0.6460   -8.6390   31.4370 C.ar  119  TYR119     -0.0201
    120  CD1        0.5030   -9.1950   32.7110 C.ar  119  TYR119     -0.0009
    121  CD2        0.6230   -7.2500   31.3260 C.ar  119  TYR119     -0.0009
    122  CE1        0.3770   -8.3770   33.8390 C.ar  119  TYR119      0.0417
    123  CE2        0.4830   -6.4420   32.4420 C.ar  119  TYR119      0.0417
    124  CZ         0.3720   -7.0030   33.6890 C.ar  119  TYR119      0.1957
    125  OH         0.2510   -6.1590   34.7670 O.3   119  TYR119     -0.2866
    126  N          8.4160   -1.5990   29.0000 N.3   138  GLY138     -0.1225
    127  CA         8.0330   -0.5250   29.8980 C.3   138  GLY138      0.1811
    128  C          8.3620   -0.9640   31.3050 C.2   138  GLY138      0.2280
    129  O          8.3150   -2.1640   31.6210 O.2   138  GLY138     -0.2866
    130  N          8.6760    3.3430   36.6670 N.3   141  ALA141     -0.1231
    131  CA         9.7620    4.1810   37.1610 C.3   141  ALA141      0.1694
    132  C          9.2310    5.3520   37.9880 C.2   141  ALA141      0.2591
    133  O          9.9480    6.3240   38.1640 O.2   141  ALA141     -0.2718
    134  CB        10.6090    4.6690   35.9890 C.3   141  ALA141      0.0304
    135  N          8.0370    5.2270   38.5730 N.am  142  ARG142     -0.1980
    136  CA         7.4240    6.2990   39.3910 C.3   142  ARG142      0.1597
    137  C          7.9420    6.3030   40.8530 C.2   142  ARG142      0.2287
    138  O          7.1730    6.5810   41.7580 O.2   142  ARG142     -0.2864
    139  CB         5.8790    6.1230   39.4520 C.3   142  ARG142      0.0334
    140  CG         5.0060    6.5590   38.2930 C.3   142  ARG142      0.0492
    141  CD         3.5240    6.2350   38.5590 C.3   142  ARG142      0.2205
    142  NE         2.6440    7.4160   38.7530 N.pl3 142  ARG142     -0.0865
    143  CZ         1.7240    7.5840   39.7240 C.cat 142  ARG142      0.5346
    144  NH1        1.5000    6.6580   40.6630 N.pl3 142  ARG142      0.1354
    145  NH2        1.0100    8.7090   39.7540 N.pl3 142  ARG142      0.1354
    146  N         15.4150    6.4120   39.9930 N.3   147  PHE147     -0.1241
    147  CA        16.1780    7.5660   39.5280 C.3   147  PHE147      0.1605
    148  C         17.5070    7.6600   40.2500 C.2   147  PHE147      0.2264
    149  O         18.5050    8.1080   39.6830 O.2   147  PHE147     -0.2867
    150  CB        15.4100    8.8680   39.7890 C.3   147  PHE147      0.0534
    151  CG        14.0540    8.9390   39.1240 C.ar  147  PHE147     -0.0203
    152  CD1       12.9100    8.4610   39.7610 C.ar  147  PHE147     -0.0042
    153  CD2       13.9120    9.5370   37.9000 C.ar  147  PHE147     -0.0042
    154  CE1       11.6720    8.5560   39.1720 C.ar  147  PHE147     -0.0003
    155  CE2       12.6680    9.6340   37.2950 C.ar  147  PHE147     -0.0003
    156  CZ        11.5460    9.1240   37.9170 C.ar  147  PHE147     -0.0000
    157  N          3.0650   -3.4060   38.4770 N.3   161  GLN161     -0.1231
    158  CA         3.2310   -3.9050   37.1200 C.3   161  GLN161      0.1698
    159  C          2.7240   -2.9310   36.0530 C.2   161  GLN161      0.2592
    160  O          2.7160   -3.2550   34.8660 O.2   161  GLN161     -0.2718
    161  CB         2.5330   -5.2520   36.9750 C.3   161  GLN161      0.0381
    162  CG         3.1280   -6.3430   37.8600 C.3   161  GLN161      0.0905
    163  CD         2.3500   -7.6320   37.7510 C.2   161  GLN161      0.2608
    164  OE1        2.5140   -8.3940   36.8000 O.2   161  GLN161     -0.2717
    165  NE2        1.4720   -7.8730   38.7250 N.am  161  GLN161     -0.0878
    166  N          2.3000   -1.7430   36.4660 N.am  162  ASN162     -0.1960
    167  CA         1.9330   -0.6850   35.5200 C.3   162  ASN162      0.1819
    168  C          3.2040    0.0450   35.0980 C.2   162  ASN162      0.2621
    169  O          4.0590    0.2910   35.9120 O.2   162  ASN162     -0.2715
    170  CB         0.9450    0.3070   36.1520 C.3   162  ASN162      0.1195
    171  CG        -0.3170   -0.3670   36.6630 C.2   162  ASN162      0.2630
    172  OD1       -0.7120   -0.1580   37.8030 O.2   162  ASN162     -0.2716
    173  ND2       -0.9360   -1.2080   35.8310 N.am  162  ASN162     -0.0877
    174  N          3.3030    0.4070   33.8330 N.am  163  VAL163     -0.1963
    175  CA         4.5300    0.9690   33.2910 C.3   163  VAL163      0.1727
    176  C          4.3120    2.4070   32.8250 C.2   163  VAL163      0.2616
    177  O          3.2330    2.7470   32.3530 O.2   163  VAL163     -0.2715
    178  CB         5.0990    0.0660   32.1660 C.3   163  VAL163      0.0290
    179  CG1        5.2650   -1.3710   32.6720 C.3   163  VAL163      0.0023
    180  CG2        4.2190    0.0640   30.9230 C.3   163  VAL163      0.0023
    181  N          5.3520    3.2320   32.9590 N.am  164  ASN164     -0.1958
    182  CA         5.3150    4.6520   32.6120 C.3   164  ASN164      0.1819
    183  C          6.6550    5.1930   32.0270 C.2   164  ASN164      0.2621
    184  O          6.9100    6.4130   32.0700 O.2   164  ASN164     -0.2715
    185  CB         4.9760    5.4060   33.8840 C.3   164  ASN164      0.1195
    186  CG         6.1190    5.3860   34.8940 C.2   164  ASN164      0.2630
    187  OD1        6.8980    4.4650   34.9560 O.2   164  ASN164     -0.2716
    188  ND2        6.2560    6.4470   35.6360 N.am  164  ASN164     -0.0877
    189  N          7.4980    4.2990   31.5070 N.am  165  HIS165     -0.1959
    190  CA         8.8420    4.6560   31.0990 C.3   165  HIS165      0.1787
    191  C          9.3910    3.5560   30.1960 C.2   165  HIS165      0.2620
    192  O          9.4360    2.3920   30.5970 O.2   165  HIS165     -0.2715
    193  CB         9.7520    4.8210   32.3170 C.3   165  HIS165      0.0785
    194  CG        11.1210    5.3220   31.9760 C.ar  165  HIS165      0.0821
    195  ND1       11.3480    6.5670   31.4250 N.ar  165  HIS165     -0.2267
    196  CD2       12.3390    4.7480   32.1170 C.ar  165  HIS165      0.1154
    197  CE1       12.6450    6.7310   31.2320 C.ar  165  HIS165      0.1986
    198  NE2       13.2670    5.6400   31.6400 N.ar  165  HIS165     -0.2212
    199  N          9.7970    3.9360   28.9930 N.am  166  GLY166     -0.1954
    200  CA        10.3670    3.0100   28.0370 C.3   166  GLY166      0.1869
    201  C         11.8650    2.8110   28.2070 C.2   166  GLY166      0.2309
    202  O         12.6200    3.7770   28.3260 O.2   166  GLY166     -0.2863
    203  N          4.6770   -5.3180   29.0900 N.3   212  PHE212     -0.1241
    204  CA         4.5060   -5.0420   27.6630 C.3   212  PHE212      0.1605
    205  C          5.8210   -5.0570   26.9120 C.2   212  PHE212      0.2264
    206  O          6.3250   -4.0010   26.5220 O.2   212  PHE212     -0.2867
    207  CB         3.8020   -3.7000   27.4870 C.3   212  PHE212      0.0534
    208  CG         2.4850   -3.6310   28.1790 C.ar  212  PHE212     -0.0203
    209  CD1        1.3520   -4.1940   27.5950 C.ar  212  PHE212     -0.0042
    210  CD2        2.3800   -3.0620   29.4390 C.ar  212  PHE212     -0.0042
    211  CE1        0.1310   -4.1710   28.2480 C.ar  212  PHE212     -0.0003
    212  CE2        1.1500   -3.0230   30.0940 C.ar  212  PHE212     -0.0003
    213  CZ         0.0320   -3.5900   29.5000 C.ar  212  PHE212     -0.0000
@<TRIPOS>BOND
     1    33    32    1
     2    32    31    1
     3    45    44    1
     4    31    30    1
     5    44    42   ar
     6    44    43   ar
     7    30    29    1
     8    42    40   ar
     9    43    41   ar
    10    29    26    1
    11    40    39   ar
    12    41    39   ar
    13    26    27    1
    14    26    25    1
    15    39    38    1
    16    28    27    2
    17    27    34   am
    18    34    35    1
    19   101   100    2
    20    38    35    1
    21    35    36    1
    22   100    99    1
    23    94    93    2
    24    99   102    1
    25    99    98    1
    26    36    46   am
    27    36    37    2
    28   102   104    1
    29   102   103    1
    30    93    98   am
    31    93    92    1
    32    46    47    1
    33    86    85    2
    34    92    95    1
    35    92    91    1
    36    24    23   ar
    37    24    22   ar
    38    23    21   ar
    39    47    48    1
    40   105   106    1
    41    85    91   am
    42    85    84    1
    43    95    96    1
    44    95    97    1
    45    48    49    2
    46   112   111   ar
    47    75    74    2
    48    22    20   ar
    49    21    18   ar
    50   110   111    1
    51   110   109    1
    52   111   113   ar
    53    84    87    1
    54    84    83    1
    55   106   109    1
    56   106   107    1
    57   108   107    2
    58    74    83   am
    59    74    73    1
    60    20    18   ar
    61    20    19   ar
    62    87    88    1
    63    18    16   ar
    64    14    13    2
    65    76    73    1
    66    76    77    1
    67    72    73    1
    68    72    70   am
    69    13    12    1
    70    88    89    1
    71    50    51    1
    72    78    77   ar
    73    78    80   ar
    74    19    17   ar
    75    55    54    1
    76    16    15    1
    77    16    17   ar
    78    77    79   ar
    79    69    70    1
    80    69    68    1
    81    67    66    2
    82    70    71    2
    83    80    82   ar
    84    15    12    1
    85    12    11    1
    86    51    54    1
    87    51    52    1
    88    89    90    1
    89    66    68   am
    90    66    65    1
    91    79    81   ar
    92     8     7    2
    93    11     7   am
    94    82    81   ar
    95    56    52   am
    96    56    57    1
    97     7     6    1
    98    62    61    2
    99    52    53    2
   100    64    65    1
   101    64    58   am
   102     4     3    2
   103     5     6    1
   104    60    57    1
   105    60    61    1
   106     3     2    1
   107     6     9    1
   108    57    58    1
   109    61    63   am
   110    58    59    2
   111   206   205    2
   112   205   204    1
   113     1     2    1
   114   207   204    1
   115   207   208    1
   116   209   208   ar
   117   209   211   ar
   118   204   203    1
   119     9    10    1
   120   200   201    1
   121   200   199    1
   122   208   210   ar
   123   201   202    2
   124   211   213   ar
   125   114   115    1
   126   199   191   am
   127   126   127    1
   128   210   212   ar
   129   213   212   ar
   130   115   118    1
   131   115   116    1
   132   127   128    1
   133   191   192    2
   134   191   190    1
   135   118   119    1
   136   180   178    1
   137   116   117    2
   138   190   189    1
   139   190   193    1
   140   197   195   ar
   141   197   198   ar
   142   128   129    2
   143   121   119   ar
   144   121   123   ar
   145   195   194   ar
   146   119   120   ar
   147   189   183   am
   148   198   196   ar
   149   194   196   ar
   150   194   193    1
   151   183   184    2
   152   183   182    1
   153   178   179    1
   154   178   175    1
   155   177   176    2
   156   123   124   ar
   157   182   181    1
   158   182   185    1
   159   120   122   ar
   160   176   181   am
   161   176   175    1
   162   175   174    1
   163   124   122   ar
   164   124   125    1
   165   174   168   am
   166   185   186    1
   167   160   159    2
   168   186   187    2
   169   186   188   am
   170   168   167    1
   171   168   169    2
   172   167   170    1
   173   167   166    1
   174   173   171   am
   175   134   131    1
   176   159   166   am
   177   159   158    1
   178   170   171    1
   179   171   172    2
   180   130   131    1
   181   164   163    2
   182   161   158    1
   183   161   162    1
   184   158   157    1
   185   131   132    1
   186   155   153   ar
   187   155   156   ar
   188   163   162    1
   189   163   165   am
   190   153   151   ar
   191   156   154   ar
   192   132   133    2
   193   132   135   am
   194   140   141    1
   195   140   139    1
   196   141   142    1
   197   135   136    1
   198   142   143    2
   199   151   152   ar
   200   151   150    1
   201   154   152   ar
   202   136   139    1
   203   136   137    1
   204   147   150    1
   205   147   146    1
   206   147   148    1
   207   149   148    2
   208   143   145    1
   209   143   144    1
   210   137   138    2
