@<TRIPOS>MOLECULE
tmp/5qccA00.pdb
 150 149 0 0 0
SMALL
GASTEIGER

@<TRIPOS>ATOM
      1  N         -7.0030    5.3630   -2.2530 N.3    26  SER26      -0.1202
      2  CA        -6.2830    4.2780   -1.5880 C.3    26  SER26       0.2020
      3  C         -5.0450    3.8620   -2.3790 C.2    26  SER26       0.2618
      4  O         -4.0240    3.4930   -1.7840 O.2    26  SER26      -0.2717
      5  CB        -7.2080    3.0800   -1.3840 C.3    26  SER26       0.2103
      6  OG        -7.6210    2.5430   -2.6330 O.3    26  SER26      -0.2182
      7  N         -5.1140    3.9130   -3.7140 N.am   27  TRP27      -0.1975
      8  CA        -3.9440    3.6080   -4.5360 C.3    27  TRP27       0.1640
      9  C         -2.7690    4.5080   -4.1790 C.2    27  TRP27       0.2290
     10  O         -1.6160    4.0530   -4.1480 O.2    27  TRP27      -0.2864
     11  CB        -4.2850    3.7370   -6.0280 C.3    27  TRP27       0.0576
     12  CG        -4.7150    5.1230   -6.4440 C.ar   27  TRP27       0.0006
     13  CD1       -5.9720    5.6560   -6.3570 C.ar   27  TRP27       0.0946
     14  CD2       -3.8860    6.1490   -7.0120 C.ar   27  TRP27       0.0152
     15  NE1       -5.9680    6.9550   -6.8150 N.ar   27  TRP27      -0.2442
     16  CE2       -4.7030    7.2760   -7.2270 C.ar   27  TRP27       0.0810
     17  CE3       -2.5330    6.2250   -7.3490 C.ar   27  TRP27       0.0012
     18  CZ2       -4.2170    8.4550   -7.7760 C.ar   27  TRP27       0.0191
     19  CZ3       -2.0490    7.3890   -7.8850 C.ar   27  TRP27       0.0001
     20  CH2       -2.8930    8.4990   -8.1000 C.ar   27  TRP27       0.0015
     21  N         -0.5010    8.2780  -16.5190 N.3    62  TYR62      -0.1227
     22  CA        -0.2660    7.0850  -15.7180 C.3    62  TYR62       0.1736
     23  C         -1.5250    6.2410  -15.5590 C.2    62  TYR62       0.2596
     24  O         -1.5310    5.2880  -14.7810 O.2    62  TYR62      -0.2718
     25  CB         0.3210    7.5040  -14.3620 C.3    62  TYR62       0.0548
     26  CG         1.6060    8.2580  -14.5860 C.ar   62  TYR62      -0.0200
     27  CD1        1.6290    9.6480  -14.6530 C.ar   62  TYR62      -0.0009
     28  CD2        2.7810    7.5700  -14.8340 C.ar   62  TYR62      -0.0009
     29  CE1        2.8200   10.3340  -14.9080 C.ar   62  TYR62       0.0417
     30  CE2        3.9560    8.2350  -15.0940 C.ar   62  TYR62       0.0417
     31  CZ         3.9750    9.6080  -15.1280 C.ar   62  TYR62       0.1957
     32  OH         5.1670   10.2320  -15.3860 O.3    62  TYR62      -0.2866
     33  N         -2.5790    6.5410  -16.3140 N.am   63  GLY63      -0.1957
     34  CA        -3.8100    5.7880  -16.1840 C.3    63  GLY63       0.1869
     35  C         -4.5400    5.9940  -14.8770 C.2    63  GLY63       0.2309
     36  O         -5.4450    5.2220  -14.5650 O.2    63  GLY63      -0.2863
     37  N         -9.7500    6.7970   -8.4670 N.3    69  GLY69      -0.1210
     38  CA        -9.0240    5.5430   -8.5300 C.3    69  GLY69       0.1956
     39  C         -7.7090    5.6710   -9.2920 C.2    69  GLY69       0.2612
     40  O         -7.4340    6.6590   -9.9720 O.2    69  GLY69      -0.2717
     41  N         -6.9030    4.6200   -9.1830 N.am   70  GLY70      -0.1942
     42  CA        -5.5970    4.6140   -9.8170 C.3    70  GLY70       0.2014
     43  C         -4.8550    3.3320   -9.5090 C.2    70  GLY70       0.2639
     44  O         -5.4290    2.3750   -8.9850 O.2    70  GLY70      -0.2714
     45  N         -3.5570    3.3310   -9.8240 N.am   71  PHE71      -0.1959
     46  CA        -2.7110    2.1500   -9.6830 C.3    71  PHE71       0.1771
     47  C         -1.4420    2.5160   -8.9320 C.2    71  PHE71       0.2619
     48  O         -0.8540    3.5750   -9.1690 O.2    71  PHE71      -0.2715
     49  CB        -2.3070    1.5450  -11.0510 C.3    71  PHE71       0.0574
     50  CG        -3.4700    1.1960  -11.9380 C.ar   71  PHE71      -0.0200
     51  CD1       -3.9790    2.1280  -12.8330 C.ar   71  PHE71      -0.0042
     52  CD2       -4.0450   -0.0740  -11.8920 C.ar   71  PHE71      -0.0042
     53  CE1       -5.0630    1.8010  -13.6580 C.ar   71  PHE71      -0.0003
     54  CE2       -5.1190   -0.4060  -12.7120 C.ar   71  PHE71      -0.0003
     55  CZ        -5.6270    0.5300  -13.5940 C.ar   71  PHE71      -0.0000
     56  N         -1.0150    1.6310   -8.0310 N.am   72  MET72      -0.1963
     57  CA         0.2340    1.8650   -7.3220 C.3    72  MET72       0.1736
     58  C          1.4350    1.7660   -8.2580 C.2    72  MET72       0.2617
     59  O          2.3910    2.5350   -8.1240 O.2    72  MET72      -0.2715
     60  CB         0.3750    0.8830   -6.1630 C.3    72  MET72       0.0427
     61  CG        -0.6180    1.1090   -5.0260 C.3    72  MET72       0.0599
     62  SD        -2.2290    0.3490   -5.2930 S.3    72  MET72      -0.1393
     63  CE        -1.8450   -1.3440   -4.8570 C.3    72  MET72       0.0692
     64  N          1.4220    0.8220   -9.2020 N.am   73  THR73      -0.1937
     65  CA         2.5910    0.6510  -10.0710 C.3    73  THR73       0.2028
     66  C          2.8320    1.8790  -10.9420 C.2    73  THR73       0.2642
     67  O          3.9760    2.3180  -11.0960 O.2    73  THR73      -0.2714
     68  CB         2.4330   -0.5830  -10.9540 C.3    73  THR73       0.1808
     69  OG1        1.2860   -0.4120  -11.8080 O.3    73  THR73      -0.2208
     70  CG2        2.2330   -1.7790  -10.0760 C.3    73  THR73       0.0379
     71  N          1.7760    2.4440  -11.5420 N.am   74  THR74      -0.1950
     72  CA         1.9980    3.6450  -12.3430 C.3    74  THR74       0.1897
     73  C          2.3020    4.8490  -11.4640 C.2    74  THR74       0.2313
     74  O          2.9700    5.7830  -11.9120 O.2    74  THR74      -0.2863
     75  CB         0.8040    3.9450  -13.2500 C.3    74  THR74       0.1794
     76  OG1       -0.3660    4.1960  -12.4590 O.3    74  THR74      -0.2208
     77  CG2        0.5600    2.7800  -14.2080 C.3    74  THR74       0.0378
     78  N          6.7640   -6.0570  -10.1790 N.3   116  GLU116     -0.1245
     79  CA         5.4160   -6.6050  -10.1170 C.3   116  GLU116      0.1567
     80  C          5.5430   -8.0980   -9.8610 C.2   116  GLU116      0.2260
     81  O          6.3330   -8.7780  -10.5250 O.2   116  GLU116     -0.2867
     82  CB         4.6380   -6.3440  -11.4130 C.3   116  GLU116      0.0388
     83  CG         4.3700   -4.8640  -11.7000 C.3   116  GLU116      0.1160
     84  CD         3.7110   -4.6280  -13.0470 C.2   116  GLU116      0.3649
     85  OE1        2.4760   -4.4360  -13.0790 O.co2 116  GLU116     -0.2457
     86  OE2        4.4290   -4.6290  -14.0710 O.co2 116  GLU116     -0.2457
     87  N          0.6900  -13.0940  -10.5740 N.3   119  TYR119     -0.1241
     88  CA        -0.7090  -13.1810  -10.1530 C.3   119  TYR119      0.1605
     89  C         -0.9920  -14.3940   -9.2670 C.2   119  TYR119      0.2264
     90  O         -0.7090  -15.5390   -9.6380 O.2   119  TYR119     -0.2867
     91  CB        -1.6010  -13.2100  -11.3990 C.3   119  TYR119      0.0534
     92  CG        -3.0900  -13.1440  -11.1360 C.ar  119  TYR119     -0.0201
     93  CD1       -3.7910  -14.2410  -10.6390 C.ar  119  TYR119     -0.0009
     94  CD2       -3.7940  -11.9590  -11.3470 C.ar  119  TYR119     -0.0009
     95  CE1       -5.1600  -14.1570  -10.3810 C.ar  119  TYR119      0.0417
     96  CE2       -5.1470  -11.8730  -11.1120 C.ar  119  TYR119      0.0417
     97  CZ        -5.8280  -12.9690  -10.6230 C.ar  119  TYR119      0.1957
     98  OH        -7.1760  -12.8680  -10.3770 O.3   119  TYR119     -0.2866
     99  N         -3.6750   -4.8540   -4.1690 N.3   138  GLY138     -0.1225
    100  CA        -5.0930   -4.5590   -4.2340 C.3   138  GLY138      0.1811
    101  C         -5.8600   -5.6520   -3.5110 C.2   138  GLY138      0.2280
    102  O         -5.4250   -6.7950   -3.4550 O.2   138  GLY138     -0.2866
    103  N        -10.8750  -10.1520   -7.9430 N.3   162  ASN162     -0.1225
    104  CA       -10.8560   -8.8910   -8.6740 C.3   162  ASN162      0.1785
    105  C        -10.7790   -7.7420   -7.6760 C.2   162  ASN162      0.2597
    106  O        -11.6650   -7.5920   -6.8250 O.2   162  ASN162     -0.2718
    107  CB       -12.0930   -8.7690   -9.5540 C.3   162  ASN162      0.1169
    108  CG       -12.2120   -9.9190  -10.5200 C.2   162  ASN162      0.2627
    109  OD1      -11.2200  -10.3440  -11.1140 O.2   162  ASN162     -0.2716
    110  ND2      -13.4150  -10.4560  -10.6520 N.am  162  ASN162     -0.0877
    111  N         -9.6890   -6.9910   -7.7270 N.am  163  VAL163     -0.1966
    112  CA        -9.3950   -5.9920   -6.7050 C.3   163  VAL163      0.1727
    113  C        -10.0810   -4.6640   -7.0090 C.2   163  VAL163      0.2616
    114  O        -10.4010   -4.3310   -8.1580 O.2   163  VAL163     -0.2715
    115  CB        -7.8740   -5.8140   -6.5560 C.3   163  VAL163      0.0290
    116  CG1       -7.2610   -7.1600   -6.2300 C.3   163  VAL163      0.0023
    117  CG2       -7.2980   -5.2260   -7.8280 C.3   163  VAL163      0.0023
    118  N        -10.2740   -3.8650   -5.9510 N.am  164  ASN164     -0.1958
    119  CA       -10.8770   -2.5480   -6.1320 C.3   164  ASN164      0.1819
    120  C        -10.4390   -1.5540   -5.0590 C.2   164  ASN164      0.2621
    121  O        -11.0350   -0.4710   -4.9630 O.2   164  ASN164     -0.2715
    122  CB       -12.4020   -2.6750   -6.1370 C.3   164  ASN164      0.1195
    123  CG       -12.9070   -3.4680   -4.9630 C.2   164  ASN164      0.2630
    124  OD1      -12.7250   -3.0630   -3.8210 O.2   164  ASN164     -0.2716
    125  ND2      -13.5230   -4.6250   -5.2300 N.am  164  ASN164     -0.0877
    126  N         -9.4270   -1.8830   -4.2570 N.am  165  HIS165     -0.1959
    127  CA        -9.0210   -1.0660   -3.1240 C.3   165  HIS165      0.1787
    128  C         -7.5410   -1.3170   -2.8630 C.2   165  HIS165      0.2620
    129  O         -7.1250   -2.4670   -2.7110 O.2   165  HIS165     -0.2715
    130  CB        -9.8670   -1.4190   -1.8940 C.3   165  HIS165      0.0785
    131  CG        -9.5360   -0.6140   -0.6780 C.ar  165  HIS165      0.0821
    132  ND1       -9.7190    0.7530   -0.6220 N.ar  165  HIS165     -0.2267
    133  CD2       -9.0480   -0.9810    0.5310 C.ar  165  HIS165      0.1154
    134  CE1       -9.3500    1.1930    0.5700 C.ar  165  HIS165      0.1986
    135  NE2       -8.9230    0.1640    1.2820 N.ar  165  HIS165     -0.2212
    136  N         -6.7460   -0.2480   -2.8400 N.am  166  GLY166     -0.1954
    137  CA        -5.3150   -0.3710   -2.6170 C.3   166  GLY166      0.1869
    138  C         -4.9590   -0.3180   -1.1420 C.2   166  GLY166      0.2309
    139  O         -5.4090    0.5690   -0.4180 O.2   166  GLY166     -0.2863
    140  N         -2.3700   -8.5670   -7.6450 N.3   212  PHE212     -0.1241
    141  CA        -1.5440   -7.5340   -8.2810 C.3   212  PHE212      0.1605
    142  C         -0.6290   -6.8540   -7.2650 C.2   212  PHE212      0.2264
    143  O         -0.7630   -5.6570   -6.9970 O.2   212  PHE212     -0.2867
    144  CB        -2.4340   -6.4890   -8.9630 C.3   212  PHE212      0.0534
    145  CG        -3.3450   -7.0720   -9.9940 C.ar  212  PHE212     -0.0203
    146  CD1       -2.8370   -7.5310  -11.2000 C.ar  212  PHE212     -0.0042
    147  CD2       -4.7030   -7.1730   -9.7550 C.ar  212  PHE212     -0.0042
    148  CE1       -3.6810   -8.0950  -12.1490 C.ar  212  PHE212     -0.0003
    149  CE2       -5.5440   -7.7290  -10.6940 C.ar  212  PHE212     -0.0003
    150  CZ        -5.0310   -8.1860  -11.8970 C.ar  212  PHE212     -0.0000
@<TRIPOS>BOND
     1    21    22    1
     2    33    34    1
     3    33    23   am
     4    34    35    1
     5    22    23    1
     6    22    25    1
     7    23    24    2
     8    32    31    1
     9    31    30   ar
    10    31    29   ar
    11    30    28   ar
    12    29    27   ar
    13    35    36    2
    14    28    26   ar
    15    27    26   ar
    16    26    25    1
    17    77    75    1
    18    86    84   ar
    19    53    55   ar
    20    53    51   ar
    21    55    54   ar
    22    75    76    1
    23    75    72    1
    24    85    84   ar
    25    84    83    1
    26    51    50   ar
    27    54    52   ar
    28    72    71    1
    29    72    73    1
    30   148   150   ar
    31   148   146   ar
    32    50    52   ar
    33    50    49    1
    34    74    73    2
    35   150   149   ar
    36    69    68    1
    37    83    82    1
    38    71    66   am
    39    82    79    1
    40    91    92    1
    41    91    88    1
    42    94    92   ar
    43    94    96   ar
    44   146   145   ar
    45    92    93   ar
    46   109   108    2
    47    96    97   ar
    48    67    66    2
    49    49    46    1
    50    68    70    1
    51    68    65    1
    52    66    65    1
    53   149   147   ar
    54   110   108   am
    55    93    95   ar
    56    97    95   ar
    57    97    98    1
    58    87    88    1
    59    81    80    2
    60   108   107    1
    61    78    79    1
    62    88    89    1
    63    79    80    1
    64    65    64    1
    65   145   147   ar
    66   145   144    1
    67    40    39    2
    68    45    46    1
    69    45    43   am
    70    42    43    1
    71    42    41    1
    72    46    47    1
    73    90    89    2
    74   107   104    1
    75    43    44    2
    76    39    41   am
    77    39    38    1
    78    64    58   am
    79    48    47    2
    80   144   141    1
    81    47    56   am
    82   104   103    1
    83   104   105    1
    84    38    37    1
    85   141   140    1
    86   141   142    1
    87    58    59    2
    88    58    57    1
    89   114   113    2
    90    20    19   ar
    91    20    18   ar
    92    56    57    1
    93    19    17   ar
    94   117   115    1
    95    18    16   ar
    96   111   105   am
    97   111   112    1
    98   105   106    2
    99    17    14   ar
   100    57    60    1
   101   142   143    2
   102    16    14   ar
   103    16    15   ar
   104    14    12   ar
   105   113   112    1
   106   113   118   am
   107    15    13   ar
   108   112   115    1
   109   115   116    1
   110    12    13   ar
   111    12    11    1
   112    60    61    1
   113   122   119    1
   114   122   123    1
   115   119   118    1
   116   119   120    1
   117    11     8    1
   118    62    61    1
   119    62    63    1
   120   125   123   am
   121   120   121    2
   122   120   126   am
   123   123   124    2
   124     8     9    1
   125     8     7    1
   126   126   127    1
   127   100    99    1
   128   100   101    1
   129     9    10    2
   130     7     3   am
   131   101   102    2
   132   127   128    1
   133   127   130    1
   134   128   136   am
   135   128   129    2
   136   136   137    1
   137     6     5    1
   138   137   138    1
   139     3     4    2
   140     3     2    1
   141     1     2    1
   142   130   131    1
   143     2     5    1
   144   138   139    2
   145   131   132   ar
   146   131   133   ar
   147   132   134   ar
   148   133   135   ar
   149   134   135   ar
