@<TRIPOS>MOLECULE
tmp/5qcdA00.pdb
 209 206 0 0 0
SMALL
GASTEIGER

@<TRIPOS>ATOM
      1  N         17.8880   -8.4330  -22.4000 N.3    20  GLN20      -0.1245
      2  CA        18.4280   -8.7370  -23.7160 C.3    20  GLN20       0.1566
      3  C         17.9000  -10.0520  -24.2750 C.2    20  GLN20       0.2260
      4  O         17.9160  -10.2300  -25.4990 O.2    20  GLN20      -0.2867
      5  CB        19.9650   -8.7190  -23.7080 C.3    20  GLN20       0.0367
      6  CG        20.6510   -9.6170  -22.7360 C.3    20  GLN20       0.0905
      7  CD        22.1650   -9.3770  -22.7080 C.2    20  GLN20       0.2608
      8  OE1       22.6550   -8.4330  -22.0880 O.2    20  GLN20      -0.2717
      9  NE2       22.8990  -10.2410  -23.3750 N.am   20  GLN20      -0.0878
     10  N         17.5800  -13.6420  -25.7300 N.3    22  SER22      -0.1202
     11  CA        18.4490  -14.5650  -26.4750 C.3    22  SER22       0.2020
     12  C         19.2550  -13.8130  -27.5360 C.2    22  SER22       0.2619
     13  O         19.0770  -13.9790  -28.7500 O.2    22  SER22      -0.2717
     14  CB        17.6210  -15.6680  -27.1240 C.3    22  SER22       0.2103
     15  OG        16.7720  -16.3090  -26.1900 O.3    22  SER22      -0.2182
     16  N         20.1810  -12.9980  -27.0560 N.am   23  CYS23      -0.1955
     17  CA        21.0060  -12.1790  -27.9370 C.3    23  CYS23       0.1843
     18  C         22.1350  -11.5990  -27.1080 C.2    23  CYS23       0.2626
     19  O         21.8800  -10.9200  -26.1080 O.2    23  CYS23      -0.2714
     20  CB        20.1810  -11.0660  -28.5940 C.3    23  CYS23       0.0997
     21  SG        21.1220   -9.8450  -29.5870 S.3    23  CYS23      -0.0797
     22  N         23.3760  -11.8810  -27.4940 N.am   24  GLY24      -0.1954
     23  CA        24.5150  -11.3950  -26.7470 C.3    24  GLY24       0.1869
     24  C         24.7860   -9.9260  -27.0010 C.2    24  GLY24       0.2309
     25  O         25.8300   -9.5730  -27.5510 O.2    24  GLY24      -0.2863
     26  N         24.9250   -7.4530  -24.6080 N.3    26  SER26      -0.1202
     27  CA        25.2660   -6.7030  -23.4030 C.3    26  SER26       0.2020
     28  C         26.1410   -5.5060  -23.7430 C.2    26  SER26       0.2618
     29  O         26.0140   -4.4390  -23.1300 O.2    26  SER26      -0.2717
     30  CB        25.9780   -7.5990  -22.3960 C.3    26  SER26       0.2103
     31  OG        27.2610   -7.9800  -22.8700 O.3    26  SER26      -0.2182
     32  N         27.0350   -5.6680  -24.7170 N.am   27  TRP27      -0.1975
     33  CA        27.9040   -4.5690  -25.1210 C.3    27  TRP27       0.1640
     34  C         27.0900   -3.3870  -25.6410 C.2    27  TRP27       0.2290
     35  O         27.4280   -2.2260  -25.3700 O.2    27  TRP27      -0.2864
     36  CB        28.8940   -5.0620  -26.1770 C.3    27  TRP27       0.0576
     37  CG        28.2110   -5.5640  -27.4150 C.ar   27  TRP27       0.0006
     38  CD1       27.6360   -6.7970  -27.6010 C.ar   27  TRP27       0.0946
     39  CD2       27.9950   -4.8310  -28.6250 C.ar   27  TRP27       0.0152
     40  NE1       27.0890   -6.8730  -28.8630 N.ar   27  TRP27      -0.2442
     41  CE2       27.2980   -5.6790  -29.5100 C.ar   27  TRP27       0.0810
     42  CE3       28.3250   -3.5310  -29.0480 C.ar   27  TRP27       0.0012
     43  CZ2       26.9210   -5.2720  -30.7950 C.ar   27  TRP27       0.0191
     44  CZ3       27.9550   -3.1320  -30.3310 C.ar   27  TRP27       0.0001
     45  CH2       27.2610   -4.0020  -31.1850 C.ar   27  TRP27       0.0015
     46  N         33.5420   -2.0990  -36.8410 N.3    62  TYR62      -0.1227
     47  CA        33.7640   -1.8530  -35.4270 C.3    62  TYR62       0.1736
     48  C         34.1460   -3.1180  -34.6710 C.2    62  TYR62       0.2596
     49  O         34.2190   -3.0970  -33.4410 O.2    62  TYR62      -0.2718
     50  CB        32.5140   -1.1810  -34.8520 C.3    62  TYR62       0.0548
     51  CG        32.2190    0.0870  -35.6330 C.ar   62  TYR62      -0.0200
     52  CD1       31.2800    0.1060  -36.6630 C.ar   62  TYR62      -0.0009
     53  CD2       32.9470    1.2490  -35.3910 C.ar   62  TYR62      -0.0009
     54  CE1       31.0470    1.2720  -37.4050 C.ar   62  TYR62       0.0417
     55  CE2       32.7240    2.3960  -36.1140 C.ar   62  TYR62       0.0417
     56  CZ        31.7740    2.4110  -37.1150 C.ar   62  TYR62       0.1957
     57  OH        31.5640    3.5720  -37.8300 O.3    62  TYR62      -0.2866
     58  N         34.4380   -4.2050  -35.3870 N.am   63  GLY63      -0.1957
     59  CA        34.7650   -5.4610  -34.7490 C.3    63  GLY63       0.1869
     60  C         33.6340   -6.0500  -33.9460 C.2    63  GLY63       0.2309
     61  O         33.8720   -6.9040  -33.0910 O.2    63  GLY63      -0.2863
     62  N         24.4230  -10.0140  -32.1100 N.3    67  CYS67      -0.1221
     63  CA        24.0240  -10.8830  -31.0120 C.3    67  CYS67       0.1808
     64  C         25.1210  -11.8440  -30.6020 C.2    67  CYS67       0.2601
     65  O         24.9360  -12.5900  -29.6330 O.2    67  CYS67      -0.2717
     66  CB        22.7640  -11.6620  -31.3960 C.3    67  CYS67       0.0970
     67  SG        21.2930  -10.6460  -31.4640 S.3    67  CYS67      -0.0800
     68  N         26.2500  -11.8520  -31.3100 N.am   68  ASN68      -0.1960
     69  CA        27.3900  -12.6630  -30.9210 C.3    68  ASN68       0.1819
     70  C         28.4280  -11.8760  -30.1330 C.2    68  ASN68       0.2622
     71  O         29.4810  -12.4220  -29.8010 O.2    68  ASN68      -0.2715
     72  CB        28.0170  -13.3090  -32.1560 C.3    68  ASN68       0.1195
     73  CG        27.1850  -14.4770  -32.6770 C.2    68  ASN68       0.2630
     74  OD1       26.5120  -15.1580  -31.9080 O.2    68  ASN68      -0.2716
     75  ND2       27.2270  -14.7040  -33.9830 N.am   68  ASN68      -0.0877
     76  N         28.1540  -10.6210  -29.8110 N.am   69  GLY69      -0.1940
     77  CA        29.0230   -9.8510  -28.9490 C.3    69  GLY69       0.2014
     78  C         29.6810   -8.6850  -29.6740 C.2    69  GLY69       0.2639
     79  O         29.5700   -8.5190  -30.8900 O.2    69  GLY69      -0.2714
     80  N         30.3770   -7.8790  -28.8850 N.am   70  GLY70      -0.1939
     81  CA        30.9860   -6.6700  -29.4060 C.3    70  GLY70       0.2014
     82  C         31.6130   -5.8570  -28.2970 C.2    70  GLY70       0.2639
     83  O         31.8660   -6.3690  -27.2040 O.2    70  GLY70      -0.2714
     84  N         31.8560   -4.5750  -28.5850 N.am   71  PHE71      -0.1959
     85  CA        32.6280   -3.7000  -27.7110 C.3    71  PHE71       0.1771
     86  C         31.9330   -2.3560  -27.5340 C.2    71  PHE71       0.2619
     87  O         31.4580   -1.7670  -28.5070 O.2    71  PHE71      -0.2715
     88  CB        34.0200   -3.4520  -28.2800 C.3    71  PHE71       0.0574
     89  CG        34.8220   -4.7020  -28.4830 C.ar   71  PHE71      -0.0200
     90  CD1       34.8390   -5.3350  -29.7190 C.ar   71  PHE71      -0.0042
     91  CD2       35.5600   -5.2460  -27.4360 C.ar   71  PHE71      -0.0042
     92  CE1       35.5830   -6.4870  -29.9150 C.ar   71  PHE71      -0.0003
     93  CE2       36.3100   -6.3990  -27.6200 C.ar   71  PHE71      -0.0003
     94  CZ        36.3170   -7.0190  -28.8660 C.ar   71  PHE71      -0.0000
     95  N         31.9100   -1.8620  -26.2900 N.am   72  MET72      -0.1963
     96  CA        31.3350   -0.5420  -26.0290 C.3    72  MET72       0.1736
     97  C         32.1210    0.5590  -26.7290 C.2    72  MET72       0.2617
     98  O         31.5230    1.4900  -27.2820 O.2    72  MET72      -0.2715
     99  CB        31.2670   -0.2730  -24.5260 C.3    72  MET72       0.0427
    100  CG        30.1930   -1.1020  -23.8100 C.3    72  MET72       0.0599
    101  SD        30.8260   -2.7370  -23.3390 S.3    72  MET72      -0.1393
    102  CE        31.7540   -2.3240  -21.8520 C.3    72  MET72       0.0692
    103  N         33.4590    0.4780  -26.7020 N.am   73  THR73      -0.1937
    104  CA        34.2970    1.5420  -27.2630 C.3    73  THR73       0.2028
    105  C         33.9990    1.7610  -28.7380 C.2    73  THR73       0.2642
    106  O         33.8390    2.9030  -29.1900 O.2    73  THR73      -0.2714
    107  CB        35.7890    1.2190  -27.0960 C.3    73  THR73       0.1808
    108  OG1       36.0440   -0.1400  -27.5000 O.3    73  THR73      -0.2208
    109  CG2       36.2440    1.4170  -25.6630 C.3    73  THR73       0.0379
    110  N         33.9680    0.6830  -29.5180 N.am   74  THR74      -0.1950
    111  CA        33.7170    0.8430  -30.9430 C.3    74  THR74       0.1897
    112  C         32.2510    1.1290  -31.2320 C.2    74  THR74       0.2313
    113  O         31.9340    1.6840  -32.2910 O.2    74  THR74      -0.2863
    114  CB        34.1780   -0.3930  -31.7270 C.3    74  THR74       0.1794
    115  OG1       33.3910   -1.5190  -31.3450 O.3    74  THR74      -0.2208
    116  CG2       35.6610   -0.6970  -31.4680 C.3    74  THR74       0.0378
    117  N         38.7570    6.1170  -22.7100 N.3   116  GLU116     -0.1245
    118  CA        39.0610    4.8180  -22.1280 C.3   116  GLU116      0.1567
    119  C         39.9250    5.0410  -20.8970 C.2   116  GLU116      0.2260
    120  O         40.8650    5.8360  -20.9380 O.2   116  GLU116     -0.2867
    121  CB        39.7810    3.9060  -23.1300 C.3   116  GLU116      0.0388
    122  CG        38.8810    3.4260  -24.2640 C.3   116  GLU116      0.1160
    123  CD        39.6500    2.8170  -25.4310 C.2   116  GLU116      0.3649
    124  OE1       40.0450    1.6370  -25.3250 O.co2 116  GLU116     -0.2457
    125  OE2       39.8520    3.5170  -26.4510 O.co2 116  GLU116     -0.2457
    126  N         43.7080    0.4100  -17.3250 N.3   119  TYR119     -0.1241
    127  CA        43.3430   -0.9460  -16.9340 C.3   119  TYR119      0.1605
    128  C         43.5700   -1.1640  -15.4450 C.2   119  TYR119      0.2264
    129  O         44.6460   -0.8600  -14.9170 O.2   119  TYR119     -0.2867
    130  CB        44.1750   -1.9370  -17.7560 C.3   119  TYR119      0.0534
    131  CG        43.9100   -3.4270  -17.5480 C.ar  119  TYR119     -0.0201
    132  CD1       44.2830   -4.0700  -16.3710 C.ar  119  TYR119     -0.0009
    133  CD2       43.3470   -4.1960  -18.5640 C.ar  119  TYR119     -0.0009
    134  CE1       44.0750   -5.4350  -16.1890 C.ar  119  TYR119      0.0417
    135  CE2       43.1280   -5.5650  -18.3950 C.ar  119  TYR119      0.0417
    136  CZ        43.4970   -6.1760  -17.2040 C.ar  119  TYR119      0.1957
    137  OH        43.2910   -7.5250  -17.0360 O.3   119  TYR119     -0.2866
    138  N         33.4070   -3.9060  -18.9300 N.3   138  GLY138     -0.1225
    139  CA        33.2610   -5.3420  -19.0750 C.3   138  GLY138      0.1811
    140  C         33.5460   -6.0330  -17.7510 C.2   138  GLY138      0.2280
    141  O         34.3570   -5.5580  -16.9520 O.2   138  GLY138     -0.2866
    142  N         31.4100  -15.2920  -16.3500 N.3   142  ARG142     -0.1245
    143  CA        31.3770  -16.6820  -16.7800 C.3   142  ARG142      0.1563
    144  C         31.0210  -17.6270  -15.6490 C.2   142  ARG142      0.2260
    145  O         30.7650  -18.8110  -15.8990 O.2   142  ARG142     -0.2867
    146  CB        32.7340  -17.0980  -17.3500 C.3   142  ARG142      0.0307
    147  CG        33.1320  -16.4550  -18.6710 C.3   142  ARG142      0.0489
    148  CD        34.5700  -16.8490  -19.0060 C.3   142  ARG142      0.2205
    149  NE        35.0830  -16.1460  -20.1780 N.pl3 142  ARG142     -0.0865
    150  CZ        35.6960  -14.9680  -20.1350 C.cat 142  ARG142      0.5346
    151  NH1       35.8720  -14.3470  -18.9690 N.pl3 142  ARG142      0.1354
    152  NH2       36.1300  -14.4080  -21.2600 N.pl3 142  ARG142      0.1354
    153  N         40.3490  -11.2580  -14.4650 N.3   161  GLN161     -0.1231
    154  CA        40.2870   -9.9210  -15.0420 C.3   161  GLN161      0.1698
    155  C         40.0060   -9.9490  -16.5460 C.2   161  GLN161      0.2592
    156  O         40.0250   -8.8970  -17.1930 O.2   161  GLN161     -0.2718
    157  CB        41.5830   -9.1660  -14.7330 C.3   161  GLN161      0.0381
    158  CG        41.8550   -9.0830  -13.2190 C.3   161  GLN161      0.0905
    159  CD        43.1510   -8.3720  -12.8790 C.2   161  GLN161      0.2608
    160  OE1       43.3180   -7.1890  -13.1610 O.2   161  GLN161     -0.2717
    161  NE2       44.0750   -9.0960  -12.2650 N.am  161  GLN161     -0.0878
    162  N         39.7470  -11.1330  -17.1020 N.am  162  ASN162     -0.1960
    163  CA        39.3810  -11.3190  -18.5010 C.3   162  ASN162      0.1819
    164  C         37.8620  -11.1800  -18.6130 C.2   162  ASN162      0.2621
    165  O         37.1270  -11.9450  -17.9820 O.2   162  ASN162     -0.2715
    166  CB        39.8820  -12.6970  -18.9540 C.3   162  ASN162      0.1195
    167  CG        39.5560  -13.0290  -20.4180 C.2   162  ASN162      0.2630
    168  OD1       38.4350  -12.8310  -20.8980 O.2   162  ASN162     -0.2716
    169  ND2       40.5460  -13.5950  -21.1210 N.am  162  ASN162     -0.0877
    170  N         37.3840  -10.2160  -19.4020 N.am  163  VAL163     -0.1963
    171  CA        35.9740   -9.8140  -19.3650 C.3   163  VAL163      0.1727
    172  C         35.2470  -10.2980  -20.6210 C.2   163  VAL163      0.2616
    173  O         35.8240  -10.3250  -21.7110 O.2   163  VAL163     -0.2715
    174  CB        35.8330   -8.2870  -19.1860 C.3   163  VAL163      0.0290
    175  CG1       36.4980   -7.8350  -17.8750 C.3   163  VAL163      0.0023
    176  CG2       36.4500   -7.5490  -20.3700 C.3   163  VAL163      0.0023
    177  N         33.9690  -10.6950  -20.4620 N.am  164  ASN164     -0.1958
    178  CA        33.1630  -11.1150  -21.6080 C.3   164  ASN164      0.1819
    179  C         31.7160  -10.6280  -21.5580 C.2   164  ASN164      0.2621
    180  O         30.8810  -11.1470  -22.3130 O.2   164  ASN164     -0.2715
    181  CB        33.1580  -12.6490  -21.7440 C.3   164  ASN164      0.1195
    182  CG        32.3230  -13.3220  -20.6720 C.2   164  ASN164      0.2630
    183  OD1       32.3000  -12.8760  -19.5270 O.2   164  ASN164     -0.2716
    184  ND2       31.6260  -14.3990  -21.0380 N.am  164  ASN164     -0.0877
    185  N         31.3840   -9.6520  -20.7160 N.am  165  HIS165     -0.1959
    186  CA        29.9910   -9.2470  -20.5580 C.3   165  HIS165      0.1787
    187  C         29.9330   -7.7610  -20.2300 C.2   165  HIS165      0.2620
    188  O         30.6120   -7.3060  -19.3080 O.2   165  HIS165     -0.2715
    189  CB        29.3190  -10.0780  -19.4590 C.3   165  HIS165      0.0785
    190  CG        27.8980   -9.6920  -19.1860 C.ar  165  HIS165      0.0821
    191  ND1       26.8730   -9.9660  -20.0620 N.ar  165  HIS165     -0.2267
    192  CD2       27.3310   -9.0600  -18.1320 C.ar  165  HIS165      0.1154
    193  CE1       25.7370   -9.5170  -19.5640 C.ar  165  HIS165      0.1986
    194  NE2       25.9860   -8.9580  -18.3960 N.ar  165  HIS165     -0.2212
    195  N         29.1400   -7.0040  -20.9890 N.am  166  GLY166     -0.1954
    196  CA        29.0730   -5.5630  -20.8070 C.3   166  GLY166      0.1869
    197  C         28.0110   -5.1730  -19.7970 C.2   166  GLY166      0.2309
    198  O         26.8930   -5.6840  -19.8370 O.2   166  GLY166     -0.2863
    199  N         38.5680   -2.6600  -18.7020 N.3   212  PHE212     -0.1241
    200  CA        38.3550   -1.8820  -19.9230 C.3   212  PHE212      0.1605
    201  C         37.1500   -0.9510  -19.7770 C.2   212  PHE212      0.2264
    202  O         36.1320   -1.1070  -20.4650 O.2   212  PHE212     -0.2867
    203  CB        38.1890   -2.8180  -21.1170 C.3   212  PHE212      0.0534
    204  CG        39.4060   -3.6630  -21.3880 C.ar  212  PHE212     -0.0203
    205  CD1       40.5670   -3.0830  -21.8680 C.ar  212  PHE212     -0.0042
    206  CD2       39.3910   -5.0240  -21.1540 C.ar  212  PHE212     -0.0042
    207  CE1       41.6970   -3.8460  -22.1110 C.ar  212  PHE212     -0.0003
    208  CE2       40.5210   -5.8060  -21.4110 C.ar  212  PHE212     -0.0003
    209  CZ        41.6700   -5.2170  -21.8920 C.ar  212  PHE212     -0.0000
@<TRIPOS>BOND
     1    57    56    1
     2    54    56   ar
     3    54    52   ar
     4    56    55   ar
     5    46    47    1
     6    52    51   ar
     7    55    53   ar
     8    51    53   ar
     9    51    50    1
    10    47    50    1
    11    47    48    1
    12    58    59    1
    13    58    48   am
    14    59    60    1
    15    48    49    2
    16    75    73   am
    17    60    61    2
    18    73    72    1
    19    73    74    2
    20   113   112    2
    21    72    69    1
    22    62    63    1
    23   114   116    1
    24   114   115    1
    25   114   111    1
    26    67    66    1
    27    67    21    1
    28    66    63    1
    29    68    69    1
    30    68    64   am
    31   112   111    1
    32    45    43   ar
    33    45    44   ar
    34    63    64    1
    35   111   110    1
    36    69    70    1
    37    79    78    2
    38    43    41   ar
    39    64    65    2
    40    44    42   ar
    41    70    76   am
    42    70    71    2
    43    92    90   ar
    44    92    94   ar
    45    76    77    1
    46    90    89   ar
    47    78    77    1
    48    78    80   am
    49    21    20    1
    50   110   105   am
    51    41    40   ar
    52    41    39   ar
    53    81    80    1
    54    81    82    1
    55   106   105    2
    56    42    39   ar
    57    94    93   ar
    58    40    38   ar
    59    13    12    2
    60   105   104    1
    61    39    37   ar
    62    20    17    1
    63    84    82   am
    64    84    85    1
    65    87    86    2
    66    89    88    1
    67    89    91   ar
    68    82    83    2
    69    88    85    1
    70    17    18    1
    71    17    16    1
    72    85    86    1
    73    93    91   ar
    74    38    37   ar
    75    25    24    2
    76    12    16   am
    77    12    11    1
    78    86    95   am
    79   108   107    1
    80    22    18   am
    81    22    23    1
    82    37    36    1
    83    98    97    2
    84   104   107    1
    85   104   103    1
    86    14    11    1
    87    14    15    1
    88    18    19    2
    89   107   109    1
    90    24    23    1
    91    97   103   am
    92    97    96    1
    93    11    10    1
    94   125   123   ar
    95    95    96    1
    96    36    33    1
    97    96    99    1
    98    34    35    2
    99    34    33    1
   100     4     3    2
   101   123   124   ar
   102   123   122    1
   103    33    32    1
   104    32    28   am
   105    26    27    1
   106    99   100    1
   107     3     2    1
   108   122   121    1
   109   100   101    1
   110    28    27    1
   111    28    29    2
   112     2     5    1
   113     2     1    1
   114     5     6    1
   115    27    30    1
   116     9     7   am
   117   101   102    1
   118   121   118    1
   119    31    30    1
   120     6     7    1
   121   117   118    1
   122     7     8    2
   123   180   179    2
   124   118   119    1
   125   207   209   ar
   126   207   205   ar
   127   209   208   ar
   128   205   204   ar
   129   181   178    1
   130   181   182    1
   131   173   172    2
   132   178   179    1
   133   178   177    1
   134   179   185   am
   135   208   206   ar
   136   204   206   ar
   137   204   203    1
   138   152   150    1
   139   169   167   am
   140   203   200    1
   141   184   182   am
   142   195   196    1
   143   195   187   am
   144   120   119    2
   145   168   167    2
   146   196   197    1
   147   185   186    1
   148   182   183    2
   149   172   177   am
   150   172   171    1
   151   186   187    1
   152   186   189    1
   153   202   201    2
   154   167   166    1
   155   176   174    1
   156   187   188    2
   157   149   150    2
   158   149   148    1
   159   150   151    1
   160   191   193   ar
   161   191   190   ar
   162   200   201    1
   163   200   199    1
   164   198   197    2
   165   193   194   ar
   166   189   190    1
   167   170   171    1
   168   170   164   am
   169   171   174    1
   170   190   192   ar
   171   174   175    1
   172   139   138    1
   173   139   140    1
   174   148   147    1
   175   166   163    1
   176   147   146    1
   177   164   163    1
   178   164   165    2
   179   133   135   ar
   180   133   131   ar
   181   163   162    1
   182   194   192   ar
   183   135   136   ar
   184   130   131    1
   185   130   127    1
   186   140   141    2
   187   131   132   ar
   188   146   143    1
   189   126   127    1
   190   136   137    1
   191   136   134   ar
   192   156   155    2
   193   162   155   am
   194   127   128    1
   195   143   142    1
   196   143   144    1
   197   155   154    1
   198   132   134   ar
   199   145   144    2
   200   128   129    2
   201   154   157    1
   202   154   153    1
   203   157   158    1
   204   158   159    1
   205   160   159    2
   206   159   161   am
