@<TRIPOS>MOLECULE
tmp/5qcfA00.pdb
 212 210 0 0 0
SMALL
GASTEIGER

@<TRIPOS>ATOM
      1  N        -15.0810  -11.9170  -27.8090 N.3    23  GLY23      -0.1225
      2  CA       -13.8680  -11.5160  -27.1130 C.3    23  GLY23       0.1811
      3  C        -13.4360  -10.1110  -27.5060 C.2    23  GLY23       0.2280
      4  O        -12.3730   -9.9090  -28.0930 O.2    23  GLY23      -0.2866
      5  N        -13.2420   -7.4980  -25.2300 N.3    25  SER25      -0.1202
      6  CA       -13.0000   -6.7800  -23.9830 C.3    25  SER25       0.2020
      7  C        -12.1590   -5.5280  -24.2280 C.2    25  SER25       0.2618
      8  O        -12.3820   -4.4790  -23.6160 O.2    25  SER25      -0.2717
      9  CB       -12.3330   -7.6710  -22.9340 C.3    25  SER25       0.2103
     10  OG       -10.9540   -7.8580  -23.2120 O.3    25  SER25      -0.2182
     11  N        -11.1940   -5.6490  -25.1210 N.am   26  TRP26      -0.1975
     12  CA       -10.3980   -4.5060  -25.5550 C.3    26  TRP26       0.1640
     13  C        -11.2460   -3.2850  -25.9640 C.2    26  TRP26       0.2290
     14  O        -10.9040   -2.1530  -25.6060 O.2    26  TRP26      -0.2864
     15  CB        -9.4680   -4.9240  -26.6900 C.3    26  TRP26       0.0576
     16  CG       -10.1600   -5.3460  -27.9430 C.ar   26  TRP26       0.0006
     17  CD1      -10.6270   -6.5870  -28.2500 C.ar   26  TRP26       0.0946
     18  CD2      -10.4190   -4.5230  -29.0890 C.ar   26  TRP26       0.0152
     19  NE1      -11.1850   -6.5920  -29.5130 N.ar   26  TRP26      -0.2442
     20  CE2      -11.0590   -5.3380  -30.0530 C.ar   26  TRP26       0.0810
     21  CE3      -10.1570   -3.1810  -29.4020 C.ar   26  TRP26       0.0012
     22  CZ2      -11.4690   -4.8500  -31.2880 C.ar   26  TRP26       0.0191
     23  CZ3      -10.5680   -2.6940  -30.6550 C.ar   26  TRP26       0.0001
     24  CH2      -11.2050   -3.5390  -31.5790 C.ar   26  TRP26       0.0015
     25  N         -4.8250   -1.6490  -37.0720 N.3    61  TYR61      -0.1227
     26  CA        -4.6050   -1.4510  -35.6360 C.3    61  TYR61       0.1736
     27  C         -4.2340   -2.7320  -34.9100 C.2    61  TYR61       0.2596
     28  O         -4.1260   -2.7470  -33.6600 O.2    61  TYR61      -0.2718
     29  CB        -5.8720   -0.8210  -35.0540 C.3    61  TYR61       0.0548
     30  CG        -6.1910    0.4240  -35.8240 C.ar   61  TYR61      -0.0200
     31  CD1       -7.1110    0.4070  -36.8750 C.ar   61  TYR61      -0.0009
     32  CD2       -5.4770    1.5970  -35.5910 C.ar   61  TYR61      -0.0009
     33  CE1       -7.3520    1.5490  -37.6330 C.ar   61  TYR61       0.0417
     34  CE2       -5.7260    2.7550  -36.3300 C.ar   61  TYR61       0.0417
     35  CZ        -6.6550    2.7200  -37.3510 C.ar   61  TYR61       0.1957
     36  OH        -6.9000    3.8480  -38.0770 O.3    61  TYR61      -0.2866
     37  N         -3.9800   -3.7980  -35.6830 N.am   62  GLY62      -0.1957
     38  CA        -3.6450   -5.0920  -35.1130 C.3    62  GLY62       0.1869
     39  C         -4.7570   -5.7440  -34.3060 C.2    62  GLY62       0.2309
     40  O         -4.4810   -6.5580  -33.4320 O.2    62  GLY62      -0.2863
     41  N        -12.1030  -11.7620  -31.7310 N.3    67  ASN67      -0.1225
     42  CA       -10.8810  -12.5120  -31.3820 C.3    67  ASN67       0.1785
     43  C         -9.7500  -11.6550  -30.7520 C.2    67  ASN67       0.2598
     44  O         -8.5980  -12.0690  -30.7280 O.2    67  ASN67      -0.2718
     45  CB       -10.3590  -13.2380  -32.6330 C.3    67  ASN67       0.1169
     46  CG       -11.3440  -14.2600  -33.1600 C.2    67  ASN67       0.2627
     47  OD1      -12.2410  -14.6900  -32.4500 O.2    67  ASN67      -0.2716
     48  ND2      -11.1740  -14.6610  -34.4280 N.am   67  ASN67      -0.0877
     49  N        -10.0840  -10.4760  -30.2300 N.am   68  GLY68      -0.1942
     50  CA        -9.1530   -9.7330  -29.4110 C.3    68  GLY68       0.2014
     51  C         -8.5620   -8.5210  -30.0910 C.2    68  GLY68       0.2639
     52  O         -8.8360   -8.2370  -31.2670 O.2    68  GLY68      -0.2714
     53  N         -7.7290   -7.8140  -29.3300 N.am   69  GLY69      -0.1939
     54  CA        -7.2170   -6.5150  -29.7250 C.3    69  GLY69       0.2014
     55  C         -6.6450   -5.7300  -28.5630 C.2    69  GLY69       0.2639
     56  O         -6.4350   -6.2700  -27.4690 O.2    69  GLY69      -0.2714
     57  N         -6.4070   -4.4510  -28.8130 N.am   70  PHE70      -0.1959
     58  CA        -5.6520   -3.5820  -27.9140 C.3    70  PHE70       0.1771
     59  C         -6.3590   -2.2410  -27.7910 C.2    70  PHE70       0.2619
     60  O         -6.8470   -1.6830  -28.7770 O.2    70  PHE70      -0.2715
     61  CB        -4.2190   -3.3340  -28.4390 C.3    70  PHE70       0.0574
     62  CG        -3.4710   -4.5950  -28.7540 C.ar   70  PHE70      -0.0200
     63  CD1       -3.5370   -5.1540  -30.0240 C.ar   70  PHE70      -0.0042
     64  CD2       -2.7340   -5.2440  -27.7810 C.ar   70  PHE70      -0.0042
     65  CE1       -2.8520   -6.3350  -30.3280 C.ar   70  PHE70      -0.0003
     66  CE2       -2.0570   -6.4280  -28.0690 C.ar   70  PHE70      -0.0003
     67  CZ        -2.1100   -6.9680  -29.3430 C.ar   70  PHE70      -0.0000
     68  N         -6.4160   -1.7560  -26.5590 N.am   71  MET71      -0.1963
     69  CA        -6.9660   -0.4280  -26.2520 C.3    71  MET71       0.1736
     70  C         -6.1810    0.7070  -26.8880 C.2    71  MET71       0.2617
     71  O         -6.7850    1.6620  -27.3660 O.2    71  MET71      -0.2715
     72  CB        -7.0140   -0.2090  -24.7360 C.3    71  MET71       0.0427
     73  CG        -7.9740   -1.1610  -24.0480 C.3    71  MET71       0.0599
     74  SD        -7.3630   -2.8190  -23.6980 S.3    71  MET71      -0.1393
     75  CE        -6.6010   -2.4870  -22.1030 C.3    71  MET71       0.0692
     76  N         -4.8510    0.6220  -26.8720 N.am   72  THR72      -0.1937
     77  CA        -3.9850    1.6780  -27.4530 C.3    72  THR72       0.2028
     78  C         -4.3160    1.9350  -28.9160 C.2    72  THR72       0.2642
     79  O         -4.5390    3.0710  -29.3240 O.2    72  THR72      -0.2714
     80  CB        -2.5100    1.2770  -27.4090 C.3    72  THR72       0.1808
     81  OG1       -2.3830   -0.0520  -27.9410 O.3    72  THR72      -0.2208
     82  CG2       -1.9950    1.2790  -25.9820 C.3    72  THR72       0.0379
     83  N         -4.3530    0.8630  -29.7050 N.am   73  THR73      -0.1950
     84  CA        -4.5940    1.0020  -31.1350 C.3    73  THR73       0.1897
     85  C         -6.0760    1.3150  -31.4360 C.2    73  THR73       0.2313
     86  O         -6.4140    1.9540  -32.4500 O.2    73  THR73      -0.2863
     87  CB        -4.1640   -0.2670  -31.8950 C.3    73  THR73       0.1794
     88  OG1       -5.0010   -1.3640  -31.5050 O.3    73  THR73      -0.2208
     89  CG2       -2.6810   -0.6120  -31.6610 C.3    73  THR73       0.0378
     90  N          0.4850    5.9560  -22.8480 N.3   115  GLU115     -0.1245
     91  CA         0.7550    4.6450  -22.2630 C.3   115  GLU115      0.1567
     92  C          1.6120    4.8570  -21.0230 C.2   115  GLU115      0.2260
     93  O          2.5910    5.6070  -21.0680 O.2   115  GLU115     -0.2867
     94  CB         1.4440    3.7240  -23.2630 C.3   115  GLU115      0.0388
     95  CG         0.6120    3.4520  -24.4940 C.3   115  GLU115      0.1160
     96  CD         1.3700    2.6840  -25.5640 C.2   115  GLU115      0.3649
     97  OE1        1.6780    3.2890  -26.6200 O.co2 115  GLU115     -0.2457
     98  OE2        1.6380    1.4840  -25.3620 O.co2 115  GLU115     -0.2457
     99  N          5.3820    0.1890  -17.3950 N.3   118  TYR118     -0.1241
    100  CA         5.0550   -1.1830  -16.9710 C.3   118  TYR118      0.1605
    101  C          5.2980   -1.4050  -15.4900 C.2   118  TYR118      0.2264
    102  O          6.4100   -1.1640  -14.9660 O.2   118  TYR118     -0.2867
    103  CB         5.8710   -2.2100  -17.7630 C.3   118  TYR118      0.0534
    104  CG         5.5460   -3.6870  -17.5440 C.ar  118  TYR118     -0.0201
    105  CD1        5.8920   -4.3690  -16.3490 C.ar  118  TYR118     -0.0009
    106  CD2        4.9470   -4.4270  -18.5400 C.ar  118  TYR118     -0.0009
    107  CE1        5.6100   -5.7270  -16.1780 C.ar  118  TYR118      0.0417
    108  CE2        4.6760   -5.7730  -18.3750 C.ar  118  TYR118      0.0417
    109  CZ         5.0240   -6.4210  -17.1960 C.ar  118  TYR118      0.1957
    110  OH         4.7500   -7.7750  -17.0560 O.3   118  TYR118     -0.2866
    111  N         -4.9920   -4.1050  -19.0280 N.3   137  GLY137     -0.1225
    112  CA        -5.1290   -5.5400  -19.1150 C.3   137  GLY137      0.1811
    113  C         -4.9080   -6.1620  -17.7460 C.2   137  GLY137      0.2280
    114  O         -4.0980   -5.6600  -16.9300 O.2   137  GLY137     -0.2866
    115  N         -6.9050  -12.4910  -16.0720 N.3   140  ALA140     -0.1231
    116  CA        -8.2210  -12.9050  -15.5980 C.3   140  ALA140      0.1694
    117  C         -8.5420  -14.3800  -15.8930 C.2   140  ALA140      0.2591
    118  O         -9.7120  -14.7810  -15.8170 O.2   140  ALA140     -0.2718
    119  CB        -9.2710  -12.0140  -16.2400 C.3   140  ALA140      0.0304
    120  N         -7.5350  -15.1820  -16.2390 N.am  141  ARG141     -0.1980
    121  CA        -7.7630  -16.5720  -16.7110 C.3   141  ARG141      0.1597
    122  C         -8.0300  -17.5850  -15.5960 C.2   141  ARG141      0.2287
    123  O         -8.4100  -18.7410  -15.8770 O.2   141  ARG141     -0.2864
    124  CB        -6.5780  -17.0690  -17.5520 C.3   141  ARG141      0.0334
    125  CG        -6.5780  -18.5330  -17.8610 C.3   141  ARG141      0.0492
    126  CD        -5.4620  -18.8280  -18.8530 C.3   141  ARG141      0.2205
    127  NE        -4.1590  -18.4450  -18.3250 N.pl3 141  ARG141     -0.0865
    128  CZ        -3.3410  -19.2720  -17.6780 C.cat 141  ARG141      0.5346
    129  NH1       -3.6890  -20.5470  -17.4750 N.pl3 141  ARG141      0.1354
    130  NH2       -2.1680  -18.8160  -17.2380 N.pl3 141  ARG141      0.1354
    131  N        -13.2680  -15.8320  -12.2330 N.3   146  PHE146     -0.1241
    132  CA       -14.6240  -16.1160  -12.7490 C.3   146  PHE146      0.1605
    133  C        -15.6800  -16.1940  -11.6190 C.2   146  PHE146      0.2264
    134  O        -16.8300  -15.8040  -11.8050 O.2   146  PHE146     -0.2867
    135  CB       -14.6000  -17.3990  -13.5930 C.3   146  PHE146      0.0534
    136  CG       -14.0940  -17.2100  -15.0120 C.ar  146  PHE146     -0.0203
    137  CD1      -14.9410  -17.4610  -16.1050 C.ar  146  PHE146     -0.0042
    138  CD2      -12.7700  -16.8300  -15.2730 C.ar  146  PHE146     -0.0042
    139  CE1      -14.4840  -17.3170  -17.4130 C.ar  146  PHE146     -0.0003
    140  CE2      -12.3180  -16.6790  -16.5860 C.ar  146  PHE146     -0.0003
    141  CZ       -13.1660  -16.9260  -17.6490 C.ar  146  PHE146     -0.0000
    142  N          1.8970  -11.4820  -14.4370 N.3   160  GLN160     -0.1231
    143  CA         1.8740  -10.1250  -14.9510 C.3   160  GLN160      0.1698
    144  C          1.5310  -10.0800  -16.4410 C.2   160  GLN160      0.2592
    145  O          1.4700   -9.0000  -17.0160 O.2   160  GLN160     -0.2718
    146  CB         3.2120   -9.4110  -14.6520 C.3   160  GLN160      0.0381
    147  CG         3.4270   -9.2650  -13.1560 C.3   160  GLN160      0.0905
    148  CD         4.6980   -8.5480  -12.8100 C.2   160  GLN160      0.2608
    149  OE1        4.8850   -7.3640  -13.1330 O.2   160  GLN160     -0.2717
    150  NE2        5.5840   -9.2560  -12.1280 N.am  160  GLN160     -0.0878
    151  N          1.2980  -11.2460  -17.0470 N.am  161  ASN161     -0.1960
    152  CA         0.8740  -11.3180  -18.4380 C.3   161  ASN161      0.1819
    153  C         -0.6420  -11.2140  -18.5490 C.2   161  ASN161      0.2621
    154  O         -1.3660  -12.0190  -17.9970 O.2   161  ASN161     -0.2715
    155  CB         1.3520  -12.6140  -19.0780 C.3   161  ASN161      0.1195
    156  CG         2.8600  -12.7600  -19.0090 C.2   161  ASN161      0.2630
    157  OD1        3.6080  -11.8120  -19.2790 O.2   161  ASN161     -0.2716
    158  ND2        3.3180  -13.9430  -18.6230 N.am  161  ASN161     -0.0877
    159  N         -1.1010  -10.2590  -19.3410 N.am  162  VAL162     -0.1963
    160  CA        -2.4890   -9.8900  -19.3790 C.3   162  VAL162      0.1727
    161  C         -3.2320  -10.6550  -20.4780 C.2   162  VAL162      0.2616
    162  O         -2.6660  -11.0310  -21.4930 O.2   162  VAL162     -0.2715
    163  CB        -2.6660   -8.3410  -19.5170 C.3   162  VAL162      0.0290
    164  CG1       -1.9810   -7.6370  -18.3700 C.3   162  VAL162      0.0023
    165  CG2       -2.1260   -7.7790  -20.8370 C.3   162  VAL162      0.0023
    166  N         -4.5250  -10.8560  -20.2760 N.am  163  ASN163     -0.1958
    167  CA        -5.3330  -11.5660  -21.2640 C.3   163  ASN163      0.1819
    168  C         -6.7970  -11.1430  -21.3370 C.2   163  ASN163      0.2621
    169  O         -7.6330  -11.8570  -21.9390 O.2   163  ASN163     -0.2715
    170  CB        -5.2020  -13.0730  -21.0150 C.3   163  ASN163      0.1195
    171  CG        -5.3840  -13.4290  -19.5620 C.2   163  ASN163      0.2630
    172  OD1       -6.3380  -12.9870  -18.9230 O.2   163  ASN163     -0.2716
    173  ND2       -4.4670  -14.2350  -19.0250 N.am  163  ASN163     -0.0877
    174  N         -7.1190  -10.0000  -20.7480 N.am  164  HIS164     -0.1959
    175  CA        -8.4850   -9.5240  -20.6940 C.3   164  HIS164      0.1787
    176  C         -8.4160   -8.0430  -20.3910 C.2   164  HIS164      0.2620
    177  O         -7.7250   -7.6240  -19.4540 O.2   164  HIS164     -0.2715
    178  CB        -9.2600  -10.2490  -19.5990 C.3   164  HIS164      0.0785
    179  CG       -10.7180   -9.9130  -19.5390 C.ar  164  HIS164      0.0821
    180  ND1      -11.5840  -10.1430  -20.5850 N.ar  164  HIS164     -0.2267
    181  CD2      -11.4660   -9.3870  -18.5430 C.ar  164  HIS164      0.1154
    182  CE1      -12.8000   -9.7590  -20.2400 C.ar  164  HIS164      0.1986
    183  NE2      -12.7580   -9.2990  -19.0030 N.ar  164  HIS164     -0.2212
    184  N         -9.1130   -7.2550  -21.2010 N.am  165  GLY165     -0.1954
    185  CA        -9.1160   -5.8140  -21.0330 C.3   165  GLY165      0.1869
    186  C        -10.2370   -5.3520  -20.1170 C.2   165  GLY165      0.2309
    187  O        -11.3920   -5.7720  -20.2640 O.2   165  GLY165     -0.2863
    188  N        -18.7510   -7.9670  -18.1620 N.3   186  TRP186     -0.1241
    189  CA       -19.5020   -9.2240  -18.0320 C.3   186  TRP186      0.1605
    190  C        -20.8740   -9.0150  -17.3930 C.2   186  TRP186      0.2264
    191  O        -21.4420   -9.9440  -16.7960 O.2   186  TRP186     -0.2867
    192  CB       -18.7000  -10.2620  -17.2290 C.3   186  TRP186      0.0550
    193  CG       -17.4620  -10.8020  -17.9060 C.ar  186  TRP186      0.0003
    194  CD1      -17.0100  -10.5380  -19.1640 C.ar  186  TRP186      0.0946
    195  CD2      -16.5580  -11.7560  -17.3540 C.ar  186  TRP186      0.0152
    196  NE1      -15.8720  -11.2670  -19.4240 N.ar  186  TRP186     -0.2442
    197  CE2      -15.5600  -11.9980  -18.3170 C.ar  186  TRP186      0.0810
    198  CE3      -16.4790  -12.4150  -16.1130 C.ar  186  TRP186      0.0012
    199  CZ2      -14.5060  -12.8860  -18.0970 C.ar  186  TRP186      0.0191
    200  CZ3      -15.4330  -13.2840  -15.8910 C.ar  186  TRP186      0.0001
    201  CH2      -14.4510  -13.5100  -16.8790 C.ar  186  TRP186      0.0015
    202  N          0.2170   -2.8830  -18.7910 N.3   211  PHE211     -0.1241
    203  CA        -0.0430   -2.0540  -19.9930 C.3   211  PHE211      0.1605
    204  C         -1.2370   -1.1110  -19.8530 C.2   211  PHE211      0.2264
    205  O         -2.2710   -1.2640  -20.5340 O.2   211  PHE211     -0.2867
    206  CB        -0.1570   -2.9480  -21.2460 C.3   211  PHE211      0.0534
    207  CG         1.1110   -3.7040  -21.5270 C.ar  211  PHE211     -0.0203
    208  CD1        2.2070   -3.0460  -22.1040 C.ar  211  PHE211     -0.0042
    209  CD2        1.2450   -5.0450  -21.1500 C.ar  211  PHE211     -0.0042
    210  CE1        3.4110   -3.7310  -22.3360 C.ar  211  PHE211     -0.0003
    211  CE2        2.4430   -5.7250  -21.3840 C.ar  211  PHE211     -0.0003
    212  CZ         3.5290   -5.0540  -21.9670 C.ar  211  PHE211     -0.0000
@<TRIPOS>BOND
     1    36    35    1
     2    33    35   ar
     3    33    31   ar
     4    35    34   ar
     5    25    26    1
     6    31    30   ar
     7    34    32   ar
     8    30    32   ar
     9    30    29    1
    10    37    38    1
    11    37    27   am
    12    26    29    1
    13    26    27    1
    14    38    39    1
    15    27    28    2
    16    48    46   am
    17    39    40    2
    18    46    45    1
    19    46    47    2
    20    45    42    1
    21    86    85    2
    22    87    89    1
    23    87    88    1
    24    87    84    1
    25    41    42    1
    26    24    22   ar
    27    24    23   ar
    28    85    84    1
    29    42    43    1
    30    22    20   ar
    31    52    51    2
    32    84    83    1
    33    43    44    2
    34    43    49   am
    35    23    21   ar
    36    65    63   ar
    37    65    67   ar
    38    49    50    1
    39    51    50    1
    40    51    53   am
    41    20    19   ar
    42    20    18   ar
    43    63    62   ar
    44    54    53    1
    45    54    55    1
    46    83    78   am
    47    19    17   ar
    48    21    18   ar
    49    67    66   ar
    50    79    78    2
    51    18    16   ar
    52    78    77    1
    53    57    55   am
    54    57    58    1
    55    60    59    2
    56    62    61    1
    57    62    64   ar
    58    55    56    2
    59    61    58    1
    60    17    16   ar
    61     4     3    2
    62    66    64   ar
    63    16    15    1
    64    81    80    1
    65    58    59    1
    66     1     2    1
    67    59    68   am
    68     3     2    1
    69    77    80    1
    70    77    76    1
    71    80    82    1
    72    71    70    2
    73    70    76   am
    74    70    69    1
    75    15    12    1
    76    97    96   ar
    77    68    69    1
    78    69    72    1
    79    13    14    2
    80    13    12    1
    81    96    98   ar
    82    96    95    1
    83    12    11    1
    84     5     6    1
    85    11     7   am
    86    72    73    1
    87    95    94    1
    88     7     6    1
    89     7     8    2
    90    73    74    1
    91     6     9    1
    92    74    75    1
    93    94    91    1
    94    10     9    1
    95    90    91    1
    96   210   208   ar
    97   210   212   ar
    98    91    92    1
    99   208   207   ar
   100   212   211   ar
   101   169   168    2
   102   207   206    1
   103   207   209   ar
   104   162   161    2
   105   211   209   ar
   106   168   167    1
   107   168   174   am
   108   167   170    1
   109   167   166    1
   110   206   203    1
   111   184   185    1
   112   184   176   am
   113    93    92    2
   114   185   186    1
   115   170   171    1
   116   165   163    1
   117   174   175    1
   118   175   176    1
   119   175   178    1
   120   180   182   ar
   121   180   179   ar
   122   205   204    2
   123   161   166   am
   124   161   160    1
   125   176   177    2
   126   187   186    2
   127   182   183   ar
   128   203   204    1
   129   203   202    1
   130   178   179    1
   131   171   173   am
   132   171   172    2
   133   179   181   ar
   134   163   160    1
   135   163   164    1
   136   196   194   ar
   137   196   197   ar
   138   160   159    1
   139   159   153   am
   140   157   156    2
   141   194   193   ar
   142   112   111    1
   143   112   113    1
   144   155   156    1
   145   155   152    1
   146   156   158   am
   147   183   181   ar
   148   126   127    1
   149   126   125    1
   150   153   152    1
   151   153   154    2
   152   106   108   ar
   153   106   104   ar
   154   152   151    1
   155   108   109   ar
   156   127   128    2
   157   197   199   ar
   158   197   195   ar
   159   188   189    1
   160   199   201   ar
   161   189   190    1
   162   189   192    1
   163   193   195   ar
   164   193   192    1
   165   125   124    1
   166   103   104    1
   167   103   100    1
   168   113   114    2
   169   128   129    1
   170   128   130    1
   171   141   139   ar
   172   141   140   ar
   173   124   121    1
   174   104   105   ar
   175   139   137   ar
   176    99   100    1
   177   190   191    2
   178   195   198   ar
   179   109   110    1
   180   109   107   ar
   181   151   144   am
   182   145   144    2
   183   100   101    1
   184   201   200   ar
   185   121   120    1
   186   121   122    1
   187   140   138   ar
   188   144   143    1
   189   105   107   ar
   190   119   116    1
   191   120   117   am
   192   198   200   ar
   193   137   136   ar
   194   115   116    1
   195   117   118    2
   196   117   116    1
   197   123   122    2
   198   101   102    2
   199   138   136   ar
   200   136   135    1
   201   143   146    1
   202   143   142    1
   203   146   147    1
   204   135   132    1
   205   147   148    1
   206   149   148    2
   207   148   150   am
   208   132   131    1
   209   132   133    1
   210   134   133    2
