@<TRIPOS>MOLECULE
tmp/5qchB00.pdb
 212 210 0 0 0
SMALL
GASTEIGER

@<TRIPOS>ATOM
      1  N        -48.1820  -25.1450   35.7390 N.3    24  GLY24      -0.1225
      2  CA       -47.3840  -25.1240   36.9550 C.3    24  GLY24       0.1811
      3  C        -47.0030  -26.5130   37.4190 C.2    24  GLY24       0.2280
      4  O        -47.3240  -26.9060   38.5440 O.2    24  GLY24      -0.2866
      5  N        -43.6610  -27.7080   37.5300 N.3    26  SER26      -0.1202
      6  CA       -42.2050  -27.7810   37.7470 C.3    26  SER26       0.2020
      7  C        -41.8300  -29.0040   38.6080 C.2    26  SER26       0.2618
      8  O        -40.7820  -29.6010   38.3870 O.2    26  SER26      -0.2717
      9  CB       -41.6680  -26.5010   38.3870 C.3    26  SER26       0.2103
     10  OG       -41.9420  -26.4380   39.7790 O.3    26  SER26      -0.2182
     11  N        -42.7080  -29.3760   39.5630 N.am   27  TRP27      -0.1975
     12  CA       -42.5370  -30.5390   40.4410 C.3    27  TRP27       0.1640
     13  C        -42.3920  -31.8570   39.6450 C.2    27  TRP27       0.2290
     14  O        -41.5810  -32.7100   40.0110 O.2    27  TRP27      -0.2864
     15  CB       -43.7100  -30.6390   41.4360 C.3    27  TRP27       0.0576
     16  CG       -45.0540  -30.8560   40.7860 C.ar   27  TRP27       0.0006
     17  CD1      -45.8650  -29.9020   40.2380 C.ar   27  TRP27       0.0946
     18  CD2      -45.7130  -32.1150   40.5740 C.ar   27  TRP27       0.0152
     19  NE1      -47.0050  -30.4830   39.7340 N.ar   27  TRP27      -0.2442
     20  CE2      -46.9360  -31.8430   39.9210 C.ar   27  TRP27       0.0810
     21  CE3      -45.3800  -33.4530   40.8580 C.ar   27  TRP27       0.0012
     22  CZ2      -47.8330  -32.8560   39.5580 C.ar   27  TRP27       0.0191
     23  CZ3      -46.2790  -34.4510   40.5140 C.ar   27  TRP27       0.0001
     24  CH2      -47.4920  -34.1480   39.8750 C.ar   27  TRP27       0.0015
     25  N        -51.6940  -38.1710   46.2150 N.3    62  TYR62      -0.1227
     26  CA       -50.2990  -37.7880   46.4040 C.3    62  TYR62       0.1736
     27  C        -50.1380  -36.3370   46.8200 C.2    62  TYR62       0.2596
     28  O        -49.0140  -35.8350   46.8460 O.2    62  TYR62      -0.2718
     29  CB       -49.5010  -38.1290   45.1330 C.3    62  TYR62       0.0548
     30  CG       -49.5480  -39.6100   44.8570 C.ar   62  TYR62      -0.0200
     31  CD1      -50.5150  -40.1510   44.0100 C.ar   62  TYR62      -0.0009
     32  CD2      -48.7060  -40.4900   45.5310 C.ar   62  TYR62      -0.0009
     33  CE1      -50.6270  -41.5270   43.8210 C.ar   62  TYR62       0.0417
     34  CE2      -48.8150  -41.8690   45.3570 C.ar   62  TYR62       0.0417
     35  CZ       -49.7690  -42.3820   44.4880 C.ar   62  TYR62       0.1957
     36  OH       -49.8450  -43.7350   44.2650 O.3    62  TYR62      -0.2866
     37  N        -51.2510  -35.6830   47.1660 N.am   63  GLY63      -0.1957
     38  CA       -51.2910  -34.2760   47.5550 C.3    63  GLY63       0.1869
     39  C        -50.8360  -33.3240   46.4560 C.2    63  GLY63       0.2309
     40  O        -50.3710  -32.2140   46.7460 O.2    63  GLY63      -0.2863
     41  N        -51.3860  -26.9840   38.8640 N.3    68  ASN68      -0.1225
     42  CA       -51.4840  -26.0980   40.0290 C.3    68  ASN68       0.1785
     43  C        -50.5400  -26.5320   41.1750 C.2    68  ASN68       0.2598
     44  O        -50.8180  -26.2910   42.3450 O.2    68  ASN68      -0.2718
     45  CB       -52.9370  -25.9550   40.4930 C.3    68  ASN68       0.1169
     46  CG       -53.8310  -25.2100   39.5300 C.2    68  ASN68       0.2627
     47  OD1      -53.4230  -24.2510   38.8510 O.2    68  ASN68      -0.2716
     48  ND2      -55.1010  -25.5910   39.5080 N.am   68  ASN68      -0.0877
     49  N        -49.4210  -27.1470   40.8190 N.am   69  GLY69      -0.1942
     50  CA       -48.4080  -27.5300   41.7900 C.3    69  GLY69       0.2014
     51  C        -48.4540  -28.9550   42.2830 C.2    69  GLY69       0.2639
     52  O        -49.3760  -29.7090   41.9860 O.2    69  GLY69      -0.2714
     53  N        -47.4230  -29.3050   43.0310 N.am   70  GLY70      -0.1939
     54  CA       -47.2240  -30.6350   43.5770 C.3    70  GLY70       0.2014
     55  C        -45.8550  -30.7660   44.2080 C.2    70  GLY70       0.2639
     56  O        -45.1560  -29.7630   44.3920 O.2    70  GLY70      -0.2714
     57  N        -45.4570  -32.0180   44.5200 N.am   71  PHE71      -0.1959
     58  CA       -44.2040  -32.3340   45.2100 C.3    71  PHE71       0.1771
     59  C        -43.4670  -33.4560   44.5320 C.2    71  PHE71       0.2619
     60  O        -44.0880  -34.4140   44.0630 O.2    71  PHE71      -0.2715
     61  CB       -44.4890  -32.7240   46.6770 C.3    71  PHE71       0.0574
     62  CG       -45.2710  -31.6820   47.4430 C.ar   71  PHE71      -0.0200
     63  CD1      -46.6630  -31.6950   47.4460 C.ar   71  PHE71      -0.0042
     64  CD2      -44.6170  -30.6650   48.1290 C.ar   71  PHE71      -0.0042
     65  CE1      -47.3850  -30.7020   48.1060 C.ar   71  PHE71      -0.0003
     66  CE2      -45.3430  -29.6700   48.7900 C.ar   71  PHE71      -0.0003
     67  CZ       -46.7230  -29.7060   48.7920 C.ar   71  PHE71      -0.0000
     68  N        -42.1320  -33.3610   44.5260 N.am   72  MET72      -0.1963
     69  CA       -41.2560  -34.3770   43.9390 C.3    72  MET72       0.1736
     70  C        -41.2730  -35.6690   44.7460 C.2    72  MET72       0.2617
     71  O        -41.2870  -36.7420   44.1570 O.2    72  MET72      -0.2715
     72  CB       -39.8250  -33.8410   43.7460 C.3    72  MET72       0.0427
     73  CG       -39.7480  -32.7010   42.7530 C.3    72  MET72       0.0599
     74  SD       -40.1590  -31.0610   43.4290 S.3    72  MET72      -0.1393
     75  CE       -38.6130  -30.6350   44.1910 C.3    72  MET72       0.0692
     76  N        -41.3260  -35.5760   46.0880 N.am   73  THR73      -0.1937
     77  CA       -41.3650  -36.7700   46.9710 C.3    73  THR73       0.2028
     78  C        -42.5690  -37.6790   46.6720 C.2    73  THR73       0.2642
     79  O        -42.3910  -38.8690   46.4500 O.2    73  THR73      -0.2714
     80  CB       -41.3590  -36.3650   48.4400 C.3    73  THR73       0.1808
     81  OG1      -42.4920  -35.5290   48.6820 O.3    73  THR73      -0.2208
     82  CG2      -40.0660  -35.6730   48.8490 C.3    73  THR73       0.0379
     83  N        -43.7750  -37.0970   46.6030 N.am   74  THR74      -0.1950
     84  CA       -45.0080  -37.8410   46.3350 C.3    74  THR74       0.1897
     85  C        -45.1010  -38.2810   44.8710 C.2    74  THR74       0.2313
     86  O        -45.7810  -39.2680   44.5760 O.2    74  THR74      -0.2863
     87  CB       -46.2370  -37.0750   46.8190 C.3    74  THR74       0.1794
     88  OG1      -46.3880  -35.8690   46.0670 O.3    74  THR74      -0.2208
     89  CG2      -46.1970  -36.7880   48.3230 C.3    74  THR74       0.0378
     90  N        -35.0300  -38.0140   51.2870 N.3   116  GLU116     -0.1245
     91  CA       -35.1010  -36.5840   51.5400 C.3   116  GLU116      0.1567
     92  C        -33.8850  -36.1860   52.3390 C.2   116  GLU116      0.2260
     93  O        -33.5050  -36.9060   53.2510 O.2   116  GLU116     -0.2867
     94  CB       -36.3830  -36.2410   52.2850 C.3   116  GLU116      0.0388
     95  CG       -37.6010  -36.4420   51.4060 C.3   116  GLU116      0.1160
     96  CD       -38.8820  -36.3310   52.1800 C.2   116  GLU116      0.3649
     97  OE1      -39.2870  -35.1870   52.4800 O.co2 116  GLU116     -0.2457
     98  OE2      -39.4570  -37.3860   52.5260 O.co2 116  GLU116     -0.2457
     99  N        -32.8090  -30.2100   55.9900 N.3   119  TYR119     -0.1241
    100  CA       -33.0440  -28.8080   55.6370 C.3   119  TYR119      0.1605
    101  C        -31.7920  -27.9330   55.8050 C.2   119  TYR119      0.2264
    102  O        -31.1780  -27.9150   56.8850 O.2   119  TYR119     -0.2867
    103  CB       -34.2060  -28.2530   56.4810 C.3   119  TYR119      0.0534
    104  CG       -34.7060  -26.8850   56.0830 C.ar  119  TYR119     -0.0201
    105  CD1      -33.9120  -25.7490   56.2600 C.ar  119  TYR119     -0.0009
    106  CD2      -36.0140  -26.6990   55.6660 C.ar  119  TYR119     -0.0009
    107  CE1      -34.3720  -24.4810   55.9180 C.ar  119  TYR119      0.0417
    108  CE2      -36.4990  -25.4280   55.3520 C.ar  119  TYR119      0.0417
    109  CZ       -35.6650  -24.3280   55.4600 C.ar  119  TYR119      0.1957
    110  OH       -36.1210  -23.0810   55.1650 O.3   119  TYR119     -0.2866
    111  N        -36.3610  -27.5510   45.6780 N.3   138  GLY138     -0.1225
    112  CA       -37.2140  -26.3940   45.5460 C.3   138  GLY138      0.1811
    113  C        -36.3120  -25.1700   45.6510 C.2   138  GLY138      0.2280
    114  O        -35.2770  -25.2170   46.3290 O.2   138  GLY138     -0.2866
    115  N        -37.8470  -18.7510   43.5320 N.3   141  ALA141     -0.1231
    116  CA       -37.6700  -18.2380   42.1780 C.3   141  ALA141      0.1694
    117  C        -38.6350  -17.0840   41.8410 C.2   141  ALA141      0.2591
    118  O        -38.7810  -16.7390   40.6730 O.2   141  ALA141     -0.2718
    119  CB       -37.8330  -19.3760   41.1860 C.3   141  ALA141      0.0304
    120  N        -39.2680  -16.4800   42.8610 N.am  142  ARG142     -0.1980
    121  CA       -40.2690  -15.4060   42.7130 C.3   142  ARG142      0.1597
    122  C        -39.7230  -14.0400   42.3670 C.2   142  ARG142      0.2287
    123  O        -40.4600  -13.1940   41.8480 O.2   142  ARG142     -0.2864
    124  CB       -41.1100  -15.2840   43.9920 C.3   142  ARG142      0.0334
    125  CG       -42.2960  -16.1910   43.9730 C.3   142  ARG142      0.0492
    126  CD       -43.1100  -16.0970   45.2360 C.3   142  ARG142      0.2205
    127  NE       -44.3240  -16.9000   45.0970 N.pl3 142  ARG142     -0.0865
    128  CZ       -44.8010  -17.7290   46.0160 C.cat 142  ARG142      0.5346
    129  NH1      -44.1810  -17.8700   47.1820 N.pl3 142  ARG142      0.1354
    130  NH2      -45.9070  -18.4130   45.7840 N.pl3 142  ARG142      0.1354
    131  N        -36.3100  -14.3240   36.9920 N.3   147  PHE147     -0.1241
    132  CA       -37.0070  -14.2310   35.7120 C.3   147  PHE147      0.1605
    133  C        -36.1480  -13.6040   34.6090 C.2   147  PHE147      0.2264
    134  O        -36.2960  -13.9630   33.4400 O.2   147  PHE147     -0.2867
    135  CB       -38.3180  -13.4450   35.9010 C.3   147  PHE147      0.0534
    136  CG       -39.4660  -14.2760   36.4220 C.ar  147  PHE147     -0.0203
    137  CD1      -40.5470  -14.5900   35.6000 C.ar  147  PHE147     -0.0042
    138  CD2      -39.4490  -14.7850   37.7160 C.ar  147  PHE147     -0.0042
    139  CE1      -41.5990  -15.3810   36.0690 C.ar  147  PHE147     -0.0003
    140  CE2      -40.5040  -15.5780   38.1830 C.ar  147  PHE147     -0.0003
    141  CZ       -41.5630  -15.8800   37.3500 C.ar  147  PHE147     -0.0000
    142  N        -35.4750  -18.7080   52.1800 N.3   161  GLN161     -0.1231
    143  CA       -35.3210  -20.1590   52.2040 C.3   161  GLN161      0.1698
    144  C        -36.6570  -20.8700   51.9420 C.2   161  GLN161      0.2592
    145  O        -36.7070  -22.0950   51.9180 O.2   161  GLN161     -0.2718
    146  CB       -34.6580  -20.6050   53.5210 C.3   161  GLN161      0.0381
    147  CG       -33.2440  -20.0440   53.6720 C.3   161  GLN161      0.0905
    148  CD       -32.6260  -20.4570   54.9700 C.2   161  GLN161      0.2608
    149  OE1      -32.3810  -21.6410   55.2090 O.2   161  GLN161     -0.2717
    150  NE2      -32.3520  -19.4870   55.8320 N.am  161  GLN161     -0.0878
    151  N        -37.7270  -20.0820   51.7190 N.am  162  ASN162     -0.1960
    152  CA       -39.0760  -20.5640   51.4150 C.3   162  ASN162      0.1819
    153  C        -39.1780  -20.7600   49.9140 C.2   162  ASN162      0.2621
    154  O        -39.1310  -19.8050   49.1420 O.2   162  ASN162     -0.2715
    155  CB       -40.1460  -19.6190   51.9580 C.3   162  ASN162      0.1195
    156  CG       -39.9210  -19.2390   53.4060 C.2   162  ASN162      0.2630
    157  OD1      -39.7810  -18.0580   53.7420 O.2   162  ASN162     -0.2716
    158  ND2      -39.8260  -20.2250   54.2920 N.am  162  ASN162     -0.0877
    159  N        -39.2240  -22.0270   49.5160 N.am  163  VAL163     -0.1963
    160  CA       -39.2210  -22.4730   48.1250 C.3   163  VAL163      0.1727
    161  C        -40.5980  -22.3200   47.4790 C.2   163  VAL163      0.2616
    162  O        -41.6090  -22.3120   48.1860 O.2   163  VAL163     -0.2715
    163  CB       -38.6390  -23.9020   47.9970 C.3   163  VAL163      0.0290
    164  CG1      -37.2630  -23.9600   48.6490 C.3   163  VAL163      0.0023
    165  CG2      -39.5740  -24.9530   48.6090 C.3   163  VAL163      0.0023
    166  N        -40.6190  -22.1620   46.1440 N.am  164  ASN164     -0.1958
    167  CA       -41.8520  -21.9520   45.3800 C.3   164  ASN164      0.1819
    168  C        -41.7690  -22.4560   43.9440 C.2   164  ASN164      0.2621
    169  O        -42.6750  -22.1940   43.1600 O.2   164  ASN164     -0.2715
    170  CB       -42.2670  -20.4680   45.4130 C.3   164  ASN164      0.1195
    171  CG       -41.1340  -19.5170   45.1560 C.2   164  ASN164      0.2630
    172  OD1      -40.4440  -19.6110   44.1470 O.2   164  ASN164     -0.2716
    173  ND2      -40.8950  -18.5930   46.0810 N.am  164  ASN164     -0.0877
    174  N        -40.6850  -23.1560   43.5890 N.am  165  HIS165     -0.1959
    175  CA       -40.4820  -23.6580   42.2300 C.3   165  HIS165      0.1787
    176  C        -39.4980  -24.8440   42.2760 C.2   165  HIS165      0.2620
    177  O        -38.4160  -24.7460   42.8760 O.2   165  HIS165     -0.2715
    178  CB       -39.9630  -22.4990   41.3370 C.3   165  HIS165      0.0785
    179  CG       -39.7270  -22.8510   39.8970 C.ar  165  HIS165      0.0821
    180  ND1      -40.7710  -23.2270   39.0550 N.ar  165  HIS165     -0.2267
    181  CD2      -38.5860  -22.7930   39.1750 C.ar  165  HIS165      0.1154
    182  CE1      -40.2220  -23.4160   37.8680 C.ar  165  HIS165      0.1986
    183  NE2      -38.9110  -23.1550   37.8890 N.ar  165  HIS165     -0.2212
    184  N        -39.9200  -25.9550   41.6780 N.am  166  GLY166     -0.1954
    185  CA       -39.1570  -27.1950   41.6190 C.3   166  GLY166      0.1869
    186  C        -38.1790  -27.2140   40.4670 C.2   166  GLY166      0.2309
    187  O        -38.5500  -26.9450   39.3270 O.2   166  GLY166     -0.2863
    188  N        -37.9170  -24.0600   31.8130 N.3   187  TRP187     -0.1241
    189  CA       -38.4080  -22.8880   31.0920 C.3   187  TRP187      0.1605
    190  C        -37.8010  -22.8340   29.6760 C.2   187  TRP187      0.2264
    191  O        -37.6570  -21.7530   29.0920 O.2   187  TRP187     -0.2867
    192  CB       -38.0750  -21.6010   31.8810 C.3   187  TRP187      0.0550
    193  CG       -38.8630  -21.3700   33.1430 C.ar  187  TRP187      0.0003
    194  CD1      -39.7760  -22.2060   33.7250 C.ar  187  TRP187      0.0946
    195  CD2      -38.8010  -20.2030   33.9760 C.ar  187  TRP187      0.0152
    196  NE1      -40.3170  -21.6130   34.8450 N.ar  187  TRP187     -0.2442
    197  CE2      -39.7080  -20.3990   35.0430 C.ar  187  TRP187      0.0810
    198  CE3      -38.0650  -19.0050   33.9220 C.ar  187  TRP187      0.0012
    199  CZ2      -39.8890  -19.4460   36.0560 C.ar  187  TRP187      0.0191
    200  CZ3      -38.2670  -18.0530   34.9120 C.ar  187  TRP187      0.0001
    201  CH2      -39.1620  -18.2800   35.9650 C.ar  187  TRP187      0.0015
    202  N        -35.4890  -28.3110   50.8260 N.3   212  PHE212     -0.1241
    203  CA       -36.2540  -29.5310   50.6340 C.3   212  PHE212      0.1605
    204  C        -35.6860  -30.4030   49.4700 C.2   212  PHE212      0.2264
    205  O        -36.3720  -30.6330   48.4720 O.2   212  PHE212     -0.2867
    206  CB       -37.7640  -29.2190   50.4940 C.3   212  PHE212      0.0534
    207  CG       -38.3690  -28.6990   51.7810 C.ar  212  PHE212     -0.0203
    208  CD1      -38.7240  -29.5730   52.8090 C.ar  212  PHE212     -0.0042
    209  CD2      -38.5740  -27.3320   51.9720 C.ar  212  PHE212     -0.0042
    210  CE1      -39.2640  -29.0880   54.0130 C.ar  212  PHE212     -0.0003
    211  CE2      -39.1100  -26.8480   53.1760 C.ar  212  PHE212     -0.0003
    212  CZ       -39.4580  -27.7300   54.1880 C.ar  212  PHE212     -0.0000
@<TRIPOS>BOND
     1   191   190    2
     2   190   189    1
     3   189   188    1
     4   189   192    1
     5   192   193    1
     6   193   194   ar
     7   193   195   ar
     8   134   133    2
     9   194   196   ar
    10   198   195   ar
    11   198   200   ar
    12   195   197   ar
    13   133   132    1
    14   196   197   ar
    15   200   201   ar
    16   197   199   ar
    17   137   139   ar
    18   137   136   ar
    19   132   135    1
    20   132   131    1
    21     1     2    1
    22   135   136    1
    23   201   199   ar
    24   139   141   ar
    25   136   138   ar
    26     2     3    1
    27   141   140   ar
    28     3     4    2
    29     5     6    1
    30   138   140   ar
    31     6     9    1
    32     6     7    1
    33   182   183   ar
    34   182   180   ar
    35   183   181   ar
    36     9    10    1
    37     8     7    2
    38     7    11   am
    39    47    46    2
    40    41    42    1
    41   180   179   ar
    42   181   179   ar
    43   187   186    2
    44    48    46   am
    45    46    45    1
    46    22    24   ar
    47    22    20   ar
    48    11    12    1
    49    13    14    2
    50    13    12    1
    51    19    20   ar
    52    19    17   ar
    53    24    23   ar
    54   179   178    1
    55    20    18   ar
    56    42    45    1
    57    42    43    1
    58    17    16   ar
    59    12    15    1
    60   186   185    1
    61    23    21   ar
    62    18    16   ar
    63    18    21   ar
    64   118   117    2
    65    16    15    1
    66    49    43   am
    67    49    50    1
    68    43    44    2
    69   119   116    1
    70   178   175    1
    71   185   184    1
    72   184   176   am
    73    50    51    1
    74   117   116    1
    75   117   120   am
    76   123   122    2
    77    52    51    2
    78   116   115    1
    79   175   176    1
    80   175   174    1
    81   176   177    2
    82    51    53   am
    83   122   121    1
    84   121   120    1
    85   121   124    1
    86    73    74    1
    87    73    72    1
    88    53    54    1
    89   169   168    2
    90    74    75    1
    91    54    55    1
    92   174   168   am
    93    72    69    1
    94    33    31   ar
    95    33    35   ar
    96    69    68    1
    97    69    70    1
    98   168   167    1
    99   125   124    1
   100   125   126    1
   101    31    30   ar
   102    60    59    2
   103   172   171    2
   104    71    70    2
   105    55    56    2
   106    55    57   am
   107    36    35    1
   108    35    34   ar
   109    57    58    1
   110    68    59   am
   111    59    58    1
   112    86    85    2
   113    70    76   am
   114    30    29    1
   115    30    32   ar
   116    85    84    1
   117   127   126    1
   118   127   128    2
   119    29    26    1
   120   171   170    1
   121   171   173   am
   122    58    61    1
   123    34    32   ar
   124   167   170    1
   125   167   166    1
   126   112   113    1
   127   112   111    1
   128   113   114    2
   129   130   128    1
   130   128   129    1
   131    88    87    1
   132    76    77    1
   133   166   161   am
   134    25    26    1
   135    84    83    1
   136    84    87    1
   137    26    27    1
   138    79    78    2
   139    39    40    2
   140    39    38    1
   141    83    78   am
   142    78    77    1
   143    61    62    1
   144    87    89    1
   145    27    28    2
   146    27    37   am
   147    77    80    1
   148    37    38    1
   149    62    63   ar
   150    62    64   ar
   151    63    65   ar
   152   161   160    1
   153   161   162    2
   154   163   160    1
   155   163   165    1
   156   163   164    1
   157    65    67   ar
   158   160   159    1
   159    64    66   ar
   160    80    81    1
   161    80    82    1
   162   205   204    2
   163    66    67   ar
   164   154   153    2
   165   204   203    1
   166   159   153   am
   167   153   152    1
   168   206   203    1
   169   206   207    1
   170   203   202    1
   171    90    91    1
   172    95    96    1
   173    95    94    1
   174   152   151    1
   175   152   155    1
   176    91    94    1
   177    91    92    1
   178   151   144   am
   179   207   209   ar
   180   207   208   ar
   181   145   144    2
   182   144   143    1
   183   155   156    1
   184   209   211   ar
   185   142   143    1
   186    96    97   ar
   187    96    98   ar
   188   143   146    1
   189    92    93    2
   190   208   210   ar
   191   211   212   ar
   192   156   157    2
   193   156   158   am
   194   146   147    1
   195   147   148    1
   196   210   212   ar
   197   148   149    2
   198   148   150   am
   199   110   109    1
   200   108   109   ar
   201   108   106   ar
   202   109   107   ar
   203   100   101    1
   204   100    99    1
   205   100   103    1
   206   106   104   ar
   207   101   102    2
   208   107   105   ar
   209   104   105   ar
   210   104   103    1
