@<TRIPOS>MOLECULE
tmp/5qcjC00.pdb
 173 172 0 0 0
SMALL
GASTEIGER

@<TRIPOS>ATOM
      1  N        -54.5310   37.5400   35.1010 N.3    26  SER26      -0.1202
      2  CA       -55.4380   36.6430   35.7930 C.3    26  SER26       0.2020
      3  C        -55.9360   37.3080   37.1000 C.2    26  SER26       0.2618
      4  O        -57.0750   37.0680   37.4920 O.2    26  SER26      -0.2717
      5  CB       -54.7840   35.2800   36.0730 C.3    26  SER26       0.2103
      6  OG       -53.7350   35.3930   37.0380 O.3    26  SER26      -0.2182
      7  N        -55.1030   38.1470   37.7370 N.am   27  TRP27      -0.1975
      8  CA       -55.5410   38.9300   38.8970 C.3    27  TRP27       0.1640
      9  C        -56.8240   39.7230   38.6070 C.2    27  TRP27       0.2290
     10  O        -57.7380   39.7620   39.4220 O.2    27  TRP27      -0.2864
     11  CB       -54.4250   39.8790   39.4130 C.3    27  TRP27       0.0576
     12  CG       -54.0110   40.9530   38.4320 C.ar   27  TRP27       0.0006
     13  CD1      -53.1240   40.8270   37.4010 C.ar   27  TRP27       0.0946
     14  CD2      -54.4850   42.3040   38.3830 C.ar   27  TRP27       0.0152
     15  NE1      -53.0140   42.0110   36.7140 N.ar   27  TRP27      -0.2442
     16  CE2      -53.8350   42.9360   37.2960 C.ar   27  TRP27       0.0810
     17  CE3      -55.3910   43.0390   39.1480 C.ar   27  TRP27       0.0012
     18  CZ2      -54.0700   44.2730   36.9490 C.ar   27  TRP27       0.0191
     19  CZ3      -55.6140   44.3810   38.8150 C.ar   27  TRP27       0.0001
     20  CH2      -54.9400   44.9860   37.7250 C.ar   27  TRP27       0.0015
     21  N        -49.9040   51.5440   39.4890 N.3    60  GLU60      -0.1231
     22  CA       -48.7900   51.6100   40.4650 C.3    60  GLU60       0.1699
     23  C        -49.2620   51.8870   41.8880 C.2    60  GLU60       0.2592
     24  O        -48.7110   51.3400   42.8460 O.2    60  GLU60      -0.2718
     25  CB       -47.7220   52.6790   40.0940 C.3    60  GLU60       0.0402
     26  CG       -47.0420   52.5260   38.7350 C.3    60  GLU60       0.1161
     27  CD       -47.8830   53.0540   37.5710 C.2    60  GLU60       0.3649
     28  OE1      -48.8660   53.7890   37.8250 O.co2  60  GLU60      -0.2457
     29  OE2      -47.5920   52.7130   36.3990 O.co2  60  GLU60      -0.2457
     30  N        -50.2940   52.7120   42.0260 N.am   61  LYS61      -0.1966
     31  CA       -50.8630   53.0490   43.3350 C.3    61  LYS61       0.1728
     32  C        -51.4060   51.8010   44.0410 C.2    61  LYS61       0.2616
     33  O        -51.4410   51.7500   45.2600 O.2    61  LYS61      -0.2715
     34  CB       -51.9920   54.0830   43.2120 C.3    61  LYS61       0.0311
     35  CG       -51.6760   55.3280   42.4120 C.3    61  LYS61       0.0038
     36  CD       -52.9680   56.0710   42.0930 C.3    61  LYS61       0.0206
     37  CE       -53.9300   55.1610   41.3300 C.3    61  LYS61       0.1093
     38  NZ       -55.2980   55.7250   41.1540 N.3    61  LYS61      -0.1314
     39  N        -51.7990   50.7940   43.2610 N.am   62  TYR62      -0.1960
     40  CA       -52.3690   49.5560   43.7820 C.3    62  TYR62       0.1771
     41  C        -51.4020   48.3700   43.7310 C.2    62  TYR62       0.2620
     42  O        -51.8070   47.2280   43.9680 O.2    62  TYR62      -0.2715
     43  CB       -53.6570   49.2760   43.0030 C.3    62  TYR62       0.0574
     44  CG       -54.6310   50.4090   43.1880 C.ar   62  TYR62      -0.0198
     45  CD1      -54.7740   51.4040   42.2210 C.ar   62  TYR62      -0.0009
     46  CD2      -55.3700   50.5190   44.3590 C.ar   62  TYR62      -0.0009
     47  CE1      -55.6600   52.4570   42.4090 C.ar   62  TYR62       0.0417
     48  CE2      -56.2440   51.5760   44.5560 C.ar   62  TYR62       0.0417
     49  CZ       -56.3840   52.5390   43.5800 C.ar   62  TYR62       0.1957
     50  OH       -57.2610   53.5710   43.7760 O.3    62  TYR62      -0.2866
     51  N        -50.1220   48.6390   43.4480 N.am   63  GLY63      -0.1954
     52  CA       -49.1150   47.5900   43.3270 C.3    63  GLY63       0.1869
     53  C        -49.3010   46.6390   42.1690 C.2    63  GLY63       0.2309
     54  O        -48.7170   45.5660   42.1730 O.2    63  GLY63      -0.2863
     55  N        -50.4930   41.3110   39.2690 N.3    70  GLY70      -0.1210
     56  CA       -51.1730   42.1800   40.2010 C.3    70  GLY70       0.1956
     57  C        -51.9370   41.3910   41.2420 C.2    70  GLY70       0.2612
     58  O        -51.6980   40.1920   41.4230 O.2    70  GLY70      -0.2717
     59  N        -52.8590   42.0730   41.9200 N.am   71  PHE71      -0.1962
     60  CA       -53.5010   41.5280   43.1000 C.3    71  PHE71       0.1771
     61  C        -54.9910   41.7930   43.0610 C.2    71  PHE71       0.2619
     62  O        -55.4190   42.9000   42.6930 O.2    71  PHE71      -0.2715
     63  CB       -52.8900   42.1440   44.3680 C.3    71  PHE71       0.0574
     64  CG       -51.4020   41.9430   44.4800 C.ar   71  PHE71      -0.0200
     65  CD1      -50.5170   42.8970   43.9900 C.ar   71  PHE71      -0.0042
     66  CD2      -50.8890   40.7850   45.0500 C.ar   71  PHE71      -0.0042
     67  CE1      -49.1390   42.7200   44.0940 C.ar   71  PHE71      -0.0003
     68  CE2      -49.5150   40.5850   45.1560 C.ar   71  PHE71      -0.0003
     69  CZ       -48.6350   41.5520   44.6690 C.ar   71  PHE71      -0.0000
     70  N        -55.7740   40.7910   43.4640 N.am   72  MET72      -0.1963
     71  CA       -57.2270   40.9700   43.5240 C.3    72  MET72       0.1736
     72  C        -57.6360   41.9840   44.6040 C.2    72  MET72       0.2617
     73  O        -58.5400   42.7970   44.3810 O.2    72  MET72      -0.2715
     74  CB       -57.9330   39.6370   43.7480 C.3    72  MET72       0.0427
     75  CG       -57.7960   38.6860   42.5730 C.3    72  MET72       0.0599
     76  SD       -56.2500   37.7360   42.5020 S.3    72  MET72      -0.1393
     77  CE       -56.6570   36.5090   43.7480 C.3    72  MET72       0.0692
     78  N        -56.9820   41.9190   45.7650 N.am   73  THR73      -0.1937
     79  CA       -57.2880   42.8050   46.8810 C.3    73  THR73       0.2028
     80  C        -57.2220   44.2630   46.4480 C.2    73  THR73       0.2642
     81  O        -58.1520   45.0220   46.6460 O.2    73  THR73      -0.2714
     82  CB       -56.3260   42.5890   48.0740 C.3    73  THR73       0.1808
     83  OG1      -54.9860   42.6040   47.6170 O.3    73  THR73      -0.2208
     84  CG2      -56.5810   41.2650   48.7550 C.3    73  THR73       0.0379
     85  N        -56.1270   44.6450   45.8210 N.am   74  THR74      -0.1950
     86  CA       -55.9350   46.0440   45.4340 C.3    74  THR74       0.1897
     87  C        -56.7640   46.4150   44.2000 C.2    74  THR74       0.2313
     88  O        -57.1130   47.5850   44.0210 O.2    74  THR74      -0.2863
     89  CB       -54.4560   46.3600   45.2230 C.3    74  THR74       0.1794
     90  OG1      -53.9610   45.6110   44.1160 O.3    74  THR74      -0.2208
     91  CG2      -53.6520   46.0450   46.4820 C.3    74  THR74       0.0378
     92  N        -60.3100   39.8410   53.3450 N.3   116  GLU116     -0.1245
     93  CA       -59.2770   38.8220   53.1560 C.3   116  GLU116      0.1567
     94  C        -59.4650   37.7000   54.1810 C.2   116  GLU116      0.2260
     95  O        -59.7230   37.9640   55.3600 O.2   116  GLU116     -0.2867
     96  CB       -57.8760   39.4180   53.3040 C.3   116  GLU116      0.0388
     97  CG       -57.5250   40.4430   52.2470 C.3   116  GLU116      0.1160
     98  CD       -56.1590   41.0830   52.4740 C.2   116  GLU116      0.3649
     99  OE1      -55.1450   40.5000   52.0840 O.co2 116  GLU116     -0.2457
    100  OE2      -56.1120   42.1800   53.0180 O.co2 116  GLU116     -0.2457
    101  N        -54.7710   32.8420   56.0860 N.3   119  TYR119     -0.1241
    102  CA       -53.8880   31.9830   55.2980 C.3   119  TYR119      0.1605
    103  C        -54.1380   30.5300   55.6160 C.2   119  TYR119      0.2264
    104  O        -54.1700   30.1380   56.7810 O.2   119  TYR119     -0.2867
    105  CB       -52.4260   32.3250   55.6080 C.3   119  TYR119      0.0534
    106  CG       -51.4150   31.5740   54.7710 C.ar  119  TYR119     -0.0201
    107  CD1      -51.0300   30.2680   55.0970 C.ar  119  TYR119     -0.0009
    108  CD2      -50.8110   32.1840   53.6740 C.ar  119  TYR119     -0.0009
    109  CE1      -50.0960   29.5740   54.3370 C.ar  119  TYR119      0.0417
    110  CE2      -49.8610   31.5180   52.9130 C.ar  119  TYR119      0.0417
    111  CZ       -49.5040   30.2100   53.2430 C.ar  119  TYR119      0.1957
    112  OH       -48.5810   29.5480   52.4700 O.3   119  TYR119     -0.2866
    113  N        -55.5550   32.8410   44.8310 N.3   138  GLY138     -0.1225
    114  CA       -54.3300   32.5640   44.0830 C.3   138  GLY138      0.1811
    115  C        -54.0520   31.0770   44.1480 C.2   138  GLY138      0.2280
    116  O        -54.3670   30.4180   45.1660 O.2   138  GLY138     -0.2866
    117  N        -47.4880   26.0370   48.2730 N.3   161  GLN161     -0.1231
    118  CA       -48.4290   26.9990   48.8030 C.3   161  GLN161      0.1698
    119  C        -48.1280   28.4230   48.3560 C.2   161  GLN161      0.2592
    120  O        -48.8020   29.3630   48.7820 O.2   161  GLN161     -0.2718
    121  CB       -48.4840   26.8930   50.3280 C.3   161  GLN161      0.0381
    122  CG       -49.0320   25.5530   50.7780 C.3   161  GLN161      0.0905
    123  CD       -49.1530   25.4540   52.2680 C.2   161  GLN161      0.2608
    124  OE1      -50.0060   26.1050   52.8930 O.2   161  GLN161     -0.2717
    125  NE2      -48.3120   24.6290   52.8520 N.am  161  GLN161     -0.0878
    126  N        -47.1170   28.5880   47.4970 N.am  162  ASN162     -0.1960
    127  CA       -46.7980   29.8990   46.9290 C.3   162  ASN162      0.1819
    128  C        -47.6120   30.0730   45.6540 C.2   162  ASN162      0.2621
    129  O        -47.5630   29.2110   44.7810 O.2   162  ASN162     -0.2715
    130  CB       -45.3160   30.0110   46.6210 C.3   162  ASN162      0.1195
    131  CG       -44.4600   29.7370   47.8490 C.2   162  ASN162      0.2630
    132  OD1      -44.6950   30.3030   48.9270 O.2   162  ASN162     -0.2716
    133  ND2      -43.5020   28.8440   47.7050 N.am  162  ASN162     -0.0877
    134  N        -48.3550   31.1690   45.5650 N.am  163  VAL163     -0.1963
    135  CA       -49.3650   31.3490   44.5160 C.3   163  VAL163      0.1727
    136  C        -48.8710   32.3380   43.4670 C.2   163  VAL163      0.2616
    137  O        -48.1220   33.2740   43.7820 O.2   163  VAL163     -0.2715
    138  CB       -50.7330   31.8070   45.0890 C.3   163  VAL163      0.0290
    139  CG1      -51.2750   30.7900   46.0900 C.3   163  VAL163      0.0023
    140  CG2      -50.6750   33.1890   45.7380 C.3   163  VAL163      0.0023
    141  N        -49.2890   32.1200   42.2240 N.am  164  ASN164     -0.1958
    142  CA       -48.8710   32.9470   41.0850 C.3   164  ASN164      0.1819
    143  C        -49.9310   33.1620   39.9940 C.2   164  ASN164      0.2621
    144  O        -49.6330   33.7870   38.9890 O.2   164  ASN164     -0.2715
    145  CB       -47.6130   32.3140   40.4550 C.3   164  ASN164      0.1195
    146  CG       -47.7480   30.8110   40.2900 C.2   164  ASN164      0.2630
    147  OD1      -48.5390   30.3460   39.4890 O.2   164  ASN164     -0.2716
    148  ND2      -46.9760   30.0350   41.0780 N.am  164  ASN164     -0.0877
    149  N        -51.1370   32.6310   40.1590 N.am  165  HIS165     -0.1959
    150  CA       -52.1730   32.7030   39.1100 C.3   165  HIS165      0.1787
    151  C        -53.5020   32.9020   39.8230 C.2   165  HIS165      0.2620
    152  O        -53.8460   32.1560   40.7510 O.2   165  HIS165     -0.2715
    153  CB       -52.1870   31.4500   38.2640 C.3   165  HIS165      0.0785
    154  CG       -53.1780   31.4670   37.1350 C.ar  165  HIS165      0.0821
    155  ND1      -53.0540   32.3140   36.0580 N.ar  165  HIS165     -0.2267
    156  CD2      -54.2880   30.7170   36.8870 C.ar  165  HIS165      0.1154
    157  CE1      -54.0460   32.1030   35.2030 C.ar  165  HIS165      0.1986
    158  NE2      -54.8140   31.1330   35.6790 N.ar  165  HIS165     -0.2212
    159  N        -54.1980   33.9570   39.4200 N.am  166  GLY166     -0.1954
    160  CA       -55.4860   34.3080   39.9850 C.3   166  GLY166      0.1869
    161  C        -56.6090   33.5450   39.3150 C.2   166  GLY166      0.2309
    162  O        -56.6770   33.4680   38.0810 O.2   166  GLY166     -0.2863
    163  N        -54.2720   32.9520   49.8520 N.3   212  PHE212     -0.1241
    164  CA       -54.6930   34.3640   49.7560 C.3   212  PHE212      0.1605
    165  C        -56.0920   34.6000   49.1680 C.2   212  PHE212      0.2264
    166  O        -56.2310   35.1830   48.0840 O.2   212  PHE212     -0.2867
    167  CB       -53.6360   35.1590   48.9920 C.3   212  PHE212      0.0534
    168  CG       -52.3010   35.1560   49.6690 C.ar  212  PHE212     -0.0203
    169  CD1      -52.0830   35.9500   50.7740 C.ar  212  PHE212     -0.0042
    170  CD2      -51.2910   34.3140   49.2340 C.ar  212  PHE212     -0.0042
    171  CE1      -50.8560   35.9240   51.4330 C.ar  212  PHE212     -0.0003
    172  CE2      -50.0560   34.2910   49.8640 C.ar  212  PHE212     -0.0003
    173  CZ       -49.8430   35.0920   50.9770 C.ar  212  PHE212     -0.0000
@<TRIPOS>BOND
     1     1     2    1
     2   157   158   ar
     3   157   155   ar
     4   158   156   ar
     5     2     5    1
     6     2     3    1
     7   155   154   ar
     8     5     6    1
     9    29    27   ar
    10    15    16   ar
    11    15    13   ar
    12   156   154   ar
    13    18    16   ar
    14    18    20   ar
    15     3     4    2
    16     3     7   am
    17   154   153    1
    18    16    14   ar
    19    13    12   ar
    20    27    28   ar
    21    27    26    1
    22    20    19   ar
    23     7     8    1
    24   162   161    2
    25   153   150    1
    26    14    12   ar
    27    14    17   ar
    28    12    11    1
    29     9     8    1
    30     9    10    2
    31    26    25    1
    32    19    17   ar
    33     8    11    1
    34   144   143    2
    35   150   151    1
    36   150   149    1
    37    55    56    1
    38   161   160    1
    39   159   151   am
    40   159   160    1
    41   147   146    2
    42    21    22    1
    43   151   152    2
    44   143   149   am
    45   143   142    1
    46    25    22    1
    47    56    57    1
    48   146   145    1
    49   146   148   am
    50   145   142    1
    51    22    23    1
    52   142   141    1
    53    38    37    1
    54    57    58    2
    55    57    59   am
    56    37    36    1
    57    23    30   am
    58    23    24    2
    59    59    60    1
    60    30    31    1
    61    36    35    1
    62    53    54    2
    63    53    52    1
    64    45    47   ar
    65    45    44   ar
    66   141   136   am
    67    47    49   ar
    68    35    34    1
    69    76    75    1
    70    76    77    1
    71    75    74    1
    72    62    61    2
    73    43    44    1
    74    43    40    1
    75    61    60    1
    76    61    70   am
    77    60    63    1
    78    44    46   ar
    79    34    31    1
    80    39    40    1
    81    39    32   am
    82    52    51    1
    83    31    32    1
    84    51    41   am
    85    70    71    1
    86   136   137    2
    87   136   135    1
    88    71    74    1
    89    71    72    1
    90    49    50    1
    91    49    48   ar
    92    41    40    1
    93    41    42    2
    94    65    67   ar
    95    65    64   ar
    96    88    87    2
    97    32    33    2
    98   114   115    1
    99   114   113    1
   100    67    69   ar
   101    90    89    1
   102   115   116    2
   103    87    86    1
   104    46    48   ar
   105    63    64    1
   106    73    72    2
   107    64    66   ar
   108   135   138    1
   109   135   134    1
   110    72    78   am
   111    69    68   ar
   112   129   128    2
   113    66    68   ar
   114   138   140    1
   115   138   139    1
   116    89    86    1
   117    89    91    1
   118    86    85    1
   119   134   128   am
   120   128   127    1
   121    78    79    1
   122    85    80   am
   123    80    81    2
   124    80    79    1
   125   130   127    1
   126   130   131    1
   127    79    82    1
   128   127   126    1
   129   126   119   am
   130    83    82    1
   131   133   131   am
   132   131   132    2
   133    82    84    1
   134   166   165    2
   135   117   118    1
   136   119   120    2
   137   119   118    1
   138   118   121    1
   139   167   168    1
   140   167   164    1
   141   165   164    1
   142   170   168   ar
   143   170   172   ar
   144   168   169   ar
   145   164   163    1
   146   172   173   ar
   147   121   122    1
   148   169   171   ar
   149   122   123    1
   150   173   171   ar
   151    99    98   ar
   152    97    98    1
   153    97    96    1
   154   123   125   am
   155   123   124    2
   156   112   111    1
   157    98   100   ar
   158   110   111   ar
   159   110   108   ar
   160    93    96    1
   161    93    92    1
   162    93    94    1
   163   111   109   ar
   164   108   106   ar
   165    94    95    2
   166   109   107   ar
   167   106   107   ar
   168   106   105    1
   169   102   105    1
   170   102   103    1
   171   102   101    1
   172   103   104    2
