@<TRIPOS>MOLECULE
tmp/5qckA00.pdb
 202 200 0 0 0
SMALL
GASTEIGER

@<TRIPOS>ATOM
      1  N         49.7070  -27.6000   37.5960 N.3    26  ARG26      -0.1231
      2  CA        49.4650  -26.2140   37.2050 C.3    26  ARG26       0.1694
      3  C         47.9610  -25.9110   37.3740 C.2    26  ARG26       0.2592
      4  O         47.1240  -26.8260   37.3870 O.2    26  ARG26      -0.2718
      5  CB        49.9240  -25.9380   35.7510 C.3    26  ARG26       0.0321
      6  CG        49.2430  -26.8220   34.6980 C.3    26  ARG26       0.0489
      7  CD        48.9960  -26.1070   33.3800 C.3    26  ARG26       0.2205
      8  NE        47.8970  -26.7320   32.6260 N.pl3  26  ARG26      -0.0865
      9  CZ        47.0910  -26.0870   31.7820 C.cat  26  ARG26       0.5346
     10  NH1       47.2510  -24.7890   31.5600 N.pl3  26  ARG26       0.1354
     11  NH2       46.1190  -26.7360   31.1550 N.pl3  26  ARG26       0.1354
     12  N         47.6460  -24.6160   37.4690 N.am   27  HIS27      -0.1962
     13  CA        46.2930  -24.1020   37.5150 C.3    27  HIS27       0.1787
     14  C         45.5990  -24.4580   36.1980 C.2    27  HIS27       0.2620
     15  O         46.1920  -24.3050   35.1190 O.2    27  HIS27      -0.2715
     16  CB        46.3420  -22.5960   37.7000 C.3    27  HIS27       0.0785
     17  CG        45.0550  -21.8920   37.4380 C.ar   27  HIS27       0.0821
     18  ND1       44.1290  -21.6870   38.4420 N.ar   27  HIS27      -0.2267
     19  CD2       44.6140  -21.2990   36.3060 C.ar   27  HIS27       0.1154
     20  CE1       43.1490  -20.9960   37.8910 C.ar   27  HIS27       0.1986
     21  NE2       43.4030  -20.7290   36.6080 N.ar   27  HIS27      -0.2212
     22  N         44.3580  -24.9340   36.3010 N.am   28  LEU28      -0.1963
     23  CA        43.5340  -25.3390   35.1680 C.3    28  LEU28       0.1728
     24  C         42.3560  -24.3590   34.9210 C.2    28  LEU28       0.2616
     25  O         42.1400  -23.9020   33.8040 O.2    28  LEU28      -0.2715
     26  CB        43.0280  -26.7820   35.3980 C.3    28  LEU28       0.0311
     27  CG        42.0190  -27.3390   34.4070 C.3    28  LEU28       0.0022
     28  CD1       42.6270  -27.5640   33.0650 C.3    28  LEU28       0.0001
     29  CD2       41.3910  -28.6170   34.8980 C.3    28  LEU28       0.0001
     30  N         41.6160  -24.0480   35.9810 N.am   29  CYS29      -0.1968
     31  CA        40.3800  -23.2770   35.9760 C.3    29  CYS29       0.1712
     32  C         40.1030  -22.6880   37.3610 C.2    29  CYS29       0.2296
     33  O         40.6700  -23.1330   38.3740 O.2    29  CYS29      -0.2864
     34  CB        39.2300  -24.2120   35.5750 C.3    29  CYS29       0.0983
     35  SG        38.9730  -24.3560   33.7860 S.3    29  CYS29      -0.0798
     36  N         33.8140  -26.9650   30.1080 N.3    44  HIS44      -0.1226
     37  CA        34.9360  -26.9650   29.1580 C.3    44  HIS44       0.1752
     38  C         36.2740  -27.1790   29.8380 C.2    44  HIS44       0.2596
     39  O         37.2100  -27.6670   29.2040 O.2    44  HIS44      -0.2718
     40  CB        34.9400  -25.7490   28.2350 C.3    44  HIS44       0.0759
     41  CG        35.3870  -24.4890   28.8790 C.ar   44  HIS44       0.0818
     42  ND1       34.4970  -23.4820   29.1810 N.ar   44  HIS44      -0.2268
     43  CD2       36.6140  -24.1230   29.2970 C.ar   44  HIS44       0.1154
     44  CE1       35.2050  -22.5260   29.7530 C.ar   44  HIS44       0.1986
     45  NE2       36.4840  -22.8620   29.8450 N.ar   44  HIS44      -0.2212
     46  N         36.3520  -26.9000   31.1250 N.am   45  CYS45      -0.1970
     47  CA        37.5660  -27.1140   31.8970 C.3    45  CYS45       0.1712
     48  C         38.1040  -28.5620   31.8240 C.2    45  CYS45       0.2296
     49  O         39.2900  -28.8000   32.0460 O.2    45  CYS45      -0.2864
     50  CB        37.3010  -26.7010   33.3410 C.3    45  CYS45       0.0983
     51  SG        37.0330  -24.9230   33.5510 S.3    45  CYS45      -0.0798
     52  N         38.1280  -30.7500   29.2570 N.3    47  TYR47      -0.1241
     53  CA        38.5090  -31.2340   27.9310 C.3    47  TYR47       0.1605
     54  C         39.7930  -32.0670   28.1020 C.2    47  TYR47       0.2264
     55  O         40.7770  -31.5710   28.6450 O.2    47  TYR47      -0.2867
     56  CB        38.7700  -30.0570   26.9740 C.3    47  TYR47       0.0534
     57  CG        39.1150  -30.5170   25.5780 C.ar   47  TYR47      -0.0201
     58  CD1       38.1200  -30.9000   24.6840 C.ar   47  TYR47      -0.0009
     59  CD2       40.4420  -30.6280   25.1680 C.ar   47  TYR47      -0.0009
     60  CE1       38.4330  -31.3690   23.4090 C.ar   47  TYR47       0.0417
     61  CE2       40.7720  -31.1260   23.9050 C.ar   47  TYR47       0.0417
     62  CZ        39.7610  -31.4740   23.0190 C.ar   47  TYR47       0.1957
     63  OH        40.0660  -31.9010   21.7460 O.3    47  TYR47      -0.2866
     64  N         45.2220  -14.5570   32.6490 N.3   134  TYR134     -0.1241
     65  CA        46.0720  -13.6240   31.9260 C.3   134  TYR134      0.1605
     66  C         45.5570  -12.2240   32.0400 C.2   134  TYR134      0.2264
     67  O         44.3540  -12.0200   32.1370 O.2   134  TYR134     -0.2867
     68  CB        46.0940  -13.9900   30.4350 C.3   134  TYR134      0.0534
     69  CG        46.8330  -15.2380   30.0120 C.ar  134  TYR134     -0.0201
     70  CD1       47.1750  -16.2240   30.9360 C.ar  134  TYR134     -0.0009
     71  CD2       47.1320  -15.4690   28.6680 C.ar  134  TYR134     -0.0009
     72  CE1       47.8090  -17.4090   30.5340 C.ar  134  TYR134      0.0417
     73  CE2       47.7760  -16.6420   28.2560 C.ar  134  TYR134      0.0417
     74  CZ        48.1320  -17.6020   29.1950 C.ar  134  TYR134      0.1957
     75  OH        48.7700  -18.7530   28.7880 O.3   134  TYR134     -0.2866
     76  N         45.9540  -11.1230   26.0970 N.3   137  LEU137     -0.1245
     77  CA        45.8450  -12.4120   25.3850 C.3   137  LEU137      0.1561
     78  C         47.1480  -13.2400   25.3190 C.2   137  LEU137      0.2260
     79  O         47.0780  -14.4820   25.3380 O.2   137  LEU137     -0.2867
     80  CB        45.2250  -12.2560   23.9900 C.3   137  LEU137      0.0270
     81  CG        44.5800  -13.5220   23.3390 C.3   137  LEU137      0.0019
     82  CD1       43.7580  -14.3760   24.3440 C.3   137  LEU137      0.0001
     83  CD2       43.7160  -13.1400   22.1620 C.3   137  LEU137      0.0001
     84  N         50.6060  -14.8680   31.0740 N.3   140  LYS140     -0.1231
     85  CA        50.8050  -16.0410   31.9280 C.3   140  LYS140      0.1693
     86  C         49.8060  -15.9550   33.0560 C.2   140  LYS140      0.2591
     87  O         49.2440  -14.8760   33.2920 O.2   140  LYS140     -0.2718
     88  CB        52.2530  -16.0540   32.4970 C.3   140  LYS140      0.0285
     89  CG        52.6430  -14.8230   33.2820 C.3   140  LYS140      0.0035
     90  CD        54.0450  -14.8800   33.8570 C.3   140  LYS140      0.0206
     91  CE        54.1090  -13.7800   34.8960 C.3   140  LYS140      0.1093
     92  NZ        55.4480  -13.4000   35.2670 N.3   140  LYS140     -0.1314
     93  N         49.6020  -17.0750   33.7680 N.am  141  ILE141     -0.1980
     94  CA        48.7470  -17.1140   34.9600 C.3   141  ILE141      0.1595
     95  C         49.3740  -16.1990   36.0110 C.2   141  ILE141      0.2287
     96  O         50.6050  -16.2170   36.1840 O.2   141  ILE141     -0.2864
     97  CB        48.5930  -18.5740   35.4600 C.3   141  ILE141      0.0276
     98  CG1       47.8590  -19.4320   34.4070 C.3   141  ILE141      0.0022
     99  CG2       47.9490  -18.6920   36.8770 C.3   141  ILE141      0.0022
    100  CD1       46.4330  -18.9500   34.0820 C.3   141  ILE141      0.0001
    101  N         37.7530   -7.4710   31.7260 N.3   182  ASP182     -0.1225
    102  CA        37.1140   -8.7290   31.3300 C.3   182  ASP182      0.1805
    103  C         37.8680   -9.9010   31.8900 C.2   182  ASP182      0.2598
    104  O         38.9830   -9.7590   32.3670 O.2   182  ASP182     -0.2718
    105  CB        37.1970   -8.8720   29.7700 C.3   182  ASP182      0.1424
    106  CG        36.2950   -9.8910   29.0600 C.2   182  ASP182      0.3668
    107  OD1       35.3160  -10.3770   29.7060 O.co2 182  ASP182     -0.2456
    108  OD2       36.5450  -10.1730   27.8330 O.co2 182  ASP182     -0.2456
    109  N         37.3110  -11.0810   31.7030 N.am  183  ALA183     -0.1966
    110  CA        38.0000  -12.3170   31.9860 C.3   183  ALA183      0.1728
    111  C         38.9810  -12.5900   30.8200 C.2   183  ALA183      0.2616
    112  O         38.8680  -12.0020   29.7490 O.2   183  ALA183     -0.2715
    113  CB        36.9900  -13.4400   32.0950 C.3   183  ALA183      0.0334
    114  N         39.9410  -13.4650   31.0370 N.am  184  CYS184     -0.1954
    115  CA        40.9060  -13.8530   30.0230 C.3   184  CYS184      0.1843
    116  C         41.3640  -15.2960   30.2920 C.2   184  CYS184      0.2625
    117  O         40.7970  -15.9420   31.1810 O.2   184  CYS184     -0.2714
    118  CB        42.0650  -12.8600   29.9730 C.3   184  CYS184      0.0997
    119  SG        43.0370  -12.9330   28.4430 S.3   184  CYS184     -0.0797
    120  N         42.3080  -15.8390   29.4940 N.am  185  LYS185     -0.1963
    121  CA        42.7710  -17.2320   29.6410 C.3   185  LYS185      0.1728
    122  C         43.1580  -17.5740   31.0810 C.2   185  LYS185      0.2616
    123  O         43.9840  -16.8870   31.6800 O.2   185  LYS185     -0.2715
    124  CB        43.9440  -17.5430   28.7060 C.3   185  LYS185      0.0311
    125  CG        43.6170  -17.4890   27.2380 C.3   185  LYS185      0.0038
    126  CD        44.6840  -18.2610   26.4590 C.3   185  LYS185      0.0206
    127  CE        44.5940  -18.0790   24.9670 C.3   185  LYS185      0.1093
    128  NZ        45.4540  -19.0700   24.2720 N.3   185  LYS185     -0.1314
    129  N         42.5320  -18.6000   31.6310 N.am  186  GLY186     -0.1955
    130  CA        42.7990  -19.0490   32.9920 C.3   186  GLY186      0.1869
    131  C         41.7530  -18.6300   34.0000 C.2   186  GLY186      0.2309
    132  O         41.7670  -19.0950   35.1500 O.2   186  GLY186     -0.2863
    133  N         38.3730  -18.9540   33.2840 N.3   188  SER188     -0.1217
    134  CA        37.1610  -19.7320   33.0450 C.3   188  SER188      0.1889
    135  C         36.8560  -20.7000   34.1860 C.2   188  SER188      0.2288
    136  O         37.7680  -21.1280   34.9020 O.2   188  SER188     -0.2866
    137  CB        37.1690  -20.3880   31.6750 C.3   188  SER188      0.2089
    138  OG        38.1320  -21.4140   31.6500 O.3   188  SER188     -0.2183
    139  N         32.3860  -17.9100   34.3660 N.3   206  THR206     -0.1203
    140  CA        33.2200  -17.4750   33.2420 C.3   206  THR206      0.1994
    141  C         33.3200  -18.5810   32.1760 C.2   206  THR206      0.2619
    142  O         33.7720  -19.6850   32.4480 O.2   206  THR206     -0.2717
    143  CB        34.5680  -16.9990   33.7750 C.3   206  THR206      0.1784
    144  OG1       34.3390  -15.9590   34.7390 O.3   206  THR206     -0.2211
    145  CG2       35.4690  -16.4990   32.6760 C.3   206  THR206      0.0376
    146  N         32.9100  -18.2660   30.9610 N.am  207  SER207     -0.1937
    147  CA        32.8130  -19.2480   29.8940 C.3   207  SER207      0.2055
    148  C         33.6290  -18.8910   28.6500 C.2   207  SER207      0.2643
    149  O         34.6240  -19.5670   28.3550 O.2   207  SER207     -0.2714
    150  CB        31.3310  -19.4820   29.5740 C.3   207  SER207      0.2130
    151  OG        31.0630  -20.4980   28.6330 O.3   207  SER207     -0.2179
    152  N         33.2110  -17.8910   27.8890 N.am  208  TRP208     -0.1959
    153  CA        33.9510  -17.5870   26.6540 C.3   208  TRP208      0.1771
    154  C         33.8040  -16.1330   26.1810 C.2   208  TRP208      0.2620
    155  O         32.9920  -15.3860   26.7140 O.2   208  TRP208     -0.2715
    156  CB        33.5200  -18.5850   25.5470 C.3   208  TRP208      0.0590
    157  CG        32.0980  -18.4300   25.1210 C.ar  208  TRP208      0.0006
    158  CD1       30.9870  -18.9370   25.7320 C.ar  208  TRP208      0.0946
    159  CD2       31.6280  -17.6850   23.9840 C.ar  208  TRP208      0.0152
    160  NE1       29.8510  -18.5220   25.0700 N.ar  208  TRP208     -0.2442
    161  CE2       30.2190  -17.7810   23.9750 C.ar  208  TRP208      0.0810
    162  CE3       32.2680  -16.9320   22.9780 C.ar  208  TRP208      0.0012
    163  CZ2       29.4430  -17.1680   22.9920 C.ar  208  TRP208      0.0191
    164  CZ3       31.4970  -16.3350   22.0100 C.ar  208  TRP208      0.0001
    165  CH2       30.1070  -16.4730   22.0080 C.ar  208  TRP208      0.0015
    166  N         34.5640  -15.7660   25.1660 N.am  209  GLY209     -0.1954
    167  CA        34.4760  -14.4680   24.5080 C.3   209  GLY209      0.1869
    168  C         35.3780  -14.4520   23.2920 C.2   209  GLY209      0.2309
    169  O         36.1730  -15.3760   23.1190 O.2   209  GLY209     -0.2863
    170  N         38.4410  -12.9640   22.0810 N.3   211  GLY211     -0.1210
    171  CA        39.5770  -12.2590   22.6740 C.3   211  GLY211      0.1956
    172  C         39.2720  -11.8440   24.1040 C.2   211  GLY211      0.2612
    173  O         38.2030  -12.1730   24.6170 O.2   211  GLY211     -0.2717
    174  N         40.1770  -11.0750   24.7510 N.am  212  CYS212     -0.1970
    175  CA        40.0000  -10.5470   26.1200 C.3   212  CYS212      0.1712
    176  C         39.7840   -9.0520   26.1150 C.2   212  CYS212      0.2296
    177  O         40.6100   -8.3280   25.5790 O.2   212  CYS212     -0.2864
    178  CB        41.1760  -10.9070   27.0240 C.3   212  CYS212      0.0983
    179  SG        41.7060  -12.6300   26.9080 S.3   212  CYS212     -0.0798
    180  N         32.2050  -10.4050   27.6740 N.3   219  GLY219     -0.1210
    181  CA        32.4840  -11.7570   28.0980 C.3   219  GLY219      0.1956
    182  C         31.1480  -12.4680   28.2280 C.2   219  GLY219      0.2612
    183  O         30.1590  -11.8430   28.6140 O.2   219  GLY219     -0.2717
    184  N         31.1120  -13.7800   27.8880 N.am  220  VAL220     -0.1965
    185  CA        29.9410  -14.6330   27.9650 C.3   220  VAL220      0.1727
    186  C         30.0910  -15.6270   29.1040 C.2   220  VAL220      0.2616
    187  O         31.1100  -16.3150   29.2210 O.2   220  VAL220     -0.2715
    188  CB        29.6180  -15.3130   26.6260 C.3   220  VAL220      0.0290
    189  CG1       28.2640  -15.9940   26.7060 C.3   220  VAL220      0.0023
    190  CG2       29.6580  -14.2990   25.4610 C.3   220  VAL220      0.0023
    191  N         29.0730  -15.6550   29.9640 N.am  221  TYR221     -0.1974
    192  CA        29.0180  -16.4510   31.1800 C.3   221  TYR221      0.1639
    193  C         27.8450  -17.3880   31.2000 C.2   221  TYR221      0.2290
    194  O         26.7740  -17.0340   30.6900 O.2   221  TYR221     -0.2864
    195  CB        28.8960  -15.5070   32.4000 C.3   221  TYR221      0.0560
    196  CG        30.0560  -14.5320   32.5330 C.ar  221  TYR221     -0.0198
    197  CD1       30.1560  -13.4130   31.7080 C.ar  221  TYR221     -0.0009
    198  CD2       31.0420  -14.7180   33.4990 C.ar  221  TYR221     -0.0009
    199  CE1       31.2680  -12.5810   31.7570 C.ar  221  TYR221      0.0417
    200  CE2       32.1480  -13.8730   33.5740 C.ar  221  TYR221      0.0417
    201  CZ        32.2570  -12.8050   32.7010 C.ar  221  TYR221      0.1957
    202  OH        33.3120  -11.9320   32.8080 O.3   221  TYR221     -0.2866
@<TRIPOS>BOND
     1    63    62    1
     2   165   164   ar
     3   165   163   ar
     4   164   162   ar
     5   170   171    1
     6    83    81    1
     7   171   172    1
     8   162   159   ar
     9   163   161   ar
    10    62    60   ar
    11    62    61   ar
    12   169   168    2
    13   168   167    1
    14    81    80    1
    15    81    82    1
    16    60    58   ar
    17    61    59   ar
    18   161   159   ar
    19   161   160   ar
    20   159   157   ar
    21    80    77    1
    22   172   173    2
    23   172   174   am
    24   128   127    1
    25   167   166    1
    26    58    57   ar
    27   174   175    1
    28   127   126    1
    29   160   158   ar
    30   157   156    1
    31   157   158   ar
    32   166   154   am
    33    59    57   ar
    34    78    79    2
    35    78    77    1
    36    77    76    1
    37   190   188    1
    38   156   153    1
    39    57    56    1
    40   177   176    2
    41   176   175    1
    42   175   178    1
    43   154   153    1
    44   154   155    2
    45   126   125    1
    46   188   189    1
    47   188   185    1
    48   153   152    1
    49   179   178    1
    50   179   119    1
    51    56    53    1
    52   125   124    1
    53   180   181    1
    54   108   106   ar
    55   184   185    1
    56   184   182   am
    57   152   148   am
    58    53    54    1
    59    53    52    1
    60   185   186    1
    61   181   182    1
    62    54    55    2
    63   182   183    2
    64    40    41    1
    65    40    37    1
    66    73    71   ar
    67    73    74   ar
    68   149   148    2
    69   119   118    1
    70   151   150    1
    71   148   147    1
    72    71    69   ar
    73   124   121    1
    74    75    74    1
    75    41    42   ar
    76    41    43   ar
    77   106   107   ar
    78   106   105    1
    79   186   187    2
    80   186   191   am
    81    37    38    1
    82    37    36    1
    83    42    44   ar
    84    74    72   ar
    85    39    38    2
    86    43    45   ar
    87   120   121    1
    88   120   116   am
    89   150   147    1
    90   121   122    1
    91   112   111    2
    92    44    45   ar
    93   105   102    1
    94    38    46   am
    95   147   146    1
    96   191   192    1
    97   118   115    1
    98    69    68    1
    99    69    70   ar
   100   115   116    1
   101   115   114    1
   102   116   117    2
   103    68    65    1
   104    72    70   ar
   105   194   193    2
   106   111   114   am
   107   111   110    1
   108   146   141   am
   109    84    85    1
   110   122   129   am
   111   122   123    2
   112    46    47    1
   113    11     9    1
   114   192   193    1
   115   192   195    1
   116   102   101    1
   117   102   103    1
   118    10     9    1
   119   129   130    1
   120   138   137    1
   121   137   134    1
   122   109   103   am
   123   109   110    1
   124   197   199   ar
   125   197   196   ar
   126   199   201   ar
   127     9     8    2
   128    48    47    1
   129    48    49    2
   130   103   104    2
   131    47    50    1
   132    65    66    1
   133    65    64    1
   134    85    88    1
   135    85    86    1
   136   110   113    1
   137    66    67    2
   138   141   142    2
   139   141   140    1
   140   195   196    1
   141    88    89    1
   142   196   198   ar
   143     8     7    1
   144   145   143    1
   145   201   202    1
   146   201   200   ar
   147   130   131    1
   148   134   133    1
   149   134   135    1
   150    86    87    2
   151    86    93   am
   152    28    27    1
   153   140   143    1
   154   140   139    1
   155    89    90    1
   156    50    51    1
   157     7     6    1
   158   198   200   ar
   159    51    35    1
   160    93    94    1
   161   143   144    1
   162    35    34    1
   163    25    24    2
   164    90    91    1
   165   131   132    2
   166   100    98    1
   167   135   136    2
   168    27    29    1
   169    27    26    1
   170    98    97    1
   171     6     5    1
   172    91    92    1
   173    24    23    1
   174    24    30   am
   175    94    97    1
   176    94    95    1
   177    15    14    2
   178    23    26    1
   179    23    22    1
   180    97    99    1
   181    34    31    1
   182     5     2    1
   183    31    30    1
   184    31    32    1
   185    95    96    2
   186    14    22   am
   187    14    13    1
   188    19    21   ar
   189    19    17   ar
   190    21    20   ar
   191     2     3    1
   192     2     1    1
   193    32    33    2
   194     3     4    2
   195     3    12   am
   196    17    16    1
   197    17    18   ar
   198    12    13    1
   199    13    16    1
   200    20    18   ar
