@<TRIPOS>MOLECULE
tmp/5qclA00.pdb
 202 200 0 0 0
SMALL
GASTEIGER

@<TRIPOS>ATOM
      1  N         49.5090  -27.1900   37.2580 N.3    26  ARG26      -0.1231
      2  CA        49.2380  -25.8150   36.8720 C.3    26  ARG26       0.1694
      3  C         47.7640  -25.5000   37.0970 C.2    26  ARG26       0.2592
      4  O         46.9300  -26.4160   37.1140 O.2    26  ARG26      -0.2718
      5  CB        49.6280  -25.5690   35.3930 C.3    26  ARG26       0.0321
      6  CG        48.8120  -26.3880   34.4000 C.3    26  ARG26       0.0489
      7  CD        49.1150  -26.0860   32.9490 C.3    26  ARG26       0.2205
      8  NE        48.2660  -26.9200   32.0910 N.pl3  26  ARG26      -0.0865
      9  CZ        47.0950  -26.5450   31.5780 C.cat  26  ARG26       0.5346
     10  NH1       46.6290  -25.3200   31.7910 N.pl3  26  ARG26       0.1354
     11  NH2       46.3900  -27.3870   30.8330 N.pl3  26  ARG26       0.1354
     12  N         47.4550  -24.1930   37.2180 N.am   27  HIS27      -0.1962
     13  CA        46.1070  -23.6660   37.3280 C.3    27  HIS27       0.1787
     14  C         45.4300  -23.9910   35.9940 C.2    27  HIS27       0.2620
     15  O         45.9940  -23.7210   34.9220 O.2    27  HIS27      -0.2715
     16  CB        46.1500  -22.1390   37.5190 C.3    27  HIS27       0.0785
     17  CG        44.8340  -21.4490   37.2560 C.ar   27  HIS27       0.0821
     18  ND1       43.8920  -21.2870   38.2570 N.ar   27  HIS27      -0.2267
     19  CD2       44.3680  -20.8760   36.1160 C.ar   27  HIS27       0.1154
     20  CE1       42.8750  -20.6610   37.6920 C.ar   27  HIS27       0.1986
     21  NE2       43.1170  -20.3860   36.4030 N.ar   27  HIS27      -0.2212
     22  N         44.2330  -24.5730   36.0660 N.am   28  LEU28      -0.1963
     23  CA        43.4500  -24.9140   34.8900 C.3    28  LEU28       0.1728
     24  C         42.2640  -23.9550   34.7140 C.2    28  LEU28       0.2616
     25  O         42.0550  -23.4130   33.6300 O.2    28  LEU28      -0.2715
     26  CB        42.9770  -26.3790   34.9960 C.3    28  LEU28       0.0311
     27  CG        42.0380  -26.8830   33.9030 C.3    28  LEU28       0.0022
     28  CD1       42.7520  -26.9830   32.5480 C.3    28  LEU28       0.0001
     29  CD2       41.3680  -28.1790   34.3110 C.3    28  LEU28       0.0001
     30  N         41.4920  -23.7320   35.7950 N.am   29  CYS29      -0.1968
     31  CA        40.2720  -22.9450   35.7320 C.3    29  CYS29       0.1712
     32  C         39.9370  -22.3620   37.0840 C.2    29  CYS29       0.2296
     33  O         40.4400  -22.8160   38.1070 O.2    29  CYS29      -0.2864
     34  CB        39.1270  -23.8450   35.2450 C.3    29  CYS29       0.0983
     35  SG        38.9330  -23.9100   33.4380 S.3    29  CYS29      -0.0798
     36  N         33.6510  -26.6290   29.8460 N.3    44  HIS44      -0.1226
     37  CA        34.7660  -26.6130   28.8660 C.3    44  HIS44       0.1752
     38  C         36.1240  -26.8190   29.5070 C.2    44  HIS44       0.2596
     39  O         37.0640  -27.2230   28.8190 O.2    44  HIS44      -0.2718
     40  CB        34.7620  -25.3690   27.9370 C.3    44  HIS44       0.0759
     41  CG        35.2510  -24.1060   28.5800 C.ar   44  HIS44       0.0818
     42  ND1       34.3740  -23.1690   29.0830 N.ar   44  HIS44      -0.2268
     43  CD2       36.5140  -23.6830   28.8110 C.ar   44  HIS44       0.1154
     44  CE1       35.1200  -22.2210   29.6150 C.ar   44  HIS44       0.1986
     45  NE2       36.4130  -22.4840   29.4700 N.ar   44  HIS44      -0.2212
     46  N         36.2360  -26.5760   30.8100 N.am   45  CYS45      -0.1970
     47  CA        37.4980  -26.7810   31.5450 C.3    45  CYS45       0.1712
     48  C         38.0070  -28.2160   31.4810 C.2    45  CYS45       0.2296
     49  O         39.1950  -28.4520   31.7110 O.2    45  CYS45      -0.2864
     50  CB        37.3140  -26.3640   32.9990 C.3    45  CYS45       0.0983
     51  SG        37.0210  -24.5960   33.2220 S.3    45  CYS45      -0.0798
     52  N         37.9260  -30.4460   28.9480 N.3    47  TYR47      -0.1241
     53  CA        38.2330  -30.9880   27.6180 C.3    47  TYR47       0.1605
     54  C         39.3800  -32.0280   27.6730 C.2    47  TYR47       0.2264
     55  O         39.2190  -33.1370   27.1710 O.2    47  TYR47      -0.2867
     56  CB        38.5000  -29.8660   26.5730 C.3    47  TYR47       0.0534
     57  CG        38.8470  -30.4210   25.2060 C.ar   47  TYR47      -0.0201
     58  CD1       37.8500  -30.8790   24.3440 C.ar   47  TYR47      -0.0009
     59  CD2       40.1740  -30.5730   24.8090 C.ar   47  TYR47      -0.0009
     60  CE1       38.1650  -31.4510   23.1090 C.ar   47  TYR47       0.0417
     61  CE2       40.5030  -31.1380   23.5700 C.ar   47  TYR47       0.0417
     62  CZ        39.4930  -31.5700   22.7210 C.ar   47  TYR47       0.1957
     63  OH        39.7990  -32.1180   21.4960 O.3    47  TYR47      -0.2866
     64  N         44.9590  -14.2830   32.3340 N.3   134  TYR134     -0.1241
     65  CA        45.8210  -13.3170   31.6370 C.3   134  TYR134      0.1605
     66  C         45.2830  -11.9010   31.7520 C.2   134  TYR134      0.2264
     67  O         44.0690  -11.7210   31.8220 O.2   134  TYR134     -0.2867
     68  CB        45.8610  -13.6760   30.1390 C.3   134  TYR134      0.0534
     69  CG        46.6020  -14.9270   29.7080 C.ar  134  TYR134     -0.0201
     70  CD1       46.8840  -15.9530   30.6160 C.ar  134  TYR134     -0.0009
     71  CD2       46.9480  -15.1260   28.3740 C.ar  134  TYR134     -0.0009
     72  CE1       47.5260  -17.1240   30.2080 C.ar  134  TYR134      0.0417
     73  CE2       47.6000  -16.2890   27.9570 C.ar  134  TYR134      0.0417
     74  CZ        47.8830  -17.2830   28.8750 C.ar  134  TYR134      0.1957
     75  OH        48.5290  -18.4050   28.4320 O.3   134  TYR134     -0.2866
     76  N         45.7510  -10.9430   25.8260 N.3   137  LEU137     -0.1245
     77  CA        45.7010  -12.2000   25.0780 C.3   137  LEU137      0.1561
     78  C         47.0200  -13.0000   25.0880 C.2   137  LEU137      0.2260
     79  O         46.9790  -14.2240   25.2210 O.2   137  LEU137     -0.2867
     80  CB        45.1800  -11.9980   23.6410 C.3   137  LEU137      0.0270
     81  CG        44.5130  -13.2200   22.9680 C.3   137  LEU137      0.0019
     82  CD1       43.5170  -13.9470   23.8950 C.3   137  LEU137      0.0001
     83  CD2       43.7910  -12.8110   21.7020 C.3   137  LEU137      0.0001
     84  N         50.3470  -14.5410   30.7870 N.3   140  LYS140     -0.1231
     85  CA        50.5110  -15.7300   31.6080 C.3   140  LYS140      0.1693
     86  C         49.5420  -15.6720   32.7870 C.2   140  LYS140      0.2591
     87  O         48.9890  -14.6110   33.0710 O.2   140  LYS140     -0.2718
     88  CB        51.9800  -15.8640   32.0870 C.3   140  LYS140      0.0285
     89  CG        52.5450  -14.6520   32.8380 C.3   140  LYS140      0.0035
     90  CD        53.6240  -15.0710   33.8340 C.3   140  LYS140      0.0206
     91  CE        55.0230  -15.1480   33.2510 C.3   140  LYS140      0.1093
     92  NZ        55.6850  -13.8140   33.1820 N.3   140  LYS140     -0.1314
     93  N         49.3440  -16.8130   33.4670 N.am  141  ILE141     -0.1980
     94  CA        48.5260  -16.9290   34.6800 C.3   141  ILE141      0.1595
     95  C         49.1190  -15.9750   35.7400 C.2   141  ILE141      0.2287
     96  O         50.3360  -15.9520   35.9260 O.2   141  ILE141     -0.2864
     97  CB        48.4680  -18.4260   35.1450 C.3   141  ILE141      0.0276
     98  CG1       47.6620  -19.2900   34.1370 C.3   141  ILE141      0.0022
     99  CG2       47.9240  -18.5890   36.5850 C.3   141  ILE141      0.0022
    100  CD1       46.2190  -18.6940   33.6950 C.3   141  ILE141      0.0001
    101  N         37.5060   -7.2250   31.4860 N.3   182  ASP182     -0.1225
    102  CA        36.8720   -8.4940   31.0730 C.3   182  ASP182      0.1805
    103  C         37.6650   -9.6690   31.5840 C.2   182  ASP182      0.2598
    104  O         38.8230   -9.5140   31.9400 O.2   182  ASP182     -0.2718
    105  CB        36.9530   -8.6040   29.5240 C.3   182  ASP182      0.1424
    106  CG        36.0150   -9.5640   28.7910 C.2   182  ASP182      0.3668
    107  OD1       34.7910   -9.4460   28.9790 O.co2 182  ASP182     -0.2456
    108  OD2       36.4890  -10.2660   27.8490 O.co2 182  ASP182     -0.2456
    109  N         37.0900  -10.8730   31.4360 N.am  183  ALA183     -0.1966
    110  CA        37.7600  -12.1270   31.6860 C.3   183  ALA183      0.1728
    111  C         38.7100  -12.3840   30.5230 C.2   183  ALA183      0.2616
    112  O         38.5190  -11.8440   29.4260 O.2   183  ALA183     -0.2715
    113  CB        36.7350  -13.2380   31.7780 C.3   183  ALA183      0.0334
    114  N         39.7520  -13.1810   30.7620 N.am  184  CYS184     -0.1954
    115  CA        40.6770  -13.5750   29.7070 C.3   184  CYS184      0.1843
    116  C         41.1200  -15.0240   30.0000 C.2   184  CYS184      0.2625
    117  O         40.5620  -15.6600   30.9010 O.2   184  CYS184     -0.2714
    118  CB        41.8510  -12.5940   29.5620 C.3   184  CYS184      0.0997
    119  SG        42.7740  -12.7380   27.9900 S.3   184  CYS184     -0.0797
    120  N         42.0420  -15.5690   29.2120 N.am  185  LYS185     -0.1963
    121  CA        42.5300  -16.9500   29.3430 C.3   185  LYS185      0.1728
    122  C         42.9070  -17.3010   30.7780 C.2   185  LYS185      0.2616
    123  O         43.7260  -16.6160   31.3910 O.2   185  LYS185     -0.2715
    124  CB        43.7370  -17.1710   28.4190 C.3   185  LYS185      0.0311
    125  CG        43.3860  -17.2210   26.9550 C.3   185  LYS185      0.0038
    126  CD        44.6480  -17.4740   26.1310 C.3   185  LYS185      0.0206
    127  CE        44.3820  -17.9770   24.7340 C.3   185  LYS185      0.1093
    128  NZ        45.5570  -18.7200   24.2070 N.3   185  LYS185     -0.1314
    129  N         42.2760  -18.3390   31.3160 N.am  186  GLY186     -0.1955
    130  CA        42.5330  -18.7760   32.6820 C.3   186  GLY186      0.1869
    131  C         41.5080  -18.3280   33.6940 C.2   186  GLY186      0.2309
    132  O         41.5120  -18.8140   34.8310 O.2   186  GLY186     -0.2863
    133  N         38.1860  -18.6360   33.0550 N.3   188  SER188     -0.1217
    134  CA        37.0820  -19.5720   32.7800 C.3   188  SER188      0.1889
    135  C         36.6980  -20.3780   33.9740 C.2   188  SER188      0.2288
    136  O         37.5750  -20.8890   34.6670 O.2   188  SER188     -0.2866
    137  CB        37.4880  -20.5480   31.6820 C.3   188  SER188      0.2089
    138  OG        37.0870  -19.9500   30.4720 O.3   188  SER188     -0.2183
    139  N         32.1550  -17.6390   34.1100 N.3   206  THR206     -0.1203
    140  CA        32.9810  -17.1540   32.9880 C.3   206  THR206      0.1994
    141  C         33.0600  -18.2530   31.9520 C.2   206  THR206      0.2619
    142  O         33.4670  -19.3460   32.2840 O.2   206  THR206     -0.2717
    143  CB        34.3470  -16.7170   33.5260 C.3   206  THR206      0.1784
    144  OG1       34.1320  -15.7330   34.5360 O.3   206  THR206     -0.2211
    145  CG2       35.2940  -16.1860   32.4100 C.3   206  THR206      0.0376
    146  N         32.6240  -17.9850   30.7240 N.am  207  SER207     -0.1937
    147  CA        32.5250  -19.0320   29.6970 C.3   207  SER207      0.2055
    148  C         33.3230  -18.7530   28.4270 C.2   207  SER207      0.2643
    149  O         34.2990  -19.4650   28.1540 O.2   207  SER207     -0.2714
    150  CB        31.0520  -19.3140   29.3770 C.3   207  SER207      0.2130
    151  OG        30.9110  -20.3840   28.4600 O.3   207  SER207     -0.2179
    152  N         32.9350  -17.7360   27.6520 N.am  208  TRP208     -0.1959
    153  CA        33.6570  -17.4620   26.4000 C.3   208  TRP208      0.1771
    154  C         33.5070  -15.9960   25.9420 C.2   208  TRP208      0.2620
    155  O         32.7230  -15.2550   26.5120 O.2   208  TRP208     -0.2715
    156  CB        33.2010  -18.4710   25.2910 C.3   208  TRP208      0.0590
    157  CG        31.7690  -18.3050   24.8680 C.ar  208  TRP208      0.0006
    158  CD1       30.6640  -18.7780   25.5080 C.ar  208  TRP208      0.0946
    159  CD2       31.2880  -17.5510   23.7330 C.ar  208  TRP208      0.0152
    160  NE1       29.5250  -18.3460   24.8660 N.ar  208  TRP208     -0.2442
    161  CE2       29.8810  -17.6240   23.7500 C.ar  208  TRP208      0.0810
    162  CE3       31.9190  -16.7730   22.7280 C.ar  208  TRP208      0.0012
    163  CZ2       29.0860  -17.0060   22.7700 C.ar  208  TRP208      0.0191
    164  CZ3       31.1300  -16.1510   21.7670 C.ar  208  TRP208      0.0001
    165  CH2       29.7370  -16.2990   21.7740 C.ar  208  TRP208      0.0015
    166  N         34.2720  -15.6090   24.9280 N.am  209  GLY209     -0.1954
    167  CA        34.2170  -14.2840   24.3040 C.3   209  GLY209      0.1869
    168  C         35.1250  -14.2340   23.0900 C.2   209  GLY209      0.2309
    169  O         36.0140  -15.0830   22.9610 O.2   209  GLY209     -0.2863
    170  N         38.1620  -12.7770   21.8430 N.3   211  GLY211     -0.1210
    171  CA        39.3300  -12.0890   22.3860 C.3   211  GLY211      0.1956
    172  C         39.1130  -11.6940   23.8350 C.2   211  GLY211      0.2612
    173  O         38.2070  -12.2130   24.4900 O.2   211  GLY211     -0.2717
    174  N         39.8980  -10.7450   24.3450 N.am  212  CYS212     -0.1970
    175  CA        39.7690  -10.3530   25.7560 C.3   212  CYS212      0.1712
    176  C         39.4970   -8.8930   25.8920 C.2   212  CYS212      0.2296
    177  O         40.3260   -8.1100   25.4570 O.2   212  CYS212     -0.2864
    178  CB        41.0300  -10.7400   26.5210 C.3   212  CYS212      0.0983
    179  SG        41.3720  -12.5100   26.5050 S.3   212  CYS212     -0.0798
    180  N         31.9440  -10.2410   27.4740 N.3   219  GLY219     -0.1210
    181  CA        32.2410  -11.5700   27.9770 C.3   219  GLY219      0.1956
    182  C         30.9160  -12.2970   28.0270 C.2   219  GLY219      0.2612
    183  O         29.8970  -11.6770   28.2870 O.2   219  GLY219     -0.2717
    184  N         30.9020  -13.5940   27.7130 N.am  220  VAL220     -0.1965
    185  CA        29.6910  -14.4280   27.7500 C.3   220  VAL220      0.1727
    186  C         29.8740  -15.4050   28.8890 C.2   220  VAL220      0.2616
    187  O         30.9220  -16.0640   28.9970 O.2   220  VAL220     -0.2715
    188  CB        29.3800  -15.1330   26.4120 C.3   220  VAL220      0.0290
    189  CG1       27.9680  -15.7230   26.4360 C.3   220  VAL220      0.0023
    190  CG2       29.5260  -14.1510   25.2340 C.3   220  VAL220      0.0023
    191  N         28.8440  -15.4680   29.7430 N.am  221  TYR221     -0.1974
    192  CA        28.7870  -16.2190   30.9790 C.3   221  TYR221      0.1639
    193  C         27.6010  -17.1470   31.0000 C.2   221  TYR221      0.2290
    194  O         26.5620  -16.8300   30.4150 O.2   221  TYR221     -0.2864
    195  CB        28.6310  -15.2160   32.1510 C.3   221  TYR221      0.0560
    196  CG        29.8050  -14.2690   32.3030 C.ar  221  TYR221     -0.0198
    197  CD1       29.9160  -13.1250   31.5110 C.ar  221  TYR221     -0.0009
    198  CD2       30.8160  -14.5260   33.2260 C.ar  221  TYR221     -0.0009
    199  CE1       31.0220  -12.2810   31.6150 C.ar  221  TYR221      0.0417
    200  CE2       31.9320  -13.6980   33.3300 C.ar  221  TYR221      0.0417
    201  CZ        32.0310  -12.5750   32.5190 C.ar  221  TYR221      0.1957
    202  OH        33.1180  -11.7460   32.6530 O.3   221  TYR221     -0.2866
@<TRIPOS>BOND
     1    63    62    1
     2    83    81    1
     3   164   165   ar
     4   164   162   ar
     5   165   163   ar
     6   170   171    1
     7   171   172    1
     8    62    60   ar
     9    62    61   ar
    10   162   159   ar
    11   163   161   ar
    12   169   168    2
    13    81    80    1
    14    81    82    1
    15   168   167    1
    16    60    58   ar
    17    61    59   ar
    18    80    77    1
    19   159   161   ar
    20   159   157   ar
    21   161   160   ar
    22   172   174   am
    23   172   173    2
    24   128   127    1
    25   167   166    1
    26    58    57   ar
    27   174   175    1
    28   127   126    1
    29    59    57   ar
    30   160   158   ar
    31   157   156    1
    32   157   158   ar
    33   166   154   am
    34    77    78    1
    35    77    76    1
    36    78    79    2
    37    57    56    1
    38   190   188    1
    39   156   153    1
    40   177   176    2
    41   175   176    1
    42   175   178    1
    43   154   153    1
    44   154   155    2
    45   126   125    1
    46   153   152    1
    47   188   189    1
    48   188   185    1
    49   179   178    1
    50   179   119    1
    51    56    53    1
    52   125   124    1
    53    55    54    2
    54   180   181    1
    55    53    54    1
    56    53    52    1
    57   152   148   am
    58   184   185    1
    59   184   182   am
    60   185   186    1
    61   108   106   ar
    62    40    41    1
    63    40    37    1
    64    73    71   ar
    65    73    74   ar
    66   181   182    1
    67   119   118    1
    68   182   183    2
    69   149   148    2
    70    71    69   ar
    71   124   121    1
    72   148   147    1
    73    75    74    1
    74   151   150    1
    75    41    43   ar
    76    41    42   ar
    77   106   107   ar
    78   106   105    1
    79    43    45   ar
    80    39    38    2
    81    37    38    1
    82    37    36    1
    83    74    72   ar
    84   186   187    2
    85   186   191   am
    86    42    44   ar
    87   120   121    1
    88   120   116   am
    89   121   122    1
    90   150   147    1
    91   112   111    2
    92    45    44   ar
    93    38    46   am
    94   105   102    1
    95   118   115    1
    96   147   146    1
    97   115   116    1
    98   115   114    1
    99    69    68    1
   100    69    70   ar
   101   191   192    1
   102   116   117    2
   103    68    65    1
   104    72    70   ar
   105   194   193    2
   106   138   137    1
   107   111   114   am
   108   111   110    1
   109   146   141   am
   110   122   129   am
   111   122   123    2
   112    84    85    1
   113    46    47    1
   114    11     9    1
   115   192   193    1
   116   192   195    1
   117   102   101    1
   118   102   103    1
   119   129   130    1
   120   109   103   am
   121   109   110    1
   122    48    47    1
   123    48    49    2
   124   197   199   ar
   125   197   196   ar
   126    47    50    1
   127     9    10    1
   128     9     8    2
   129   103   104    2
   130    85    88    1
   131    85    86    1
   132   199   201   ar
   133    65    66    1
   134    65    64    1
   135   137   134    1
   136   110   113    1
   137    66    67    2
   138   141   142    2
   139   141   140    1
   140    88    89    1
   141     8     7    1
   142   195   196    1
   143   196   198   ar
   144   145   143    1
   145   201   202    1
   146   201   200   ar
   147    28    27    1
   148   130   131    1
   149   134   133    1
   150   134   135    1
   151    86    87    2
   152    86    93   am
   153    89    90    1
   154     7     6    1
   155   140   143    1
   156   140   139    1
   157    50    51    1
   158    92    91    1
   159    51    35    1
   160   198   200   ar
   161    91    90    1
   162    35    34    1
   163    93    94    1
   164   143   144    1
   165    25    24    2
   166   131   132    2
   167   100    98    1
   168    27    29    1
   169    27    26    1
   170   135   136    2
   171    98    97    1
   172     6     5    1
   173    94    97    1
   174    94    95    1
   175    24    23    1
   176    24    30   am
   177    23    26    1
   178    23    22    1
   179    15    14    2
   180    97    99    1
   181    34    31    1
   182     5     2    1
   183    31    30    1
   184    31    32    1
   185    95    96    2
   186    14    22   am
   187    14    13    1
   188    19    21   ar
   189    19    17   ar
   190    21    20   ar
   191     2     3    1
   192     2     1    1
   193    32    33    2
   194     3     4    2
   195     3    12   am
   196    12    13    1
   197    17    16    1
   198    17    18   ar
   199    13    16    1
   200    20    18   ar
