@<TRIPOS>MOLECULE
tmp/5qcmA00.pdb
 202 200 0 0 0
SMALL
GASTEIGER

@<TRIPOS>ATOM
      1  N         49.4950  -27.3680   37.4250 N.3    26  ARG26      -0.1231
      2  CA        49.2810  -25.9820   37.0410 C.3    26  ARG26       0.1694
      3  C         47.8190  -25.6060   37.2240 C.2    26  ARG26       0.2592
      4  O         46.9660  -26.4890   37.2200 O.2    26  ARG26      -0.2718
      5  CB        49.7220  -25.7340   35.5750 C.3    26  ARG26       0.0321
      6  CG        48.8690  -26.4580   34.5430 C.3    26  ARG26       0.0489
      7  CD        49.2870  -26.2100   33.1150 C.3    26  ARG26       0.2205
      8  NE        48.4860  -27.0570   32.2240 N.pl3  26  ARG26      -0.0865
      9  CZ        47.3350  -26.6970   31.6570 C.cat  26  ARG26       0.5346
     10  NH1       46.8480  -25.4740   31.8400 N.pl3  26  ARG26       0.1354
     11  NH2       46.6700  -27.5520   30.8920 N.pl3  26  ARG26       0.1354
     12  N         47.5310  -24.2930   37.3130 N.am   27  HIS27      -0.1962
     13  CA        46.1760  -23.7570   37.3990 C.3    27  HIS27       0.1787
     14  C         45.4880  -24.0990   36.0710 C.2    27  HIS27       0.2620
     15  O         46.0710  -23.9160   34.9890 O.2    27  HIS27      -0.2715
     16  CB        46.2210  -22.2270   37.6110 C.3    27  HIS27       0.0785
     17  CG        44.9120  -21.5220   37.3860 C.ar   27  HIS27       0.0821
     18  ND1       43.9920  -21.3610   38.4140 N.ar   27  HIS27      -0.2267
     19  CD2       44.4440  -20.8950   36.2760 C.ar   27  HIS27       0.1154
     20  CE1       42.9740  -20.7000   37.8840 C.ar   27  HIS27       0.1986
     21  NE2       43.1970  -20.4050   36.5950 N.ar   27  HIS27      -0.2212
     22  N         44.2710  -24.6260   36.1610 N.am   28  LEU28      -0.1963
     23  CA        43.4580  -24.9750   35.0080 C.3    28  LEU28       0.1728
     24  C         42.2690  -24.0030   34.8300 C.2    28  LEU28       0.2616
     25  O         42.0750  -23.4340   33.7460 O.2    28  LEU28      -0.2715
     26  CB        42.9810  -26.4330   35.1390 C.3    28  LEU28       0.0311
     27  CG        42.0190  -26.9460   34.0600 C.3    28  LEU28       0.0022
     28  CD1       42.7020  -27.0240   32.7210 C.3    28  LEU28       0.0001
     29  CD2       41.3700  -28.2550   34.4720 C.3    28  LEU28       0.0001
     30  N         41.4720  -23.8100   35.8950 N.am   29  CYS29      -0.1968
     31  CA        40.2720  -22.9740   35.8190 C.3    29  CYS29       0.1712
     32  C         39.9680  -22.3870   37.1850 C.2    29  CYS29       0.2296
     33  O         40.4660  -22.8610   38.2010 O.2    29  CYS29      -0.2864
     34  CB        39.0860  -23.8270   35.3380 C.3    29  CYS29       0.0983
     35  SG        38.8760  -23.9050   33.5270 S.3    29  CYS29      -0.0798
     36  N         33.6840  -26.6690   29.9130 N.3    44  HIS44      -0.1226
     37  CA        34.8120  -26.6640   28.9400 C.3    44  HIS44       0.1752
     38  C         36.1780  -26.8710   29.5940 C.2    44  HIS44       0.2596
     39  O         37.1060  -27.3100   28.9140 O.2    44  HIS44      -0.2718
     40  CB        34.8250  -25.4300   28.0060 C.3    44  HIS44       0.0759
     41  CG        35.3120  -24.1820   28.6600 C.ar   44  HIS44       0.0818
     42  ND1       34.4320  -23.2320   29.1310 N.ar   44  HIS44      -0.2268
     43  CD2       36.5740  -23.7760   28.9240 C.ar   44  HIS44       0.1154
     44  CE1       35.1750  -22.2800   29.6600 C.ar   44  HIS44       0.1986
     45  NE2       36.4690  -22.5640   29.5640 N.ar   44  HIS44      -0.2212
     46  N         36.2950  -26.6110   30.9030 N.am   45  CYS45      -0.1970
     47  CA        37.5470  -26.8320   31.6660 C.3    45  CYS45       0.1712
     48  C         38.0330  -28.2700   31.5960 C.2    45  CYS45       0.2296
     49  O         39.2070  -28.5160   31.8390 O.2    45  CYS45      -0.2864
     50  CB        37.3410  -26.4340   33.1260 C.3    45  CYS45       0.0983
     51  SG        36.9950  -24.6850   33.3720 S.3    45  CYS45      -0.0798
     52  N         37.9320  -30.4960   29.0620 N.3    47  TYR47      -0.1241
     53  CA        38.2500  -31.0300   27.7350 C.3    47  TYR47       0.1605
     54  C         39.5330  -31.8770   27.8910 C.2    47  TYR47       0.2264
     55  O         40.5240  -31.4020   28.4500 O.2    47  TYR47      -0.2867
     56  CB        38.4200  -29.8970   26.6850 C.3    47  TYR47       0.0534
     57  CG        38.7620  -30.4420   25.3110 C.ar   47  TYR47      -0.0201
     58  CD1       37.7600  -30.8740   24.4440 C.ar   47  TYR47      -0.0009
     59  CD2       40.0870  -30.6650   24.9360 C.ar   47  TYR47      -0.0009
     60  CE1       38.0660  -31.4720   23.2210 C.ar   47  TYR47       0.0417
     61  CE2       40.4050  -31.2780   23.7200 C.ar   47  TYR47       0.0417
     62  CZ        39.3900  -31.6560   22.8530 C.ar   47  TYR47       0.1957
     63  OH        39.6860  -32.2100   21.6250 O.3    47  TYR47      -0.2866
     64  N         45.0850  -14.2300   32.4930 N.3   134  TYR134     -0.1241
     65  CA        45.9190  -13.2720   31.7600 C.3   134  TYR134      0.1605
     66  C         45.3580  -11.8630   31.8760 C.2   134  TYR134      0.2264
     67  O         44.1440  -11.6970   32.0170 O.2   134  TYR134     -0.2867
     68  CB        45.9240  -13.6510   30.2670 C.3   134  TYR134      0.0534
     69  CG        46.6930  -14.8780   29.8090 C.ar  134  TYR134     -0.0201
     70  CD1       46.9920  -15.9190   30.6930 C.ar  134  TYR134     -0.0009
     71  CD2       47.0330  -15.0450   28.4670 C.ar  134  TYR134     -0.0009
     72  CE1       47.6400  -17.0800   30.2520 C.ar  134  TYR134      0.0417
     73  CE2       47.6530  -16.2120   28.0100 C.ar  134  TYR134      0.0417
     74  CZ        47.9730  -17.2150   28.9060 C.ar  134  TYR134      0.1957
     75  OH        48.6410  -18.3130   28.4240 O.3   134  TYR134     -0.2866
     76  N         45.7520  -10.7240   25.9190 N.3   137  LEU137     -0.1245
     77  CA        45.6450  -11.9850   25.1810 C.3   137  LEU137      0.1561
     78  C         46.9470  -12.8170   25.1890 C.2   137  LEU137      0.2260
     79  O         46.8680  -14.0340   25.3100 O.2   137  LEU137     -0.2867
     80  CB        45.0970  -11.8070   23.7540 C.3   137  LEU137      0.0270
     81  CG        44.4360  -13.0510   23.0960 C.3   137  LEU137      0.0019
     82  CD1       43.5580  -13.8510   24.0690 C.3   137  LEU137      0.0001
     83  CD2       43.5810  -12.6510   21.9200 C.3   137  LEU137      0.0001
     84  N         50.3300  -14.3840   30.9520 N.3   140  LYS140     -0.1231
     85  CA        50.5650  -15.5510   31.7920 C.3   140  LYS140      0.1693
     86  C         49.5960  -15.5500   32.9740 C.2   140  LYS140      0.2591
     87  O         49.0140  -14.5090   33.2970 O.2   140  LYS140     -0.2718
     88  CB        52.0360  -15.5490   32.2880 C.3   140  LYS140      0.0285
     89  CG        52.4330  -14.3010   33.0630 C.3   140  LYS140      0.0035
     90  CD        53.8430  -14.4090   33.6190 C.3   140  LYS140      0.0206
     91  CE        54.2730  -13.1000   34.2440 C.3   140  LYS140      0.1093
     92  NZ        54.4420  -13.1830   35.7190 N.3   140  LYS140     -0.1314
     93  N         49.4380  -16.7200   33.6240 N.am  141  ILE141     -0.1980
     94  CA        48.6450  -16.8940   34.8470 C.3   141  ILE141      0.1595
     95  C         49.2340  -15.9220   35.8960 C.2   141  ILE141      0.2287
     96  O         50.4530  -15.7780   35.9940 O.2   141  ILE141     -0.2864
     97  CB        48.6020  -18.4000   35.3070 C.3   141  ILE141      0.0276
     98  CG1       47.8420  -19.2820   34.2790 C.3   141  ILE141      0.0022
     99  CG2       47.9920  -18.5740   36.7300 C.3   141  ILE141      0.0022
    100  CD1       46.4110  -18.7090   33.8180 C.3   141  ILE141      0.0001
    101  N         37.5760   -7.1740   31.5060 N.3   182  ASP182     -0.1225
    102  CA        36.9230   -8.4510   31.1590 C.3   182  ASP182      0.1805
    103  C         37.7480   -9.6110   31.6970 C.2   182  ASP182      0.2598
    104  O         38.9010   -9.4250   32.0780 O.2   182  ASP182     -0.2718
    105  CB        36.9110   -8.5910   29.6060 C.3   182  ASP182      0.1424
    106  CG        36.1170   -9.7380   28.9630 C.2   182  ASP182      0.3668
    107  OD1       35.1320  -10.2120   29.5880 O.co2 182  ASP182     -0.2456
    108  OD2       36.4750  -10.1480   27.8160 O.co2 182  ASP182     -0.2456
    109  N         37.1920  -10.8120   31.5900 N.am  183  ALA183     -0.1966
    110  CA        37.8630  -12.0790   31.8460 C.3   183  ALA183      0.1728
    111  C         38.8110  -12.3480   30.6810 C.2   183  ALA183      0.2616
    112  O         38.6370  -11.7870   29.5900 O.2   183  ALA183     -0.2715
    113  CB        36.8340  -13.1880   31.9450 C.3   183  ALA183      0.0334
    114  N         39.8240  -13.1780   30.9040 N.am  184  CYS184     -0.1954
    115  CA        40.7630  -13.5820   29.8520 C.3   184  CYS184      0.1843
    116  C         41.2200  -15.0400   30.1300 C.2   184  CYS184      0.2625
    117  O         40.6570  -15.6940   31.0140 O.2   184  CYS184     -0.2714
    118  CB        41.9330  -12.5970   29.7150 C.3   184  CYS184      0.0997
    119  SG        42.8330  -12.7070   28.1300 S.3   184  CYS184     -0.0797
    120  N         42.1540  -15.5800   29.3400 N.am  185  LYS185     -0.1963
    121  CA        42.6200  -16.9670   29.4930 C.3   185  LYS185      0.1728
    122  C         42.9890  -17.3000   30.9420 C.2   185  LYS185      0.2616
    123  O         43.8140  -16.6080   31.5440 O.2   185  LYS185     -0.2715
    124  CB        43.8070  -17.2520   28.5580 C.3   185  LYS185      0.0311
    125  CG        43.4090  -17.3050   27.1060 C.3   185  LYS185      0.0038
    126  CD        44.5770  -17.5820   26.1750 C.3   185  LYS185      0.0206
    127  CE        44.1290  -17.5530   24.7290 C.3   185  LYS185      0.1093
    128  NZ        45.1090  -18.2150   23.8320 N.3   185  LYS185     -0.1314
    129  N         42.3490  -18.3280   31.4970 N.am  186  GLY186     -0.1955
    130  CA        42.6030  -18.7850   32.8670 C.3   186  GLY186      0.1869
    131  C         41.5920  -18.3300   33.8970 C.2   186  GLY186      0.2309
    132  O         41.6400  -18.7510   35.0560 O.2   186  GLY186     -0.2863
    133  N         38.2150  -18.5900   33.2180 N.3   188  SER188     -0.1217
    134  CA        37.0300  -19.3790   32.9110 C.3   188  SER188      0.1889
    135  C         36.7220  -20.3870   33.9810 C.2   188  SER188      0.2288
    136  O         37.6290  -20.9200   34.6320 O.2   188  SER188     -0.2866
    137  CB        37.1120  -19.9950   31.5120 C.3   188  SER188      0.2089
    138  OG        38.0010  -21.0900   31.5100 O.3   188  SER188     -0.2183
    139  N         32.1510  -17.6430   34.2170 N.3   206  THR206     -0.1203
    140  CA        33.0070  -17.1630   33.1270 C.3   206  THR206      0.1994
    141  C         33.1080  -18.2590   32.0740 C.2   206  THR206      0.2619
    142  O         33.5470  -19.3630   32.3770 O.2   206  THR206     -0.2717
    143  CB        34.3420  -16.6980   33.7040 C.3   206  THR206      0.1784
    144  OG1       34.0880  -15.7890   34.7780 O.3   206  THR206     -0.2211
    145  CG2       35.2710  -16.0770   32.6460 C.3   206  THR206      0.0376
    146  N         32.6580  -17.9640   30.8440 N.am  207  SER207     -0.1937
    147  CA        32.5620  -18.9830   29.8080 C.3   207  SER207      0.2055
    148  C         33.3980  -18.7130   28.5670 C.2   207  SER207      0.2643
    149  O         34.3570  -19.4500   28.3160 O.2   207  SER207     -0.2714
    150  CB        31.0960  -19.2320   29.4390 C.3   207  SER207      0.2130
    151  OG        30.9860  -20.3200   28.5370 O.3   207  SER207     -0.2179
    152  N         33.0320  -17.6970   27.7740 N.am  208  TRP208     -0.1959
    153  CA        33.7480  -17.4350   26.5190 C.3   208  TRP208      0.1771
    154  C         33.6210  -15.9840   26.0520 C.2   208  TRP208      0.2620
    155  O         32.8730  -15.2120   26.6290 O.2   208  TRP208     -0.2715
    156  CB        33.2590  -18.4360   25.4200 C.3   208  TRP208      0.0590
    157  CG        31.8270  -18.2480   24.9910 C.ar  208  TRP208      0.0006
    158  CD1       30.7150  -18.7460   25.5960 C.ar  208  TRP208      0.0946
    159  CD2       31.3650  -17.5030   23.8450 C.ar  208  TRP208      0.0152
    160  NE1       29.5820  -18.3450   24.9110 N.ar  208  TRP208     -0.2442
    161  CE2       29.9580  -17.6180   23.8090 C.ar  208  TRP208      0.0810
    162  CE3       32.0110  -16.7280   22.8530 C.ar  208  TRP208      0.0012
    163  CZ2       29.1770  -16.9700   22.8300 C.ar  208  TRP208      0.0191
    164  CZ3       31.2420  -16.1050   21.8780 C.ar  208  TRP208      0.0001
    165  CH2       29.8440  -16.2550   21.8570 C.ar  208  TRP208      0.0015
    166  N         34.3600  -15.6380   25.0100 N.am  209  GLY209     -0.1954
    167  CA        34.3200  -14.3220   24.3820 C.3   209  GLY209      0.1869
    168  C         35.2370  -14.2930   23.1770 C.2   209  GLY209      0.2309
    169  O         36.1210  -15.1590   23.0420 O.2   209  GLY209     -0.2863
    170  N         38.2470  -12.7870   21.9100 N.3   211  GLY211     -0.1210
    171  CA        39.4110  -12.0720   22.4390 C.3   211  GLY211      0.1956
    172  C         39.1890  -11.7050   23.8940 C.2   211  GLY211      0.2612
    173  O         38.2600  -12.2270   24.5220 O.2   211  GLY211     -0.2717
    174  N         39.9860  -10.7710   24.4330 N.am  212  CYS212     -0.1970
    175  CA        39.8400  -10.3520   25.8320 C.3   212  CYS212      0.1712
    176  C         39.6030   -8.8750   25.9280 C.2   212  CYS212      0.2296
    177  O         40.4170   -8.1180   25.4110 O.2   212  CYS212     -0.2864
    178  CB        41.0640  -10.7590   26.6470 C.3   212  CYS212      0.0983
    179  SG        41.3480  -12.5490   26.7100 S.3   212  CYS212     -0.0798
    180  N         32.0090  -10.2240   27.5620 N.3   219  GLY219     -0.1210
    181  CA        32.3090  -11.5650   28.0210 C.3   219  GLY219      0.1956
    182  C         30.9960  -12.3160   28.0810 C.2   219  GLY219      0.2612
    183  O         29.9610  -11.7060   28.3230 O.2   219  GLY219     -0.2717
    184  N         31.0140  -13.6210   27.7960 N.am  220  VAL220     -0.1965
    185  CA        29.7960  -14.4530   27.8360 C.3   220  VAL220      0.1727
    186  C         29.9400  -15.4230   28.9920 C.2   220  VAL220      0.2616
    187  O         30.9800  -16.0860   29.1350 O.2   220  VAL220     -0.2715
    188  CB        29.4390  -15.1300   26.4920 C.3   220  VAL220      0.0290
    189  CG1       28.0330  -15.7530   26.5480 C.3   220  VAL220      0.0023
    190  CG2       29.5150  -14.1190   25.3330 C.3   220  VAL220      0.0023
    191  N         28.8950  -15.4600   29.8440 N.am  221  TYR221     -0.1974
    192  CA        28.8260  -16.2190   31.0740 C.3   221  TYR221      0.1639
    193  C         27.6320  -17.1240   31.0790 C.2   221  TYR221      0.2290
    194  O         26.6110  -16.7990   30.4660 O.2   221  TYR221     -0.2864
    195  CB        28.6970  -15.2360   32.2650 C.3   221  TYR221      0.0560
    196  CG        29.8680  -14.2820   32.3920 C.ar  221  TYR221     -0.0198
    197  CD1       29.9430  -13.1290   31.6150 C.ar  221  TYR221     -0.0009
    198  CD2       30.8810  -14.5090   33.3200 C.ar  221  TYR221     -0.0009
    199  CE1       31.0530  -12.2870   31.6780 C.ar  221  TYR221      0.0417
    200  CE2       31.9770  -13.6440   33.4270 C.ar  221  TYR221      0.0417
    201  CZ        32.0570  -12.5320   32.6040 C.ar  221  TYR221      0.1957
    202  OH        33.1340  -11.6720   32.7170 O.3   221  TYR221     -0.2866
@<TRIPOS>BOND
     1    63    62    1
     2   165   164   ar
     3   165   163   ar
     4   164   162   ar
     5   170   171    1
     6    83    81    1
     7   171   172    1
     8   163   161   ar
     9   162   159   ar
    10    62    60   ar
    11    62    61   ar
    12   169   168    2
    13    81    80    1
    14    81    82    1
    15   168   167    1
    16    60    58   ar
    17    61    59   ar
    18    80    77    1
    19   161   159   ar
    20   161   160   ar
    21   128   127    1
    22   159   157   ar
    23   172   174   am
    24   172   173    2
    25   167   166    1
    26   174   175    1
    27    58    57   ar
    28   127   126    1
    29   160   158   ar
    30    59    57   ar
    31   157   156    1
    32   157   158   ar
    33   166   154   am
    34    77    78    1
    35    77    76    1
    36    78    79    2
    37    57    56    1
    38   190   188    1
    39   177   176    2
    40   156   153    1
    41   175   176    1
    42   175   178    1
    43   154   153    1
    44   154   155    2
    45   126   125    1
    46   188   189    1
    47   188   185    1
    48   153   152    1
    49   178   179    1
    50    56    53    1
    51   179   119    1
    52   125   124    1
    53   180   181    1
    54    53    54    1
    55    53    52    1
    56   152   148   am
    57   184   185    1
    58   184   182   am
    59   108   106   ar
    60   185   186    1
    61    54    55    2
    62    40    41    1
    63    40    37    1
    64    73    71   ar
    65    73    74   ar
    66   181   182    1
    67   182   183    2
    68   119   118    1
    69   149   148    2
    70    75    74    1
    71    71    69   ar
    72   151   150    1
    73   124   121    1
    74   148   147    1
    75    41    43   ar
    76    41    42   ar
    77    74    72   ar
    78    39    38    2
    79    43    45   ar
    80    37    38    1
    81    37    36    1
    82   106   107   ar
    83   106   105    1
    84   186   187    2
    85   186   191   am
    86    42    44   ar
    87   120   121    1
    88   120   116   am
    89   150   147    1
    90   121   122    1
    91    45    44   ar
    92   112   111    2
    93    38    46   am
    94   105   102    1
    95   118   115    1
    96   147   146    1
    97    69    68    1
    98    69    70   ar
    99   191   192    1
   100   115   116    1
   101   115   114    1
   102   116   117    2
   103    72    70   ar
   104    68    65    1
   105   194   193    2
   106   111   114   am
   107   111   110    1
   108   146   141   am
   109    11     9    1
   110    46    47    1
   111   122   129   am
   112   122   123    2
   113    84    85    1
   114   192   193    1
   115   192   195    1
   116   102   101    1
   117   102   103    1
   118   129   130    1
   119   138   137    1
   120   137   134    1
   121   109   103   am
   122   109   110    1
   123    48    47    1
   124    48    49    2
   125   197   199   ar
   126   197   196   ar
   127     9    10    1
   128     9     8    2
   129    47    50    1
   130   199   201   ar
   131   103   104    2
   132    65    66    1
   133    65    64    1
   134    85    88    1
   135    85    86    1
   136   110   113    1
   137    66    67    2
   138   141   142    2
   139   141   140    1
   140     8     7    1
   141   195   196    1
   142    88    89    1
   143   196   198   ar
   144   201   202    1
   145   201   200   ar
   146   145   143    1
   147    28    27    1
   148   130   131    1
   149   134   133    1
   150   134   135    1
   151    86    87    2
   152    86    93   am
   153    89    90    1
   154     7     6    1
   155    50    51    1
   156   140   143    1
   157   140   139    1
   158   198   200   ar
   159    51    35    1
   160    35    34    1
   161    90    91    1
   162    93    94    1
   163   143   144    1
   164    25    24    2
   165   100    98    1
   166   131   132    2
   167   135   136    2
   168    27    29    1
   169    27    26    1
   170    91    92    1
   171    98    97    1
   172     6     5    1
   173    24    23    1
   174    24    30   am
   175    94    97    1
   176    94    95    1
   177    15    14    2
   178    23    26    1
   179    23    22    1
   180    97    99    1
   181    34    31    1
   182     5     2    1
   183    31    30    1
   184    31    32    1
   185    95    96    2
   186    14    22   am
   187    14    13    1
   188    19    21   ar
   189    19    17   ar
   190    21    20   ar
   191     2     3    1
   192     2     1    1
   193    32    33    2
   194     4     3    2
   195     3    12   am
   196    12    13    1
   197    17    16    1
   198    17    18   ar
   199    13    16    1
   200    20    18   ar
