@<TRIPOS>MOLECULE
tmp/5qdfA00.pdb
 81 77 0 0 0
SMALL
GASTEIGER

@<TRIPOS>ATOM
      1  N        -56.7590   18.6320   -6.6010 N.3   232  LEU232     -0.1245
      2  CA       -56.9370   19.7150   -7.5770 C.3   232  LEU232      0.1561
      3  C        -56.4940   19.2940   -8.9780 C.2   232  LEU232      0.2260
      4  O        -57.1460   19.6530   -9.9670 O.2   232  LEU232     -0.2867
      5  CB       -56.1830   20.9620   -7.1220 C.3   232  LEU232      0.0270
      6  CG       -56.7900   21.6630   -5.9100 C.3   232  LEU232      0.0019
      7  CD1      -55.8090   22.7070   -5.3360 C.3   232  LEU232      0.0001
      8  CD2      -58.1300   22.2940   -6.2210 C.3   232  LEU232      0.0001
      9  N        -59.1710   17.1620  -10.5700 N.3   235  MET235     -0.1230
     10  CA       -60.3280   17.9480  -10.9920 C.3   235  MET235      0.1702
     11  C        -60.0870   18.6080  -12.3450 C.2   235  MET235      0.2592
     12  O        -61.0360   18.8150  -13.1060 O.2   235  MET235     -0.2718
     13  CB       -60.6870   18.9880   -9.9150 C.3   235  MET235      0.0401
     14  CG       -61.2890   18.3610   -8.6800 C.3   235  MET235      0.0596
     15  SD       -61.5980   19.6040   -7.3660 S.3   235  MET235     -0.1393
     16  CE       -63.1810   20.2260   -7.8610 C.3   235  MET235      0.0692
     17  N        -58.8320   18.8940  -12.6830 N.am  236  ASP236     -0.1960
     18  CA       -58.4840   19.4390  -14.0030 C.3   236  ASP236      0.1840
     19  C        -58.4210   18.3760  -15.0940 C.2   236  ASP236      0.2622
     20  O        -58.5900   18.6910  -16.2810 O.2   236  ASP236     -0.2715
     21  CB       -57.1210   20.1170  -13.9570 C.3   236  ASP236      0.1450
     22  CG       -57.1920   21.6000  -13.6540 C.2   236  ASP236      0.3671
     23  OD1      -58.2940   22.1890  -13.6560 O.co2 236  ASP236     -0.2456
     24  OD2      -56.1110   22.1750  -13.4120 O.co2 236  ASP236     -0.2456
     25  N        -58.1280   17.1330  -14.7310 N.am  237  LYS237     -0.1963
     26  CA       -57.9120   16.0620  -15.6940 C.3   237  LYS237      0.1728
     27  C        -59.2080   15.3650  -16.1110 C.2   237  LYS237      0.2616
     28  O        -59.3390   14.9720  -17.2740 O.2   237  LYS237     -0.2715
     29  CB       -56.9570   15.0230  -15.0900 C.3   237  LYS237      0.0311
     30  CG       -56.0070   14.3640  -16.0470 C.3   237  LYS237      0.0038
     31  CD       -54.9880   13.5280  -15.2730 C.3   237  LYS237      0.0206
     32  CE       -53.7140   13.2760  -16.0750 C.3   237  LYS237      0.1093
     33  NZ       -53.6390   11.8890  -16.5820 N.3   237  LYS237     -0.1314
     34  N        -60.1620   15.2120  -15.1980 N.am  238  ARG238     -0.1963
     35  CA       -61.3690   14.4100  -15.4420 C.3   238  ARG238      0.1729
     36  C        -62.4590   15.1900  -16.1820 C.2   238  ARG238      0.2616
     37  O        -62.5850   16.4190  -16.0460 O.2   238  ARG238     -0.2715
     38  CB       -61.9580   13.9190  -14.1170 C.3   238  ARG238      0.0348
     39  CG       -61.1570   12.7870  -13.4510 C.3   238  ARG238      0.0492
     40  CD       -61.8560   12.2550  -12.2150 C.3   238  ARG238      0.2205
     41  NE       -61.0310   11.2750  -11.5110 N.pl3 238  ARG238     -0.0865
     42  CZ       -61.3690   10.6980  -10.3640 C.cat 238  ARG238      0.5346
     43  NH1      -62.5200   11.0070   -9.7640 N.pl3 238  ARG238      0.1354
     44  NH2      -60.5510    9.8290   -9.7950 N.pl3 238  ARG238      0.1354
     45  N        -63.2940   14.4540  -16.9390 N.am  239  LYS239     -0.1977
     46  CA       -64.4720   15.0810  -17.5520 C.3   239  LYS239      0.1596
     47  C        -65.4360   15.6140  -16.5080 C.2   239  LYS239      0.2287
     48  O        -66.0690   16.6570  -16.7110 O.2   239  LYS239     -0.2864
     49  CB       -65.2240   14.0990  -18.4540 C.3   239  LYS239      0.0298
     50  CG       -64.5180   13.7830  -19.7340 C.3   239  LYS239      0.0038
     51  CD       -65.3670   12.9130  -20.6430 C.3   239  LYS239      0.0206
     52  CE       -64.6200   12.5930  -21.9260 C.3   239  LYS239      0.1093
     53  NZ       -65.4550   11.8130  -22.8800 N.3   239  LYS239     -0.1314
     54  N        -65.4280   16.8570  -12.8080 N.3   241  PRO241     -0.2116
     55  CA       -64.6590   17.1740  -11.5910 C.3   241  PRO241      0.1372
     56  C        -65.3630   16.8200  -10.2950 C.2   241  PRO241      0.2244
     57  O        -64.6750   16.5830   -9.2930 O.2   241  PRO241     -0.2868
     58  CB       -64.4400   18.6890  -11.7000 C.3   241  PRO241      0.0268
     59  CG       -64.5780   18.9980  -13.1270 C.3   241  PRO241      0.0207
     60  CD       -65.6040   18.0420  -13.6580 C.3   241  PRO241      0.0892
     61  N        -60.4710   25.0970   -6.0770 N.3   278  ALA278     -0.1245
     62  CA       -61.1090   24.7330   -7.3390 C.3   278  ALA278      0.1562
     63  C        -61.7930   25.9290   -8.0030 C.2   278  ALA278      0.2260
     64  O        -62.0470   25.8990   -9.2060 O.2   278  ALA278     -0.2867
     65  CB       -62.1270   23.6080   -7.1290 C.3   278  ALA278      0.0290
     66  N        -58.8680   28.1140   -9.7930 N.3   281  ILE281     -0.1231
     67  CA       -58.2440   27.5020  -10.9590 C.3   281  ILE281      0.1692
     68  C        -58.9520   27.9450  -12.2290 C.2   281  ILE281      0.2591
     69  O        -58.3180   28.1090  -13.2800 O.2   281  ILE281     -0.2718
     70  CB       -58.2410   25.9700  -10.8020 C.3   281  ILE281      0.0266
     71  CG1      -57.1410   25.3370  -11.6500 C.3   281  ILE281      0.0019
     72  CG2      -59.5880   25.3780  -11.1880 C.3   281  ILE281      0.0020
     73  CD1      -56.1650   24.5090  -10.8330 C.3   281  ILE281      0.0001
     74  N        -60.2590   28.1620  -12.1570 N.am  282  MET282     -0.1979
     75  CA       -61.0310   28.5370  -13.3390 C.3   282  MET282      0.1605
     76  C        -61.2930   30.0430  -13.3770 C.2   282  MET282      0.2287
     77  O        -61.3590   30.6460  -14.4530 O.2   282  MET282     -0.2864
     78  CB       -62.3580   27.7760  -13.3720 C.3   282  MET282      0.0413
     79  CG       -62.2230   26.2890  -13.0640 C.3   282  MET282      0.0598
     80  SD       -63.7930   25.4150  -13.2110 S.3   282  MET282     -0.1393
     81  CE       -63.2480   23.7070  -13.0060 C.3   282  MET282      0.0692
@<TRIPOS>BOND
     1    53    52    1
     2    52    51    1
     3    51    50    1
     4    50    49    1
     5    49    46    1
     6    46    45    1
     7    46    47    1
     8    28    27    2
     9    45    36   am
    10    48    47    2
    11    33    32    1
    12    20    19    2
    13    36    37    2
    14    36    35    1
    15    27    26    1
    16    27    34   am
    17    32    31    1
    18    30    31    1
    19    30    29    1
    20    26    29    1
    21    26    25    1
    22    35    34    1
    23    35    38    1
    24    19    25   am
    25    19    18    1
    26    77    76    2
    27    38    39    1
    28    18    21    1
    29    18    17    1
    30    21    22    1
    31    60    59    1
    32    60    54    1
    33    23    22   ar
    34    22    24   ar
    35    39    40    1
    36    76    75    1
    37    78    75    1
    38    78    79    1
    39    75    74    1
    40    69    68    2
    41    80    79    1
    42    80    81    1
    43    59    58    1
    44    12    11    2
    45    54    55    1
    46    17    11   am
    47    11    10    1
    48    68    74   am
    49    68    67    1
    50    40    41    1
    51    58    55    1
    52    71    73    1
    53    71    70    1
    54    55    56    1
    55    41    42    2
    56    72    70    1
    57    10     9    1
    58    10    13    1
    59    67    70    1
    60    67    66    1
    61    42    44    1
    62    42    43    1
    63    56    57    2
    64     4     3    2
    65    13    14    1
    66    64    63    2
    67     3     2    1
    68    14    15    1
    69    63    62    1
    70    16    15    1
    71     2     5    1
    72     2     1    1
    73    62    65    1
    74    62    61    1
    75     5     6    1
    76     8     6    1
    77     6     7    1
