@<TRIPOS>MOLECULE
tmp/5qdjA01.pdb
 113 106 0 0 0
SMALL
GASTEIGER

@<TRIPOS>ATOM
      1  N        -35.6860   18.3660   -7.3650 N.3   105  ARG105     -0.1245
      2  CA       -35.4080   19.7800   -7.5810 C.3   105  ARG105      0.1563
      3  C        -35.7520   20.6110   -6.3520 C.2   105  ARG105      0.2260
      4  O        -35.0160   21.5460   -6.0120 O.2   105  ARG105     -0.2867
      5  CB       -36.1790   20.2880   -8.7970 C.3   105  ARG105      0.0307
      6  CG       -35.9890   21.7740   -9.1150 C.3   105  ARG105      0.0489
      7  CD       -34.7390   22.0340   -9.9470 C.3   105  ARG105      0.2205
      8  NE       -34.4550   23.4650  -10.0420 N.pl3 105  ARG105     -0.0865
      9  CZ       -35.2100   24.3420  -10.6970 C.cat 105  ARG105      0.5346
     10  NH1      -36.3110   23.9490  -11.3260 N.pl3 105  ARG105      0.1354
     11  NH2      -34.8660   25.6250  -10.7130 N.pl3 105  ARG105      0.1354
     12  N        -29.2520   32.4680   -2.4950 N.3   146  SER146     -0.1202
     13  CA       -30.1330   33.6200   -2.3560 C.3   146  SER146      0.2020
     14  C        -31.3210   33.2130   -1.5060 C.2   146  SER146      0.2619
     15  O        -31.5910   32.0210   -1.3240 O.2   146  SER146     -0.2717
     16  CB       -30.6140   34.1480   -3.7140 C.3   146  SER146      0.2103
     17  OG       -31.5800   33.2810   -4.2560 O.3   146  SER146     -0.2182
     18  N        -32.0250   34.2240   -0.9940 N.am  147  GLU147     -0.1965
     19  CA       -33.1470   34.0480   -0.0730 C.3   147  GLU147      0.1733
     20  C        -34.1540   35.1600   -0.3370 C.2   147  GLU147      0.2616
     21  O        -33.7680   36.3310   -0.4040 O.2   147  GLU147     -0.2715
     22  CB       -32.6420   34.0850    1.3840 C.3   147  GLU147      0.0429
     23  CG       -33.6910   33.9450    2.4520 C.3   147  GLU147      0.1163
     24  CD       -33.0850   33.7090    3.8270 C.2   147  GLU147      0.3649
     25  OE1      -33.2600   32.6100    4.3760 O.co2 147  GLU147     -0.2457
     26  OE2      -32.4500   34.6350    4.3720 O.co2 147  GLU147     -0.2457
     27  N        -35.4350   34.8080   -0.4840 N.am  148  ASP148     -0.1971
     28  CA       -36.5140   35.7770   -0.6790 C.3   148  ASP148      0.1709
     29  C        -37.5780   35.5720    0.4020 C.2   148  ASP148      0.2293
     30  O        -38.3310   34.5890    0.3580 O.2   148  ASP148     -0.2864
     31  CB       -37.1040   35.6250   -2.0740 C.3   148  ASP148      0.1436
     32  CG       -38.0410   36.7380   -2.4450 C.2   148  ASP148      0.3671
     33  OD1      -38.2910   37.6190   -1.6040 O.co2 148  ASP148     -0.2456
     34  OD2      -38.5430   36.7210   -3.5900 O.co2 148  ASP148     -0.2456
     35  N        -38.5800   31.5570    0.0980 N.3   155  VAL155     -0.1231
     36  CA       -37.9590   30.7140   -0.9290 C.3   155  VAL155      0.1692
     37  C        -36.4670   30.9480   -0.9250 C.2   155  VAL155      0.2592
     38  O        -36.0110   32.0920   -1.0460 O.2   155  VAL155     -0.2718
     39  CB       -38.4670   31.0150   -2.3510 C.3   155  VAL155      0.0266
     40  CG1      -37.9430   29.9710   -3.3150 C.3   155  VAL155      0.0020
     41  CG2      -39.8800   31.0520   -2.3720 C.3   155  VAL155      0.0020
     42  N        -35.7120   29.8640   -0.8870 N.am  156  ARG156     -0.1966
     43  CA       -34.2600   29.9120   -0.9490 C.3   156  ARG156      0.1729
     44  C        -33.7310   29.1370   -2.1460 C.2   156  ARG156      0.2616
     45  O        -34.2230   28.0530   -2.4750 O.2   156  ARG156     -0.2715
     46  CB       -33.6490   29.3410    0.3190 C.3   156  ARG156      0.0348
     47  CG       -34.1900   29.9800    1.5890 C.3   156  ARG156      0.0492
     48  CD       -33.5930   29.4160    2.8930 C.3   156  ARG156      0.2205
     49  NE       -34.1600   30.1230    4.0550 N.pl3 156  ARG156     -0.0865
     50  CZ       -35.2280   29.7320    4.7470 C.cat 156  ARG156      0.5346
     51  NH1      -35.8410   28.5720    4.4660 N.pl3 156  ARG156      0.1354
     52  NH2      -35.6440   30.4600    5.7630 N.pl3 156  ARG156      0.1354
     53  N        -32.7010   29.6910   -2.7980 N.am  157  GLN157     -0.1977
     54  CA       -31.9040   28.9470   -3.7650 C.3   157  GLN157      0.1601
     55  C        -30.6630   28.4110   -3.0760 C.2   157  GLN157      0.2287
     56  O        -29.9470   29.1700   -2.4150 O.2   157  GLN157     -0.2864
     57  CB       -31.4910   29.8200   -4.9630 C.3   157  GLN157      0.0394
     58  CG       -32.5930   30.3780   -5.7700 C.3   157  GLN157      0.0908
     59  CD       -32.0230   31.1560   -6.9520 C.2   157  GLN157      0.2608
     60  OE1      -31.1920   32.0540   -6.7740 O.2   157  GLN157     -0.2717
     61  NE2      -32.4180   30.7770   -8.1570 N.am  157  GLN157     -0.0878
     62  N        -28.7300   22.8570   -8.5500 N.3   170  GLU170     -0.1245
     63  CA       -29.5380   23.8730   -7.8880 C.3   170  GLU170      0.1567
     64  C        -30.7930   23.2540   -7.2630 C.2   170  GLU170      0.2260
     65  O        -31.5960   22.6330   -7.9590 O.2   170  GLU170     -0.2867
     66  CB       -29.9330   24.9370   -8.8950 C.3   170  GLU170      0.0388
     67  CG       -30.7380   26.0860   -8.3110 C.3   170  GLU170      0.1160
     68  CD       -31.1950   27.0440   -9.3940 C.2   170  GLU170      0.3649
     69  OE1      -30.4480   27.2440  -10.3800 O.co2 170  GLU170     -0.2457
     70  OE2      -32.3160   27.5620   -9.2790 O.co2 170  GLU170     -0.2457
     71  N        -34.2550   24.1560   -4.8880 N.3   172  LEU172     -0.1245
     72  CA       -35.1470   25.1950   -4.3640 C.3   172  LEU172      0.1561
     73  C        -35.7720   24.7690   -3.0260 C.2   172  LEU172      0.2260
     74  O        -36.3650   23.6910   -2.9260 O.2   172  LEU172     -0.2867
     75  CB       -36.2490   25.5100   -5.3780 C.3   172  LEU172      0.0270
     76  CG       -35.7850   25.9900   -6.7620 C.3   172  LEU172      0.0019
     77  CD1      -37.0150   26.2530   -7.6360 C.3   172  LEU172      0.0001
     78  CD2      -34.9030   27.2150   -6.6660 C.3   172  LEU172      0.0001
     79  N        -38.6380   25.6530   -0.4060 N.3   174  PHE174     -0.1241
     80  CA       -39.9050   26.3500   -0.2160 C.3   174  PHE174      0.1605
     81  C        -40.3450   26.1620    1.2410 C.2   174  PHE174      0.2264
     82  O        -40.7520   25.0630    1.6450 O.2   174  PHE174     -0.2867
     83  CB       -40.9740   25.8390   -1.2040 C.3   174  PHE174      0.0534
     84  CG       -40.7730   26.3360   -2.6190 C.ar  174  PHE174     -0.0203
     85  CD1      -41.3070   27.5660   -2.9970 C.ar  174  PHE174     -0.0042
     86  CD2      -40.0380   25.6240   -3.5420 C.ar  174  PHE174     -0.0042
     87  CE1      -41.1170   28.0610   -4.2890 C.ar  174  PHE174     -0.0003
     88  CE2      -39.8430   26.1290   -4.8440 C.ar  174  PHE174     -0.0003
     89  CZ       -40.3840   27.3300   -5.1950 C.ar  174  PHE174     -0.0000
     90  N        -46.9830   28.5260   -5.9130 N.3   197  LYS197     -0.1245
     91  CA       -45.5750   28.9090   -6.0960 C.3   197  LYS197      0.1561
     92  C        -44.6650   27.6920   -6.2600 C.2   197  LYS197      0.2260
     93  O        -43.7260   27.7190   -7.0650 O.2   197  LYS197     -0.2867
     94  CB       -45.0840   29.7760   -4.9260 C.3   197  LYS197      0.0271
     95  CG       -45.8170   31.0950   -4.7900 C.3   197  LYS197      0.0035
     96  CD       -45.5730   32.0460   -5.9710 C.3   197  LYS197      0.0206
     97  CE       -46.2110   33.4160   -5.7150 C.3   197  LYS197      0.1093
     98  NZ       -46.1250   34.3310   -6.8860 N.3   197  LYS197     -0.1314
     99  N        -45.2890   26.4450   -9.8330 N.3   200  GLU200     -0.1231
    100  CA       -44.7400   27.3130  -10.8740 C.3   200  GLU200      0.1699
    101  C        -43.2370   27.1510  -11.0330 C.2   200  GLU200      0.2592
    102  O        -42.7100   27.4070  -12.1210 O.2   200  GLU200     -0.2718
    103  CB       -45.0910   28.7670  -10.5700 C.3   200  GLU200      0.0402
    104  CG       -46.5390   29.0940  -10.7600 C.3   200  GLU200      0.1161
    105  CD       -46.8550   30.5260  -10.3550 C.2   200  GLU200      0.3649
    106  OE1      -45.8980   31.2780  -10.0060 O.co2 200  GLU200     -0.2457
    107  OE2      -48.0520   30.8840  -10.3920 O.co2 200  GLU200     -0.2457
    108  N        -42.5310   26.6930   -9.9890 N.am  201  SER201     -0.1952
    109  CA       -41.0880   26.4970  -10.0180 C.3   201  SER201      0.1924
    110  C        -40.6070   25.3000  -10.8280 C.2   201  SER201      0.2314
    111  O        -39.3920   25.1930  -11.0730 O.2   201  SER201     -0.2863
    112  CB       -40.5580   26.3150   -8.5790 C.3   201  SER201      0.2116
    113  OG       -40.7610   24.9700   -8.1250 O.3   201  SER201     -0.2180
@<TRIPOS>BOND
     1   102   101    2
     2    10     9    1
     3   111   110    2
     4   101   100    1
     5   101   108   am
     6   100   103    1
     7   100    99    1
     8   110   109    1
     9   104   103    1
    10   104   105    1
    11    11     9    1
    12     9     8    2
    13   107   105   ar
    14    69    68   ar
    15   105   106   ar
    16     8     7    1
    17   109   108    1
    18   109   112    1
    19     7     6    1
    20    68    70   ar
    21    68    67    1
    22     6     5    1
    23    66    67    1
    24    66    63    1
    25     5     2    1
    26   112   113    1
    27    62    63    1
    28    61    59   am
    29    65    64    2
    30    63    64    1
    31    77    76    1
    32     2     1    1
    33     2     3    1
    34    93    92    2
    35    59    60    2
    36    59    58    1
    37    98    97    1
    38    76    78    1
    39    76    75    1
    40     3     4    2
    41    92    91    1
    42    91    90    1
    43    91    94    1
    44    96    97    1
    45    96    95    1
    46    58    57    1
    47    75    72    1
    48    89    88   ar
    49    89    87   ar
    50    57    54    1
    51    94    95    1
    52    71    72    1
    53    88    86   ar
    54    72    73    1
    55    87    85   ar
    56    17    16    1
    57    54    55    1
    58    54    53    1
    59    16    13    1
    60    34    32   ar
    61    86    84   ar
    62    40    39    1
    63    55    56    2
    64    73    74    2
    65    85    84   ar
    66    53    44   am
    67    84    83    1
    68    12    13    1
    69    45    44    2
    70    32    31    1
    71    32    33   ar
    72    41    39    1
    73    13    14    1
    74    39    36    1
    75    44    43    1
    76    31    28    1
    77    14    15    2
    78    14    18   am
    79    83    80    1
    80    38    37    2
    81    18    19    1
    82    43    42    1
    83    43    46    1
    84    36    37    1
    85    36    35    1
    86    37    42   am
    87    28    27    1
    88    28    29    1
    89    27    20   am
    90    79    80    1
    91    21    20    2
    92    20    19    1
    93    80    81    1
    94    19    22    1
    95    46    47    1
    96    30    29    2
    97    81    82    2
    98    22    23    1
    99    47    48    1
   100    23    24    1
   101    48    49    1
   102    24    26   ar
   103    24    25   ar
   104    49    50    2
   105    51    50    1
   106    50    52    1
