@<TRIPOS>MOLECULE
tmp/5qdkA00.pdb
 83 78 0 0 0
SMALL
GASTEIGER

@<TRIPOS>ATOM
      1  N         22.6340   -8.8900  -21.7910 N.3     2  GLU2       -0.1231
      2  CA        24.0120   -9.1710  -22.1570 C.3     2  GLU2        0.1699
      3  C         24.7590   -9.6250  -20.9020 C.2     2  GLU2        0.2592
      4  O         24.2200   -9.6260  -19.7940 O.2     2  GLU2       -0.2718
      5  CB        24.6660   -7.9360  -22.7900 C.3     2  GLU2        0.0402
      6  CG        26.1650   -8.0780  -23.1090 C.3     2  GLU2        0.1161
      7  CD        26.8130   -6.7770  -23.5190 C.2     2  GLU2        0.3649
      8  OE1       27.3740   -6.7120  -24.6310 O.co2   2  GLU2       -0.2457
      9  OE2       26.7740   -5.8240  -22.7200 O.co2   2  GLU2       -0.2457
     10  N         26.0100  -10.0290  -21.0790 N.am    3  MET3       -0.1979
     11  CA        26.7930  -10.5320  -19.9610 C.3     3  MET3        0.1605
     12  C         27.5120   -9.4440  -19.1620 C.2     3  MET3        0.2287
     13  O         27.3910   -9.4120  -17.9330 O.2     3  MET3       -0.2864
     14  CB        27.8010  -11.5490  -20.4770 C.3     3  MET3        0.0413
     15  CG        28.4930  -12.3160  -19.3770 C.3     3  MET3        0.0598
     16  SD        29.4640  -13.6760  -20.0230 S.3     3  MET3       -0.1393
     17  CE        29.9120  -13.0310  -21.6430 C.3     3  MET3        0.0692
     18  N         32.7820  -19.4030  -24.5370 N.3   232  LEU232     -0.1245
     19  CA        33.6260  -18.7360  -25.5350 C.3   232  LEU232      0.1561
     20  C         33.4580  -19.3440  -26.9290 C.2   232  LEU232      0.2260
     21  O         33.4130  -18.6070  -27.9250 O.2   232  LEU232     -0.2867
     22  CB        35.0860  -18.7760  -25.0840 C.3   232  LEU232      0.0270
     23  CG        35.3920  -17.8920  -23.8830 C.3   232  LEU232      0.0019
     24  CD1       36.7900  -18.2310  -23.2970 C.3   232  LEU232      0.0001
     25  CD2       35.2800  -16.3980  -24.1960 C.3   232  LEU232      0.0001
     26  N         30.2640  -18.0550  -28.4840 N.3   235  MET235     -0.1230
     27  CA        30.3620  -16.6570  -28.9040 C.3   235  MET235      0.1702
     28  C         31.0420  -16.5320  -30.2640 C.2   235  MET235      0.2592
     29  O         30.7340  -15.6010  -31.0210 O.2   235  MET235     -0.2718
     30  CB        31.1030  -15.8340  -27.8480 C.3   235  MET235      0.0401
     31  CG        30.2880  -15.6290  -26.5960 C.3   235  MET235      0.0596
     32  SD        31.1490  -14.7420  -25.2450 S.3   235  MET235     -0.1393
     33  CE        30.9580  -13.0660  -25.7960 C.3   235  MET235      0.0692
     34  N         31.9180  -17.4770  -30.6100 N.am  236  ASP236     -0.1974
     35  CA        32.5700  -17.5150  -31.9260 C.3   236  ASP236      0.1709
     36  C         31.6720  -18.0740  -33.0280 C.2   236  ASP236      0.2293
     37  O         31.8440  -17.7180  -34.2080 O.2   236  ASP236     -0.2864
     38  CB        33.8290  -18.3800  -31.8750 C.3   236  ASP236      0.1436
     39  CG        35.0880  -17.5920  -31.5490 C.2   236  ASP236      0.3671
     40  OD1       35.0580  -16.3450  -31.5730 O.co2 236  ASP236     -0.2456
     41  OD2       36.1170  -18.2430  -31.2630 O.co2 236  ASP236     -0.2456
     42  N         25.0930  -13.6150  -33.2390 N.3   240  ASP240     -0.1225
     43  CA        24.9590  -12.6040  -32.1930 C.3   240  ASP240      0.1790
     44  C         25.6130  -13.1080  -30.9140 C.2   240  ASP240      0.2440
     45  O         24.9630  -13.8060  -30.1220 O.2   240  ASP240     -0.2733
     46  CB        23.4910  -12.2810  -31.9490 C.3   240  ASP240      0.1423
     47  CG        23.2890  -11.2670  -30.8360 C.2   240  ASP240      0.3668
     48  OD1       24.2770  -10.6320  -30.3790 O.co2 240  ASP240     -0.2456
     49  OD2       22.1210  -11.0930  -30.4210 O.co2 240  ASP240     -0.2456
     50  N         26.8810  -12.7680  -30.6610 N.am  241  PRO241     -0.2718
     51  CA        27.5480  -13.2920  -29.4530 C.3   241  PRO241      0.1535
     52  C         26.9020  -12.8410  -28.1550 C.2   241  PRO241      0.2599
     53  O         27.0270  -13.5360  -27.1440 O.2   241  PRO241     -0.2715
     54  CB        28.9780  -12.7590  -29.5800 C.3   241  PRO241      0.0310
     55  CG        29.1660  -12.4980  -31.0310 C.3   241  PRO241      0.0237
     56  CD        27.8230  -12.0700  -31.5470 C.3   241  PRO241      0.0939
     57  N         26.2120  -11.6980  -28.1440 N.am  242  SER242     -0.1950
     58  CA        25.5650  -11.2470  -26.9130 C.3   242  SER242      0.1924
     59  C         24.3560  -12.0950  -26.5400 C.2   242  SER242      0.2314
     60  O         23.7830  -11.8820  -25.4640 O.2   242  SER242     -0.2863
     61  CB        25.1420   -9.7820  -27.0470 C.3   242  SER242      0.2116
     62  OG        24.0070   -9.6580  -27.8900 O.3   242  SER242     -0.2180
     63  N         36.5030  -12.9670  -24.0950 N.3   278  ALA278     -0.1245
     64  CA        35.8730  -12.6020  -25.3590 C.3   278  ALA278      0.1562
     65  C         36.5560  -11.4110  -26.0210 C.2   278  ALA278      0.2260
     66  O         36.3800  -11.1940  -27.2220 O.2   278  ALA278     -0.2867
     67  CB        34.3910  -12.2930  -25.1450 C.3   278  ALA278      0.0290
     68  N         39.9190  -12.9040  -27.8160 N.3   281  ILE281     -0.1231
     69  CA        39.6820  -13.7500  -28.9760 C.3   281  ILE281      0.1692
     70  C         39.7180  -12.9170  -30.2450 C.2   281  ILE281      0.2591
     71  O         40.1730  -13.3880  -31.2960 O.2   281  ILE281     -0.2718
     72  CB        38.3420  -14.4970  -28.8110 C.3   281  ILE281      0.0266
     73  CG1       38.3240  -15.7820  -29.6370 C.3   281  ILE281      0.0019
     74  CG2       37.1630  -13.6110  -29.2000 C.3   281  ILE281      0.0020
     75  CD1       38.1440  -17.0230  -28.7930 C.3   281  ILE281      0.0001
     76  N         39.2670  -11.6710  -30.1690 N.am  282  MET282     -0.1979
     77  CA        39.2080  -10.8140  -31.3460 C.3   282  MET282      0.1605
     78  C         40.3880   -9.8440  -31.3860 C.2   282  MET282      0.2287
     79  O         40.8580   -9.4660  -32.4640 O.2   282  MET282     -0.2864
     80  CB        37.8900  -10.0400  -31.3700 C.3   282  MET282      0.0413
     81  CG        36.6680  -10.8880  -31.0350 C.3   282  MET282      0.0598
     82  SD        35.1220   -9.9660  -31.1520 S.3   282  MET282     -0.1393
     83  CE        33.9250  -11.2960  -30.9620 C.3   282  MET282      0.0692
@<TRIPOS>BOND
     1    37    36    2
     2    42    43    1
     3    36    35    1
     4    79    78    2
     5    43    46    1
     6    43    44    1
     7    46    47    1
     8    35    38    1
     9    35    34    1
    10    38    39    1
    11    40    39   ar
    12    39    41   ar
    13    56    55    1
    14    56    50    1
    15    78    77    1
    16    80    77    1
    17    80    81    1
    18    77    76    1
    19    71    70    2
    20    82    81    1
    21    82    83    1
    22    55    54    1
    23    29    28    2
    24    44    50   am
    25    44    45    2
    26    47    49   ar
    27    47    48   ar
    28    50    51    1
    29    34    28   am
    30    28    27    1
    31    70    76   am
    32    70    69    1
    33    73    72    1
    34    73    75    1
    35    54    51    1
    36    51    52    1
    37    74    72    1
    38    69    72    1
    39    69    68    1
    40    27    26    1
    41    27    30    1
    42    52    57   am
    43    52    53    2
    44    57    58    1
    45    21    20    2
    46    62    61    1
    47    30    31    1
    48    66    65    2
    49    61    58    1
    50    20    19    1
    51    58    59    1
    52    31    32    1
    53    59    60    2
    54    65    64    1
    55    33    32    1
    56    19    22    1
    57    19    18    1
    58    64    67    1
    59    64    63    1
    60    22    23    1
    61     8     7   ar
    62    25    23    1
    63    23    24    1
    64     7     6    1
    65     7     9   ar
    66     6     5    1
    67     5     2    1
    68     2     1    1
    69     2     3    1
    70    17    16    1
    71    10     3   am
    72    10    11    1
    73     3     4    2
    74    14    11    1
    75    14    15    1
    76    16    15    1
    77    11    12    1
    78    12    13    2
