@<TRIPOS>MOLECULE
tmp/5qdlA00.pdb
 102 94 0 0 0
SMALL
GASTEIGER

@<TRIPOS>ATOM
      1  N         42.9520  -37.7220  -25.1260 N.3   105  ARG105     -0.1245
      2  CA        44.3130  -37.2430  -25.3350 C.3   105  ARG105      0.1563
      3  C         44.8650  -36.5130  -24.1190 C.2   105  ARG105      0.2260
      4  O         46.0400  -36.6940  -23.7800 O.2   105  ARG105     -0.2867
      5  CB        44.3670  -36.3160  -26.5590 C.3   105  ARG105      0.0307
      6  CG        45.7510  -35.7340  -26.8860 C.3   105  ARG105      0.0489
      7  CD        46.5930  -36.6860  -27.7270 C.3   105  ARG105      0.2205
      8  NE        47.9740  -36.2190  -27.8270 N.pl3 105  ARG105     -0.0865
      9  CZ        48.3560  -35.1250  -28.4780 C.cat 105  ARG105      0.5346
     10  NH1       47.4650  -34.3590  -29.1000 N.pl3 105  ARG105      0.1354
     11  NH2       49.6410  -34.7850  -28.4990 N.pl3 105  ARG105      0.1354
     12  N         58.4050  -36.2750  -20.2270 N.3   146  SER146     -0.1202
     13  CA        58.9630  -34.9320  -20.1060 C.3   146  SER146      0.2020
     14  C         58.0180  -34.1000  -19.2650 C.2   146  SER146      0.2619
     15  O         56.8380  -34.4200  -19.1250 O.2   146  SER146     -0.2717
     16  CB        59.1690  -34.2560  -21.4750 C.3   146  SER146      0.2103
     17  OG        57.9400  -33.8170  -22.0160 O.3   146  SER146     -0.2182
     18  N         58.5480  -33.0000  -18.7460 N.am  147  GLU147     -0.1965
     19  CA        57.8270  -32.1180  -17.8320 C.3   147  GLU147      0.1733
     20  C         58.2970  -30.6960  -18.1050 C.2   147  GLU147      0.2616
     21  O         59.5010  -30.4600  -18.1940 O.2   147  GLU147     -0.2715
     22  CB        58.1050  -32.5380  -16.3760 C.3   147  GLU147      0.0429
     23  CG        57.4690  -31.6950  -15.3140 C.3   147  GLU147      0.1163
     24  CD        57.5670  -32.3300  -13.9380 C.2   147  GLU147      0.3649
     25  OE1       56.5200  -32.7000  -13.3780 O.co2 147  GLU147     -0.2457
     26  OE2       58.6870  -32.4500  -13.4000 O.co2 147  GLU147     -0.2457
     27  N         57.3570  -29.7550  -18.2430 N.am  148  ASP148     -0.1971
     28  CA        57.6640  -28.3320  -18.4390 C.3   148  ASP148      0.1709
     29  C         56.9680  -27.5020  -17.3550 C.2   148  ASP148      0.2293
     30  O         55.7400  -27.3380  -17.3810 O.2   148  ASP148     -0.2864
     31  CB        57.2380  -27.9000  -19.8410 C.3   148  ASP148      0.1436
     32  CG        57.7350  -26.5270  -20.2110 C.2   148  ASP148      0.3671
     33  OD1       58.3380  -25.8610  -19.3520 O.co2 148  ASP148     -0.2456
     34  OD2       57.5000  -26.1050  -21.3630 O.co2 148  ASP148     -0.2456
     35  N         53.0080  -28.6180  -17.6700 N.3   155  VAL155     -0.1245
     36  CA        52.5780  -29.5800  -18.7000 C.3   155  VAL155      0.1561
     37  C         53.5080  -30.7690  -18.6860 C.2   155  VAL155      0.2260
     38  O         54.7250  -30.6030  -18.8000 O.2   155  VAL155     -0.2867
     39  CB        52.5930  -28.9890  -20.1190 C.3   155  VAL155      0.0252
     40  CG1       51.9690  -29.9530  -21.0860 C.3   155  VAL155      0.0019
     41  CG2       51.9030  -27.7460  -20.1420 C.3   155  VAL155      0.0019
     42  N         54.2550  -34.6870  -20.5560 N.3   157  GLN157     -0.1245
     43  CA        54.0140  -35.7440  -21.5270 C.3   157  GLN157      0.1566
     44  C         54.1780  -37.0840  -20.8490 C.2   157  GLN157      0.2260
     45  O         55.1950  -37.3230  -20.1910 O.2   157  GLN157     -0.2867
     46  CB        54.9690  -35.6520  -22.7350 C.3   157  GLN157      0.0367
     47  CG        54.8910  -34.4160  -23.5360 C.3   157  GLN157      0.0905
     48  CD        55.8500  -34.4990  -24.7350 C.2   157  GLN157      0.2608
     49  OE1       57.0570  -34.7100  -24.5700 O.2   157  GLN157     -0.2717
     50  NE2       55.3080  -34.3750  -25.9400 N.am  157  GLN157     -0.0878
     51  N         50.3290  -41.5020  -26.3250 N.3   170  GLU170     -0.1245
     52  CA        50.8090  -40.2960  -25.6640 C.3   170  GLU170      0.1567
     53  C         49.6500  -39.5010  -25.0520 C.2   170  GLU170      0.2260
     54  O         48.7430  -39.0740  -25.7670 O.2   170  GLU170     -0.2867
     55  CB        51.5460  -39.4370  -26.6830 C.3   170  GLU170      0.0388
     56  CG        52.1420  -38.1540  -26.1050 C.3   170  GLU170      0.1160
     57  CD        52.7450  -37.2780  -27.1960 C.2   170  GLU170      0.3649
     58  OE1       53.2710  -37.8320  -28.1890 O.co2 170  GLU170     -0.2457
     59  OE2       52.6610  -36.0440  -27.0850 O.co2 170  GLU170     -0.2457
     60  N         48.6970  -36.0690  -22.6620 N.3   172  LEU172     -0.1245
     61  CA        49.1490  -34.7780  -22.1450 C.3   172  LEU172      0.1561
     62  C         48.4630  -34.4370  -20.8100 C.2   172  LEU172      0.2260
     63  O         47.2280  -34.4280  -20.7190 O.2   172  LEU172     -0.2867
     64  CB        48.8740  -33.6710  -23.1670 C.3   172  LEU172      0.0270
     65  CG        49.5010  -33.8370  -24.5680 C.3   172  LEU172      0.0019
     66  CD1       49.1410  -32.6290  -25.4250 C.3   172  LEU172      0.0001
     67  CD2       51.0050  -34.0020  -24.4770 C.3   172  LEU172      0.0001
     68  N         47.8430  -31.5040  -18.1550 N.3   174  PHE174     -0.1241
     69  CA        47.8120  -30.0530  -17.9640 C.3   174  PHE174      0.1605
     70  C         47.4270  -29.7710  -16.5150 C.2   174  PHE174      0.2264
     71  O         46.2740  -29.9610  -16.1140 O.2   174  PHE174     -0.2867
     72  CB        46.8360  -29.3880  -18.9460 C.3   174  PHE174      0.0534
     73  CG        47.3460  -29.3390  -20.3630 C.ar  174  PHE174     -0.0203
     74  CD1       48.1470  -28.2740  -20.7620 C.ar  174  PHE174     -0.0042
     75  CD2       47.0610  -30.3350  -21.2760 C.ar  174  PHE174     -0.0042
     76  CE1       48.6320  -28.2030  -22.0520 C.ar  174  PHE174     -0.0003
     77  CE2       47.5660  -30.2540  -22.5880 C.ar  174  PHE174     -0.0003
     78  CZ        48.3440  -29.2100  -22.9470 C.ar  174  PHE174     -0.0000
     79  N         46.1330  -22.8220  -23.6480 N.3   197  LYS197     -0.1245
     80  CA        47.1720  -23.8470  -23.8460 C.3   197  LYS197      0.1561
     81  C         46.5850  -25.2400  -24.0100 C.2   197  LYS197      0.2260
     82  O         47.0850  -26.0400  -24.8150 O.2   197  LYS197     -0.2867
     83  CB        48.1680  -23.8550  -22.6750 C.3   197  LYS197      0.0271
     84  CG        48.9480  -22.5650  -22.5300 C.3   197  LYS197      0.0035
     85  CD        49.8870  -22.3000  -23.7200 C.3   197  LYS197      0.0206
     86  CE        50.7600  -21.0640  -23.4640 C.3   197  LYS197      0.1093
     87  NZ        51.5960  -20.6800  -24.6390 N.3   197  LYS197     -0.1314
     88  N         45.1720  -25.3120  -27.5770 N.3   200  GLU200     -0.1231
     89  CA        46.1970  -25.3550  -28.6160 C.3   200  GLU200      0.1699
     90  C         46.7970  -26.7360  -28.7860 C.2   200  GLU200      0.2592
     91  O         47.2830  -27.0620  -29.8740 O.2   200  GLU200     -0.2718
     92  CB        47.2880  -24.3430  -28.3030 C.3   200  GLU200      0.0402
     93  CG        46.8320  -22.9240  -28.4810 C.3   200  GLU200      0.1161
     94  CD        47.9020  -21.9230  -28.0890 C.2   200  GLU200      0.3649
     95  OE1       49.0280  -22.3560  -27.7230 O.co2 200  GLU200     -0.2457
     96  OE2       47.6110  -20.7090  -28.1590 O.co2 200  GLU200     -0.2457
     97  N         46.7640  -27.5710  -27.7410 N.am  201  SER201     -0.1952
     98  CA        47.3310  -28.9230  -27.7920 C.3   201  SER201      0.1924
     99  C         46.5420  -29.9370  -28.6290 C.2   201  SER201      0.2314
    100  O         47.0540  -31.0450  -28.8660 O.2   201  SER201     -0.2863
    101  CB        47.4320  -29.4770  -26.3630 C.3   201  SER201      0.2116
    102  OG        46.1600  -29.9170  -25.8950 O.3   201  SER201     -0.2180
@<TRIPOS>BOND
     1    91    90    2
     2    10     9    1
     3   100    99    2
     4    90    89    1
     5    90    97   am
     6    99    98    1
     7    89    92    1
     8    89    88    1
     9    11     9    1
    10    93    92    1
    11    93    94    1
    12     9     8    2
    13    58    57   ar
    14    96    94   ar
    15    94    95   ar
    16     8     7    1
    17    98    97    1
    18    98   101    1
    19     7     6    1
    20    57    59   ar
    21    57    56    1
    22     6     5    1
    23    55    56    1
    24    55    52    1
    25     5     2    1
    26   101   102    1
    27    51    52    1
    28    50    48   am
    29    54    53    2
    30    52    53    1
    31    66    65    1
    32     2     1    1
    33     2     3    1
    34    82    81    2
    35    48    49    2
    36    48    47    1
    37    87    86    1
    38    65    67    1
    39    65    64    1
    40     3     4    2
    41    81    80    1
    42    80    79    1
    43    80    83    1
    44    85    86    1
    45    85    84    1
    46    47    46    1
    47    64    61    1
    48    78    77   ar
    49    78    76   ar
    50    46    43    1
    51    83    84    1
    52    60    61    1
    53    77    75   ar
    54    61    62    1
    55    76    74   ar
    56    17    16    1
    57    43    44    1
    58    43    42    1
    59    16    13    1
    60    34    32   ar
    61    75    73   ar
    62    40    39    1
    63    44    45    2
    64    62    63    2
    65    74    73   ar
    66    73    72    1
    67    12    13    1
    68    32    31    1
    69    32    33   ar
    70    41    39    1
    71    39    36    1
    72    13    14    1
    73    31    28    1
    74    14    15    2
    75    14    18   am
    76    72    69    1
    77    38    37    2
    78    18    19    1
    79    36    37    1
    80    36    35    1
    81    28    27    1
    82    28    29    1
    83    27    20   am
    84    21    20    2
    85    68    69    1
    86    20    19    1
    87    69    70    1
    88    19    22    1
    89    30    29    2
    90    70    71    2
    91    22    23    1
    92    23    24    1
    93    24    26   ar
    94    24    25   ar
