@<TRIPOS>MOLECULE
tmp/5qdmA00.pdb
 76 72 0 0 0
SMALL
GASTEIGER

@<TRIPOS>ATOM
      1  N         42.9570  -43.5730   -3.5900 N.3    89  PRO89      -0.2116
      2  CA        43.9360  -44.6620   -3.6040 C.3    89  PRO89       0.1372
      3  C         43.4170  -45.9210   -4.2710 C.2    89  PRO89       0.2244
      4  O         44.1910  -46.6070   -4.9480 O.2    89  PRO89      -0.2868
      5  CB        44.2270  -44.8920   -2.1110 C.3    89  PRO89       0.0268
      6  CG        43.9050  -43.6480   -1.4600 C.3    89  PRO89       0.0207
      7  CD        42.7980  -43.0050   -2.2450 C.3    89  PRO89       0.0892
      8  N         42.7230  -45.2820   -8.6620 N.3    92  VAL92      -0.1245
      9  CA        43.6810  -44.7530   -9.6210 C.3    92  VAL92       0.1561
     10  C         43.7250  -45.6290  -10.8660 C.2    92  VAL92       0.2260
     11  O         43.9150  -45.1320  -11.9820 O.2    92  VAL92      -0.2867
     12  CB        45.0710  -44.6040   -8.9880 C.3    92  VAL92       0.0252
     13  CG1       46.0920  -44.2730  -10.0250 C.3    92  VAL92       0.0019
     14  CG2       45.0490  -43.4790   -7.9650 C.3    92  VAL92       0.0019
     15  N         47.7370  -31.7750   -5.0130 N.3   113  VAL113     -0.1245
     16  CA        47.5490  -33.0440   -4.3050 C.3   113  VAL113      0.1561
     17  C         47.2450  -32.8000   -2.8300 C.2   113  VAL113      0.2260
     18  O         46.4160  -33.4960   -2.2370 O.2   113  VAL113     -0.2867
     19  CB        48.7880  -33.9430   -4.4880 C.3   113  VAL113      0.0252
     20  CG1       48.7990  -35.0370   -3.5010 C.3   113  VAL113      0.0019
     21  CG2       48.8440  -34.5250   -5.8960 C.3   113  VAL113      0.0019
     22  N         44.8490  -34.2120    2.0760 N.3   119  LEU119     -0.1245
     23  CA        44.9810  -34.7950    0.7400 C.3   119  LEU119      0.1561
     24  C         43.6860  -34.5980   -0.0430 C.2   119  LEU119      0.2260
     25  O         42.6160  -35.0030    0.3980 O.2   119  LEU119     -0.2867
     26  CB        45.3530  -36.2770    0.8380 C.3   119  LEU119      0.0270
     27  CG        46.7480  -36.4890    1.4600 C.3   119  LEU119      0.0019
     28  CD1       47.0400  -37.9500    1.7100 C.3   119  LEU119      0.0001
     29  CD2       47.8410  -35.8770    0.5990 C.3   119  LEU119      0.0001
     30  N         43.6340  -35.3950   -3.6010 N.3   121  CYS121     -0.1221
     31  CA        43.5570  -36.5530   -4.4770 C.3   121  CYS121      0.1808
     32  C         44.8640  -37.3140   -4.3900 C.2   121  CYS121      0.2601
     33  O         45.8400  -36.8440   -3.8120 O.2   121  CYS121     -0.2717
     34  CB        43.1970  -36.1930   -5.9300 C.3   121  CYS121      0.0970
     35  SG        44.4380  -35.7610   -7.1100 S.3   121  CYS121     -0.0800
     36  N         44.8440  -38.5210   -4.9380 N.am  122  ALA122     -0.1965
     37  CA        46.0120  -39.3890   -4.9350 C.3   122  ALA122      0.1728
     38  C         47.0860  -38.8700   -5.8870 C.2   122  ALA122      0.2616
     39  O         46.7960  -38.1700   -6.8590 O.2   122  ALA122     -0.2715
     40  CB        45.5970  -40.8060   -5.3300 C.3   122  ALA122      0.0334
     41  N         48.3450  -39.2160   -5.5990 N.am  123  GLN123     -0.1977
     42  CA        49.4510  -39.0020   -6.5450 C.3   123  GLN123      0.1601
     43  C         49.3400  -40.0770   -7.6250 C.2   123  GLN123      0.2287
     44  O         49.8950  -41.1670   -7.4890 O.2   123  GLN123     -0.2864
     45  CB        50.7990  -39.0690   -5.8370 C.3   123  GLN123      0.0394
     46  CG        52.0190  -38.7960   -6.7200 C.3   123  GLN123      0.0908
     47  CD        52.0600  -37.4030   -7.3060 C.2   123  GLN123      0.2608
     48  OE1       52.0400  -36.4040   -6.5790 O.2   123  GLN123     -0.2717
     49  NE2       52.1530  -37.3270   -8.6330 N.am  123  GLN123     -0.0878
     50  N         54.7750  -46.2940  -13.3670 N.3   133  MET133     -0.1230
     51  CA        53.7130  -46.8340  -12.5310 C.3   133  MET133      0.1702
     52  C         53.0080  -47.9510  -13.2730 C.2   133  MET133      0.2592
     53  O         52.7390  -47.8330  -14.4720 O.2   133  MET133     -0.2718
     54  CB        52.6770  -45.7680  -12.1510 C.3   133  MET133      0.0401
     55  CG        53.1620  -44.7310  -11.1900 C.3   133  MET133      0.0596
     56  SD        51.9170  -43.4870  -10.9380 S.3   133  MET133     -0.1393
     57  CE        50.9470  -44.1480   -9.6300 C.3   133  MET133      0.0692
     58  N         52.7200  -49.0280  -12.5500 N.am  134  ILE134     -0.1966
     59  CA        51.9600  -50.1490  -13.0780 C.3   134  ILE134      0.1727
     60  C         50.7010  -50.3180  -12.2400 C.2   134  ILE134      0.2616
     61  O         50.7680  -50.4350  -11.0100 O.2   134  ILE134     -0.2715
     62  CB        52.7910  -51.4530  -13.0980 C.3   134  ILE134      0.0290
     63  CG1       53.9520  -51.3020  -14.0800 C.3   134  ILE134      0.0022
     64  CG2       51.9280  -52.6230  -13.5350 C.3   134  ILE134      0.0023
     65  CD1       54.9090  -52.4530  -14.0890 C.3   134  ILE134      0.0001
     66  N         49.5630  -50.3400  -12.9120 N.am  135  PHE135     -0.1974
     67  CA        48.2700  -50.5350  -12.2730 C.3   135  PHE135      0.1639
     68  C         47.8480  -51.9700  -12.5680 C.2   135  PHE135      0.2290
     69  O         47.4930  -52.2950  -13.7090 O.2   135  PHE135     -0.2864
     70  CB        47.2660  -49.5000  -12.7910 C.3   135  PHE135      0.0560
     71  CG        47.7520  -48.0890  -12.6350 C.ar  135  PHE135     -0.0200
     72  CD1       47.7640  -47.4840  -11.4020 C.ar  135  PHE135     -0.0042
     73  CD2       48.2350  -47.3930  -13.7080 C.ar  135  PHE135     -0.0042
     74  CE1       48.2330  -46.2150  -11.2550 C.ar  135  PHE135     -0.0003
     75  CE2       48.7120  -46.1340  -13.5660 C.ar  135  PHE135     -0.0003
     76  CZ        48.7080  -45.5350  -12.3450 C.ar  135  PHE135     -0.0000
@<TRIPOS>BOND
     1    53    52    2
     2    65    63    1
     3    63    62    1
     4    69    68    2
     5    73    75   ar
     6    73    71   ar
     7    75    76   ar
     8    64    62    1
     9    50    51    1
    10    52    58   am
    11    52    51    1
    12    62    59    1
    13    59    58    1
    14    59    60    1
    15    66    67    1
    16    66    60   am
    17    70    71    1
    18    70    67    1
    19    71    72   ar
    20    68    67    1
    21    51    54    1
    22    76    74   ar
    23    60    61    2
    24    54    55    1
    25    11    10    2
    26    72    74   ar
    27    55    56    1
    28    56    57    1
    29    10     9    1
    30    13    12    1
    31     9    12    1
    32     9     8    1
    33    12    14    1
    34    49    47   am
    35    43    44    2
    36    43    42    1
    37    47    46    1
    38    47    48    2
    39    35    34    1
    40    39    38    2
    41    46    45    1
    42    42    45    1
    43    42    41    1
    44    34    31    1
    45    21    19    1
    46    38    41   am
    47    38    37    1
    48    40    37    1
    49    15    16    1
    50     4     3    2
    51    36    37    1
    52    36    32   am
    53    19    16    1
    54    19    20    1
    55    31    32    1
    56    31    30    1
    57    32    33    2
    58    16    17    1
    59     3     2    1
    60     2     1    1
    61     2     5    1
    62     1     7    1
    63    17    18    2
    64     7     6    1
    65     5     6    1
    66    24    25    2
    67    24    23    1
    68    29    27    1
    69    23    26    1
    70    23    22    1
    71    26    27    1
    72    27    28    1
